MODEL 1
REMARK VINA RESULT:      -6.9      0.000      0.000
REMARK  10 active torsions:
REMARK  status: ('A' for Active; 'I' for Inactive)
REMARK    1  A    between atoms: C_2  and  C_3 
REMARK    2  A    between atoms: C_3  and  N_4 
REMARK    3  A    between atoms: C_7  and  C_8 
REMARK       I    between atoms: C_8  and  N_9 
REMARK    4  A    between atoms: N_9  and  C_10 
REMARK    5  A    between atoms: C_10  and  C_11 
REMARK    6  A    between atoms: C_11  and  O_12 
REMARK    7  A    between atoms: C_11  and  C_13 
REMARK    8  A    between atoms: C_13  and  O_14 
REMARK    9  A    between atoms: O_14  and  C_15 
REMARK   10  A    between atoms: C_23  and  C_24 
ROOT
HETATM    1  C   UNL     1     -42.430  57.630 -52.467  1.00  0.00     0.255 C 
HETATM    2  N   UNL     1     -41.260  57.127 -51.945  1.00  0.00    -0.354 N 
HETATM    3  O   UNL     1     -43.467  57.723 -51.819  1.00  0.00    -0.268 OA
HETATM    4  H   UNL     1     -40.436  57.192 -52.532  1.00  0.00     0.162 HD
ENDROOT
BRANCH   2   5
HETATM    5  C   UNL     1     -41.049  56.907 -50.517  1.00  0.00     0.156 C 
BRANCH   5   6
HETATM    6  C   UNL     1     -41.380  55.506 -49.962  1.00  0.00     0.160 C 
BRANCH   6   7
HETATM    7  O   UNL     1     -42.748  55.174 -50.226  1.00  0.00    -0.392 OA
HETATM    8  H   UNL     1     -43.301  55.683 -49.592  1.00  0.00     0.210 HD
ENDBRANCH   6   7
BRANCH   6   9
HETATM    9  C   UNL     1     -40.435  54.416 -50.484  1.00  0.00     0.209 C 
BRANCH   9  10
HETATM   10  O   UNL     1     -40.578  54.310 -51.905  1.00  0.00    -0.349 OA
BRANCH  10  11
HETATM   11  C   UNL     1     -40.313  53.078 -52.440  1.00  0.00     0.069 A 
HETATM   12  C   UNL     1     -39.981  52.086 -51.512  1.00  0.00     0.043 A 
HETATM   13  C   UNL     1     -39.691  50.780 -51.928  1.00  0.00    -0.059 A 
HETATM   14  C   UNL     1     -39.335  49.718 -50.931  1.00  0.00     0.048 C 
HETATM   15  C   UNL     1     -39.703  50.485 -53.294  1.00  0.00     0.007 A 
HETATM   16  C   UNL     1     -40.017  51.475 -54.225  1.00  0.00     0.003 A 
HETATM   17  C   UNL     1     -40.323  52.769 -53.801  1.00  0.00     0.037 A 
ENDBRANCH  10  11
ENDBRANCH   9  10
ENDBRANCH   6   9
ENDBRANCH   5   6
ENDBRANCH   2   5
BRANCH   1  18
HETATM   18  C   UNL     1     -42.314  58.090 -53.833  1.00  0.00     0.075 A 
HETATM   19  C   UNL     1     -41.667  59.280 -54.232  1.00  0.00     0.158 A 
HETATM   20  N   UNL     1     -41.748  59.501 -55.540  1.00  0.00    -0.183 NA
HETATM   21  N   UNL     1     -42.511  58.483 -55.993  1.00  0.00    -0.268 N 
HETATM   22  C   UNL     1     -42.803  57.550 -55.016  1.00  0.00     0.052 A 
BRANCH  21  23
HETATM   23  C   UNL     1     -42.969  58.521 -57.382  1.00  0.00     0.106 C 
HETATM   24  C   UNL     1     -43.492  59.921 -57.725  1.00  0.00     0.034 C 
BRANCH  23  25
HETATM   25  C   UNL     1     -41.888  58.081 -58.386  1.00  0.00     0.022 C 
HETATM   26  C   UNL     1     -42.459  57.312 -59.569  1.00  0.00     0.007 C 
ENDBRANCH  23  25
ENDBRANCH  21  23
BRANCH  22  27
HETATM   27  C   UNL     1     -43.510  56.216 -55.268  1.00  0.00     0.038 A 
HETATM   28  C   UNL     1     -42.715  55.079 -55.875  1.00  0.00     0.011 A 
HETATM   29  C   UNL     1     -43.188  54.979 -54.466  1.00  0.00     0.011 A 
ENDBRANCH  22  27
ENDBRANCH   1  18
TORSDOF 10
ENDMDL
MODEL 2
REMARK VINA RESULT:      -6.9      1.423      2.039
REMARK  10 active torsions:
REMARK  status: ('A' for Active; 'I' for Inactive)
REMARK    1  A    between atoms: C_2  and  C_3 
REMARK    2  A    between atoms: C_3  and  N_4 
REMARK    3  A    between atoms: C_7  and  C_8 
REMARK       I    between atoms: C_8  and  N_9 
REMARK    4  A    between atoms: N_9  and  C_10 
REMARK    5  A    between atoms: C_10  and  C_11 
REMARK    6  A    between atoms: C_11  and  O_12 
REMARK    7  A    between atoms: C_11  and  C_13 
REMARK    8  A    between atoms: C_13  and  O_14 
REMARK    9  A    between atoms: O_14  and  C_15 
REMARK   10  A    between atoms: C_23  and  C_24 
ROOT
HETATM    1  C   UNL     1     -43.028  56.353 -51.605  1.00  0.00     0.255 C 
HETATM    2  N   UNL     1     -41.727  56.407 -51.159  1.00  0.00    -0.354 N 
HETATM    3  O   UNL     1     -43.944  55.881 -50.943  1.00  0.00    -0.268 OA
HETATM    4  H   UNL     1     -41.068  56.912 -51.741  1.00  0.00     0.162 HD
ENDROOT
BRANCH   2   5
HETATM    5  C   UNL     1     -41.346  56.165 -49.771  1.00  0.00     0.156 C 
BRANCH   5   6
HETATM    6  C   UNL     1     -40.738  54.787 -49.435  1.00  0.00     0.160 C 
BRANCH   6   7
HETATM    7  O   UNL     1     -40.954  54.470 -48.054  1.00  0.00    -0.392 OA
HETATM    8  H   UNL     1     -40.347  53.731 -47.825  1.00  0.00     0.210 HD
ENDBRANCH   6   7
BRANCH   6   9
HETATM    9  C   UNL     1     -41.253  53.666 -50.347  1.00  0.00     0.209 C 
BRANCH   9  10
HETATM   10  O   UNL     1     -40.261  53.370 -51.336  1.00  0.00    -0.349 OA
BRANCH  10  11
HETATM   11  C   UNL     1     -40.032  52.041 -51.571  1.00  0.00     0.069 A 
HETATM   12  C   UNL     1     -39.908  51.689 -52.919  1.00  0.00     0.043 A 
HETATM   13  C   UNL     1     -39.668  50.362 -53.296  1.00  0.00    -0.059 A 
HETATM   14  C   UNL     1     -39.535  49.986 -54.742  1.00  0.00     0.048 C 
HETATM   15  C   UNL     1     -39.588  49.378 -52.305  1.00  0.00     0.007 A 
HETATM   16  C   UNL     1     -39.728  49.722 -50.960  1.00  0.00     0.003 A 
HETATM   17  C   UNL     1     -39.949  51.050 -50.592  1.00  0.00     0.037 A 
ENDBRANCH  10  11
ENDBRANCH   9  10
ENDBRANCH   6   9
ENDBRANCH   5   6
ENDBRANCH   2   5
BRANCH   1  18
HETATM   18  C   UNL     1     -43.228  56.953 -52.907  1.00  0.00     0.075 A 
HETATM   19  C   UNL     1     -43.240  58.341 -53.163  1.00  0.00     0.158 A 
HETATM   20  N   UNL     1     -43.497  58.633 -54.433  1.00  0.00    -0.183 NA
HETATM   21  N   UNL     1     -43.722  57.428 -55.001  1.00  0.00    -0.268 N 
HETATM   22  C   UNL     1     -43.481  56.372 -54.143  1.00  0.00     0.052 A 
BRANCH  21  23
HETATM   23  C   UNL     1     -44.233  57.390 -56.372  1.00  0.00     0.106 C 
HETATM   24  C   UNL     1     -45.266  58.503 -56.580  1.00  0.00     0.034 C 
BRANCH  23  25
HETATM   25  C   UNL     1     -43.120  57.473 -57.432  1.00  0.00     0.022 C 
HETATM   26  C   UNL     1     -42.998  56.203 -58.263  1.00  0.00     0.007 C 
ENDBRANCH  23  25
ENDBRANCH  21  23
BRANCH  22  27
HETATM   27  C   UNL     1     -43.496  54.897 -54.550  1.00  0.00     0.038 A 
HETATM   28  C   UNL     1     -42.313  54.346 -55.318  1.00  0.00     0.011 A 
HETATM   29  C   UNL     1     -42.567  53.887 -53.923  1.00  0.00     0.011 A 
ENDBRANCH  22  27
ENDBRANCH   1  18
TORSDOF 10
ENDMDL
MODEL 3
REMARK VINA RESULT:      -6.9      2.208      6.993
REMARK  10 active torsions:
REMARK  status: ('A' for Active; 'I' for Inactive)
REMARK    1  A    between atoms: C_2  and  C_3 
REMARK    2  A    between atoms: C_3  and  N_4 
REMARK    3  A    between atoms: C_7  and  C_8 
REMARK       I    between atoms: C_8  and  N_9 
REMARK    4  A    between atoms: N_9  and  C_10 
REMARK    5  A    between atoms: C_10  and  C_11 
REMARK    6  A    between atoms: C_11  and  O_12 
REMARK    7  A    between atoms: C_11  and  C_13 
REMARK    8  A    between atoms: C_13  and  O_14 
REMARK    9  A    between atoms: O_14  and  C_15 
REMARK   10  A    between atoms: C_23  and  C_24 
ROOT
HETATM    1  C   UNL     1     -43.425  56.578 -53.344  1.00  0.00     0.255 C 
HETATM    2  N   UNL     1     -43.116  57.895 -53.088  1.00  0.00    -0.354 N 
HETATM    3  O   UNL     1     -44.185  56.231 -54.240  1.00  0.00    -0.268 OA
HETATM    4  H   UNL     1     -42.397  58.066 -52.393  1.00  0.00     0.162 HD
ENDROOT
BRANCH   2   5
HETATM    5  C   UNL     1     -43.433  58.984 -54.006  1.00  0.00     0.156 C 
BRANCH   5   6
HETATM    6  C   UNL     1     -42.247  59.735 -54.649  1.00  0.00     0.160 C 
BRANCH   6   7
HETATM    7  O   UNL     1     -41.043  59.491 -53.910  1.00  0.00    -0.392 OA
HETATM    8  H   UNL     1     -41.231  58.765 -53.275  1.00  0.00     0.210 HD
ENDBRANCH   6   7
BRANCH   6   9
HETATM    9  C   UNL     1     -42.061  59.402 -56.134  1.00  0.00     0.209 C 
BRANCH   9  10
HETATM   10  O   UNL     1     -42.335  58.012 -56.344  1.00  0.00    -0.349 OA
BRANCH  10  11
HETATM   11  C   UNL     1     -42.434  57.615 -57.651  1.00  0.00     0.069 A 
HETATM   12  C   UNL     1     -43.188  56.458 -57.865  1.00  0.00     0.043 A 
HETATM   13  C   UNL     1     -43.371  55.947 -59.156  1.00  0.00    -0.059 A 
HETATM   14  C   UNL     1     -44.181  54.706 -59.383  1.00  0.00     0.048 C 
HETATM   15  C   UNL     1     -42.757  56.592 -60.234  1.00  0.00     0.007 A 
HETATM   16  C   UNL     1     -41.989  57.737 -60.024  1.00  0.00     0.003 A 
HETATM   17  C   UNL     1     -41.827  58.250 -58.735  1.00  0.00     0.037 A 
ENDBRANCH  10  11
ENDBRANCH   9  10
ENDBRANCH   6   9
ENDBRANCH   5   6
ENDBRANCH   2   5
BRANCH   1  18
HETATM   18  C   UNL     1     -42.732  55.636 -52.493  1.00  0.00     0.075 A 
HETATM   19  C   UNL     1     -43.186  55.206 -51.227  1.00  0.00     0.158 A 
HETATM   20  N   UNL     1     -42.338  54.378 -50.625  1.00  0.00    -0.183 NA
HETATM   21  N   UNL     1     -41.289  54.318 -51.474  1.00  0.00    -0.268 N 
HETATM   22  C   UNL     1     -41.515  54.987 -52.662  1.00  0.00     0.052 A 
BRANCH  21  23
HETATM   23  C   UNL     1     -40.072  53.639 -51.028  1.00  0.00     0.106 C 
HETATM   24  C   UNL     1     -39.588  54.242 -49.704  1.00  0.00     0.034 C 
BRANCH  23  25
HETATM   25  C   UNL     1     -40.244  52.114 -50.903  1.00  0.00     0.022 C 
HETATM   26  C   UNL     1     -39.448  51.342 -51.947  1.00  0.00     0.007 C 
ENDBRANCH  23  25
ENDBRANCH  21  23
BRANCH  22  27
HETATM   27  C   UNL     1     -40.578  54.958 -53.871  1.00  0.00     0.038 A 
HETATM   28  C   UNL     1     -40.407  53.655 -54.624  1.00  0.00     0.011 A 
HETATM   29  C   UNL     1     -41.096  54.802 -55.279  1.00  0.00     0.011 A 
ENDBRANCH  22  27
ENDBRANCH   1  18
TORSDOF 10
ENDMDL
MODEL 4
REMARK VINA RESULT:      -6.9      2.519      7.385
REMARK  10 active torsions:
REMARK  status: ('A' for Active; 'I' for Inactive)
REMARK    1  A    between atoms: C_2  and  C_3 
REMARK    2  A    between atoms: C_3  and  N_4 
REMARK    3  A    between atoms: C_7  and  C_8 
REMARK       I    between atoms: C_8  and  N_9 
REMARK    4  A    between atoms: N_9  and  C_10 
REMARK    5  A    between atoms: C_10  and  C_11 
REMARK    6  A    between atoms: C_11  and  O_12 
REMARK    7  A    between atoms: C_11  and  C_13 
REMARK    8  A    between atoms: C_13  and  O_14 
REMARK    9  A    between atoms: O_14  and  C_15 
REMARK   10  A    between atoms: C_23  and  C_24 
ROOT
HETATM    1  C   UNL     1     -42.609  55.023 -54.501  1.00  0.00     0.255 C 
HETATM    2  N   UNL     1     -42.002  56.127 -55.056  1.00  0.00    -0.354 N 
HETATM    3  O   UNL     1     -43.724  54.635 -54.830  1.00  0.00    -0.268 OA
HETATM    4  H   UNL     1     -41.039  56.298 -54.787  1.00  0.00     0.162 HD
ENDROOT
BRANCH   2   5
HETATM    5  C   UNL     1     -42.488  56.783 -56.265  1.00  0.00     0.156 C 
BRANCH   5   6
HETATM    6  C   UNL     1     -43.563  57.877 -56.093  1.00  0.00     0.160 C 
BRANCH   6   7
HETATM    7  O   UNL     1     -44.872  57.293 -56.085  1.00  0.00    -0.392 OA
HETATM    8  H   UNL     1     -44.757  56.317 -56.102  1.00  0.00     0.210 HD
ENDBRANCH   6   7
BRANCH   6   9
HETATM    9  C   UNL     1     -43.339  58.748 -54.850  1.00  0.00     0.209 C 
BRANCH   9  10
HETATM   10  O   UNL     1     -41.941  59.027 -54.716  1.00  0.00    -0.349 OA
BRANCH  10  11
HETATM   11  C   UNL     1     -41.487  59.195 -53.435  1.00  0.00     0.069 A 
HETATM   12  C   UNL     1     -42.355  59.885 -52.583  1.00  0.00     0.043 A 
HETATM   13  C   UNL     1     -42.013  60.121 -51.246  1.00  0.00    -0.059 A 
HETATM   14  C   UNL     1     -42.945  60.861 -50.334  1.00  0.00     0.048 C 
HETATM   15  C   UNL     1     -40.769  59.687 -50.776  1.00  0.00     0.007 A 
HETATM   16  C   UNL     1     -39.892  59.013 -51.627  1.00  0.00     0.003 A 
HETATM   17  C   UNL     1     -40.249  58.766 -52.954  1.00  0.00     0.037 A 
ENDBRANCH  10  11
ENDBRANCH   9  10
ENDBRANCH   6   9
ENDBRANCH   5   6
ENDBRANCH   2   5
BRANCH   1  18
HETATM   18  C   UNL     1     -41.792  54.329 -53.529  1.00  0.00     0.075 A 
HETATM   19  C   UNL     1     -40.716  53.471 -53.845  1.00  0.00     0.158 A 
HETATM   20  N   UNL     1     -40.163  52.916 -52.772  1.00  0.00    -0.183 NA
HETATM   21  N   UNL     1     -40.924  53.361 -51.749  1.00  0.00    -0.268 N 
HETATM   22  C   UNL     1     -41.867  54.293 -52.143  1.00  0.00     0.052 A 
BRANCH  21  23
HETATM   23  C   UNL     1     -40.714  52.783 -50.422  1.00  0.00     0.106 C 
HETATM   24  C   UNL     1     -40.128  51.372 -50.550  1.00  0.00     0.034 C 
BRANCH  23  25
HETATM   25  C   UNL     1     -39.831  53.661 -49.516  1.00  0.00     0.022 C 
HETATM   26  C   UNL     1     -40.524  54.054 -48.218  1.00  0.00     0.007 C 
ENDBRANCH  23  25
ENDBRANCH  21  23
BRANCH  22  27
HETATM   27  C   UNL     1     -42.759  55.087 -51.186  1.00  0.00     0.038 A 
HETATM   28  C   UNL     1     -42.213  56.359 -50.574  1.00  0.00     0.011 A 
HETATM   29  C   UNL     1     -43.328  56.434 -51.559  1.00  0.00     0.011 A 
ENDBRANCH  22  27
ENDBRANCH   1  18
TORSDOF 10
ENDMDL
MODEL 5
REMARK VINA RESULT:      -6.8      2.239      7.171
REMARK  10 active torsions:
REMARK  status: ('A' for Active; 'I' for Inactive)
REMARK    1  A    between atoms: C_2  and  C_3 
REMARK    2  A    between atoms: C_3  and  N_4 
REMARK    3  A    between atoms: C_7  and  C_8 
REMARK       I    between atoms: C_8  and  N_9 
REMARK    4  A    between atoms: N_9  and  C_10 
REMARK    5  A    between atoms: C_10  and  C_11 
REMARK    6  A    between atoms: C_11  and  O_12 
REMARK    7  A    between atoms: C_11  and  C_13 
REMARK    8  A    between atoms: C_13  and  O_14 
REMARK    9  A    between atoms: O_14  and  C_15 
REMARK   10  A    between atoms: C_23  and  C_24 
ROOT
HETATM    1  C   UNL     1     -41.511  56.358 -53.494  1.00  0.00     0.255 C 
HETATM    2  N   UNL     1     -42.877  56.408 -53.658  1.00  0.00    -0.354 N 
HETATM    3  O   UNL     1     -40.835  57.338 -53.203  1.00  0.00    -0.268 OA
HETATM    4  H   UNL     1     -43.350  55.522 -53.794  1.00  0.00     0.162 HD
ENDROOT
BRANCH   2   5
HETATM    5  C   UNL     1     -43.692  57.546 -53.246  1.00  0.00     0.156 C 
BRANCH   5   6
HETATM    6  C   UNL     1     -43.788  58.738 -54.221  1.00  0.00     0.160 C 
BRANCH   6   7
HETATM    7  O   UNL     1     -42.667  59.615 -54.051  1.00  0.00    -0.392 OA
HETATM    8  H   UNL     1     -42.705  59.963 -53.132  1.00  0.00     0.210 HD
ENDBRANCH   6   7
BRANCH   6   9
HETATM    9  C   UNL     1     -43.932  58.304 -55.686  1.00  0.00     0.209 C 
BRANCH   9  10
HETATM   10  O   UNL     1     -42.657  57.876 -56.178  1.00  0.00    -0.349 OA
BRANCH  10  11
HETATM   11  C   UNL     1     -42.613  57.542 -57.505  1.00  0.00     0.069 A 
HETATM   12  C   UNL     1     -43.344  56.403 -57.855  1.00  0.00     0.043 A 
HETATM   13  C   UNL     1     -43.385  55.955 -59.182  1.00  0.00    -0.059 A 
HETATM   14  C   UNL     1     -44.169  54.732 -59.555  1.00  0.00     0.048 C 
HETATM   15  C   UNL     1     -42.654  56.644 -60.154  1.00  0.00     0.007 A 
HETATM   16  C   UNL     1     -41.909  57.771 -59.807  1.00  0.00     0.003 A 
HETATM   17  C   UNL     1     -41.888  58.221 -58.485  1.00  0.00     0.037 A 
ENDBRANCH  10  11
ENDBRANCH   9  10
ENDBRANCH   6   9
ENDBRANCH   5   6
ENDBRANCH   2   5
BRANCH   1  18
HETATM   18  C   UNL     1     -40.949  55.034 -53.643  1.00  0.00     0.075 A 
HETATM   19  C   UNL     1     -40.343  54.542 -54.820  1.00  0.00     0.158 A 
HETATM   20  N   UNL     1     -39.956  53.275 -54.714  1.00  0.00    -0.183 NA
HETATM   21  N   UNL     1     -40.371  52.913 -53.481  1.00  0.00    -0.268 N 
HETATM   22  C   UNL     1     -40.896  53.967 -52.756  1.00  0.00     0.052 A 
BRANCH  21  23
HETATM   23  C   UNL     1     -40.281  51.503 -53.103  1.00  0.00     0.106 C 
HETATM   24  C   UNL     1     -40.159  50.628 -54.356  1.00  0.00     0.034 C 
BRANCH  23  25
HETATM   25  C   UNL     1     -39.130  51.214 -52.122  1.00  0.00     0.022 C 
HETATM   26  C   UNL     1     -39.471  50.124 -51.115  1.00  0.00     0.007 C 
ENDBRANCH  23  25
ENDBRANCH  21  23
BRANCH  22  27
HETATM   27  C   UNL     1     -41.297  53.895 -51.281  1.00  0.00     0.038 A 
HETATM   28  C   UNL     1     -40.219  54.048 -50.229  1.00  0.00     0.011 A 
HETATM   29  C   UNL     1     -41.256  55.107 -50.383  1.00  0.00     0.011 A 
ENDBRANCH  22  27
ENDBRANCH   1  18
TORSDOF 10
ENDMDL
MODEL 6
REMARK VINA RESULT:      -6.7      2.403      3.797
REMARK  10 active torsions:
REMARK  status: ('A' for Active; 'I' for Inactive)
REMARK    1  A    between atoms: C_2  and  C_3 
REMARK    2  A    between atoms: C_3  and  N_4 
REMARK    3  A    between atoms: C_7  and  C_8 
REMARK       I    between atoms: C_8  and  N_9 
REMARK    4  A    between atoms: N_9  and  C_10 
REMARK    5  A    between atoms: C_10  and  C_11 
REMARK    6  A    between atoms: C_11  and  O_12 
REMARK    7  A    between atoms: C_11  and  C_13 
REMARK    8  A    between atoms: C_13  and  O_14 
REMARK    9  A    between atoms: O_14  and  C_15 
REMARK   10  A    between atoms: C_23  and  C_24 
ROOT
HETATM    1  C   UNL     1     -44.562  58.429 -55.051  1.00  0.00     0.255 C 
HETATM    2  N   UNL     1     -44.774  57.707 -53.898  1.00  0.00    -0.354 N 
HETATM    3  O   UNL     1     -44.686  59.647 -55.110  1.00  0.00    -0.268 OA
HETATM    4  H   UNL     1     -44.543  56.720 -53.931  1.00  0.00     0.162 HD
ENDROOT
BRANCH   2   5
HETATM    5  C   UNL     1     -44.896  58.321 -52.580  1.00  0.00     0.156 C 
BRANCH   5   6
HETATM    6  C   UNL     1     -44.202  57.608 -51.400  1.00  0.00     0.160 C 
BRANCH   6   7
HETATM    7  O   UNL     1     -45.116  56.716 -50.749  1.00  0.00    -0.392 OA
HETATM    8  H   UNL     1     -45.613  56.242 -51.451  1.00  0.00     0.210 HD
ENDBRANCH   6   7
BRANCH   6   9
HETATM    9  C   UNL     1     -42.917  56.879 -51.812  1.00  0.00     0.209 C 
BRANCH   9  10
HETATM   10  O   UNL     1     -43.243  55.550 -52.232  1.00  0.00    -0.349 OA
BRANCH  10  11
HETATM   11  C   UNL     1     -42.257  54.615 -52.069  1.00  0.00     0.069 A 
HETATM   12  C   UNL     1     -41.719  54.105 -53.255  1.00  0.00     0.043 A 
HETATM   13  C   UNL     1     -40.700  53.145 -53.228  1.00  0.00    -0.059 A 
HETATM   14  C   UNL     1     -40.124  52.599 -54.501  1.00  0.00     0.048 C 
HETATM   15  C   UNL     1     -40.246  52.671 -51.993  1.00  0.00     0.007 A 
HETATM   16  C   UNL     1     -40.792  53.164 -50.807  1.00  0.00     0.003 A 
HETATM   17  C   UNL     1     -41.795  54.134 -50.843  1.00  0.00     0.037 A 
ENDBRANCH  10  11
ENDBRANCH   9  10
ENDBRANCH   6   9
ENDBRANCH   5   6
ENDBRANCH   2   5
BRANCH   1  18
HETATM   18  C   UNL     1     -44.131  57.628 -56.175  1.00  0.00     0.075 A 
HETATM   19  C   UNL     1     -43.089  56.675 -56.135  1.00  0.00     0.158 A 
HETATM   20  N   UNL     1     -42.853  56.113 -57.316  1.00  0.00    -0.183 NA
HETATM   21  N   UNL     1     -43.702  56.750 -58.151  1.00  0.00    -0.268 N 
HETATM   22  C   UNL     1     -44.563  57.611 -57.495  1.00  0.00     0.052 A 
BRANCH  21  23
HETATM   23  C   UNL     1     -43.572  56.514 -59.589  1.00  0.00     0.106 C 
HETATM   24  C   UNL     1     -42.139  56.815 -60.044  1.00  0.00     0.034 C 
BRANCH  23  25
HETATM   25  C   UNL     1     -43.989  55.092 -60.006  1.00  0.00     0.022 C 
HETATM   26  C   UNL     1     -45.066  55.083 -61.082  1.00  0.00     0.007 C 
ENDBRANCH  23  25
ENDBRANCH  21  23
BRANCH  22  27
HETATM   27  C   UNL     1     -45.733  58.344 -58.155  1.00  0.00     0.038 A 
HETATM   28  C   UNL     1     -46.838  57.524 -58.786  1.00  0.00     0.011 A 
HETATM   29  C   UNL     1     -47.121  58.326 -57.563  1.00  0.00     0.011 A 
ENDBRANCH  22  27
ENDBRANCH   1  18
TORSDOF 10
ENDMDL
MODEL 7
REMARK VINA RESULT:      -6.7      1.903      2.796
REMARK  10 active torsions:
REMARK  status: ('A' for Active; 'I' for Inactive)
REMARK    1  A    between atoms: C_2  and  C_3 
REMARK    2  A    between atoms: C_3  and  N_4 
REMARK    3  A    between atoms: C_7  and  C_8 
REMARK       I    between atoms: C_8  and  N_9 
REMARK    4  A    between atoms: N_9  and  C_10 
REMARK    5  A    between atoms: C_10  and  C_11 
REMARK    6  A    between atoms: C_11  and  O_12 
REMARK    7  A    between atoms: C_11  and  C_13 
REMARK    8  A    between atoms: C_13  and  O_14 
REMARK    9  A    between atoms: O_14  and  C_15 
REMARK   10  A    between atoms: C_23  and  C_24 
ROOT
HETATM    1  C   UNL     1     -42.609  57.452 -54.242  1.00  0.00     0.255 C 
HETATM    2  N   UNL     1     -43.430  56.959 -53.252  1.00  0.00    -0.354 N 
HETATM    3  O   UNL     1     -41.690  58.232 -54.023  1.00  0.00    -0.268 OA
HETATM    4  H   UNL     1     -44.090  56.240 -53.526  1.00  0.00     0.162 HD
ENDROOT
BRANCH   2   5
HETATM    5  C   UNL     1     -43.134  57.089 -51.828  1.00  0.00     0.156 C 
BRANCH   5   6
HETATM    6  C   UNL     1     -43.369  55.849 -50.941  1.00  0.00     0.160 C 
BRANCH   6   7
HETATM    7  O   UNL     1     -44.755  55.739 -50.593  1.00  0.00    -0.392 OA
HETATM    8  H   UNL     1     -44.825  55.070 -49.876  1.00  0.00     0.210 HD
ENDBRANCH   6   7
BRANCH   6   9
HETATM    9  C   UNL     1     -42.854  54.551 -51.576  1.00  0.00     0.209 C 
BRANCH   9  10
HETATM   10  O   UNL     1     -41.508  54.746 -52.024  1.00  0.00    -0.349 OA
BRANCH  10  11
HETATM   11  C   UNL     1     -40.905  53.656 -52.591  1.00  0.00     0.069 A 
HETATM   12  C   UNL     1     -40.475  52.678 -51.689  1.00  0.00     0.043 A 
HETATM   13  C   UNL     1     -39.846  51.511 -52.140  1.00  0.00    -0.059 A 
HETATM   14  C   UNL     1     -39.385  50.464 -51.171  1.00  0.00     0.048 C 
HETATM   15  C   UNL     1     -39.619  51.348 -53.510  1.00  0.00     0.007 A 
HETATM   16  C   UNL     1     -40.031  52.328 -54.413  1.00  0.00     0.003 A 
HETATM   17  C   UNL     1     -40.674  53.481 -53.956  1.00  0.00     0.037 A 
ENDBRANCH  10  11
ENDBRANCH   9  10
ENDBRANCH   6   9
ENDBRANCH   5   6
ENDBRANCH   2   5
BRANCH   1  18
HETATM   18  C   UNL     1     -42.896  56.926 -55.558  1.00  0.00     0.075 A 
HETATM   19  C   UNL     1     -42.529  55.640 -56.011  1.00  0.00     0.158 A 
HETATM   20  N   UNL     1     -42.864  55.421 -57.279  1.00  0.00    -0.183 NA
HETATM   21  N   UNL     1     -43.394  56.597 -57.680  1.00  0.00    -0.268 N 
HETATM   22  C   UNL     1     -43.522  57.511 -56.651  1.00  0.00     0.052 A 
BRANCH  21  23
HETATM   23  C   UNL     1     -43.693  56.775 -59.100  1.00  0.00     0.106 C 
HETATM   24  C   UNL     1     -42.500  56.326 -59.951  1.00  0.00     0.034 C 
BRANCH  23  25
HETATM   25  C   UNL     1     -44.980  56.053 -59.541  1.00  0.00     0.022 C 
HETATM   26  C   UNL     1     -44.702  54.782 -60.332  1.00  0.00     0.007 C 
ENDBRANCH  23  25
ENDBRANCH  21  23
BRANCH  22  27
HETATM   27  C   UNL     1     -44.232  58.861 -56.770  1.00  0.00     0.038 A 
HETATM   28  C   UNL     1     -45.738  58.876 -56.925  1.00  0.00     0.011 A 
HETATM   29  C   UNL     1     -45.121  59.394 -55.672  1.00  0.00     0.011 A 
ENDBRANCH  22  27
ENDBRANCH   1  18
TORSDOF 10
ENDMDL
MODEL 8
REMARK VINA RESULT:      -6.7      2.501      7.323
REMARK  10 active torsions:
REMARK  status: ('A' for Active; 'I' for Inactive)
REMARK    1  A    between atoms: C_2  and  C_3 
REMARK    2  A    between atoms: C_3  and  N_4 
REMARK    3  A    between atoms: C_7  and  C_8 
REMARK       I    between atoms: C_8  and  N_9 
REMARK    4  A    between atoms: N_9  and  C_10 
REMARK    5  A    between atoms: C_10  and  C_11 
REMARK    6  A    between atoms: C_11  and  O_12 
REMARK    7  A    between atoms: C_11  and  C_13 
REMARK    8  A    between atoms: C_13  and  O_14 
REMARK    9  A    between atoms: O_14  and  C_15 
REMARK   10  A    between atoms: C_23  and  C_24 
ROOT
HETATM    1  C   UNL     1     -42.904  55.025 -54.283  1.00  0.00     0.255 C 
HETATM    2  N   UNL     1     -42.324  56.225 -54.629  1.00  0.00    -0.354 N 
HETATM    3  O   UNL     1     -43.695  54.431 -55.005  1.00  0.00    -0.268 OA
HETATM    4  H   UNL     1     -41.606  56.578 -54.006  1.00  0.00     0.162 HD
ENDROOT
BRANCH   2   5
HETATM    5  C   UNL     1     -42.370  56.776 -55.980  1.00  0.00     0.156 C 
BRANCH   5   6
HETATM    6  C   UNL     1     -42.625  58.291 -56.117  1.00  0.00     0.160 C 
BRANCH   6   7
HETATM    7  O   UNL     1     -43.858  58.530 -56.807  1.00  0.00    -0.392 OA
HETATM    8  H   UNL     1     -43.646  59.048 -57.615  1.00  0.00     0.210 HD
ENDBRANCH   6   7
BRANCH   6   9
HETATM    9  C   UNL     1     -42.592  59.029 -54.773  1.00  0.00     0.209 C 
BRANCH   9  10
HETATM   10  O   UNL     1     -41.231  59.192 -54.357  1.00  0.00    -0.349 OA
BRANCH  10  11
HETATM   11  C   UNL     1     -41.031  59.310 -53.008  1.00  0.00     0.069 A 
HETATM   12  C   UNL     1     -42.045  59.974 -52.312  1.00  0.00     0.043 A 
HETATM   13  C   UNL     1     -41.964  60.159 -50.926  1.00  0.00    -0.059 A 
HETATM   14  C   UNL     1     -43.054  60.872 -50.182  1.00  0.00     0.048 C 
HETATM   15  C   UNL     1     -40.833  59.699 -50.245  1.00  0.00     0.007 A 
HETATM   16  C   UNL     1     -39.810  59.051 -50.937  1.00  0.00     0.003 A 
HETATM   17  C   UNL     1     -39.907  58.856 -52.316  1.00  0.00     0.037 A 
ENDBRANCH  10  11
ENDBRANCH   9  10
ENDBRANCH   6   9
ENDBRANCH   5   6
ENDBRANCH   2   5
BRANCH   1  18
HETATM   18  C   UNL     1     -42.457  54.502 -53.010  1.00  0.00     0.075 A 
HETATM   19  C   UNL     1     -43.163  54.625 -51.794  1.00  0.00     0.158 A 
HETATM   20  N   UNL     1     -42.510  54.105 -50.760  1.00  0.00    -0.183 NA
HETATM   21  N   UNL     1     -41.338  53.697 -51.291  1.00  0.00    -0.268 N 
HETATM   22  C   UNL     1     -41.291  53.830 -52.666  1.00  0.00     0.052 A 
BRANCH  21  23
HETATM   23  C   UNL     1     -40.283  53.246 -50.383  1.00  0.00     0.106 C 
HETATM   24  C   UNL     1     -40.178  54.195 -49.184  1.00  0.00     0.034 C 
BRANCH  23  25
HETATM   25  C   UNL     1     -40.473  51.792 -49.914  1.00  0.00     0.022 C 
HETATM   26  C   UNL     1     -39.832  50.779 -50.853  1.00  0.00     0.007 C 
ENDBRANCH  23  25
ENDBRANCH  21  23
BRANCH  22  27
HETATM   27  C   UNL     1     -40.162  53.305 -53.555  1.00  0.00     0.038 A 
HETATM   28  C   UNL     1     -40.382  52.019 -54.323  1.00  0.00     0.011 A 
HETATM   29  C   UNL     1     -40.264  53.308 -55.060  1.00  0.00     0.011 A 
ENDBRANCH  22  27
ENDBRANCH   1  18
TORSDOF 10
ENDMDL
MODEL 9
REMARK VINA RESULT:      -6.7      2.715      4.810
REMARK  10 active torsions:
REMARK  status: ('A' for Active; 'I' for Inactive)
REMARK    1  A    between atoms: C_2  and  C_3 
REMARK    2  A    between atoms: C_3  and  N_4 
REMARK    3  A    between atoms: C_7  and  C_8 
REMARK       I    between atoms: C_8  and  N_9 
REMARK    4  A    between atoms: N_9  and  C_10 
REMARK    5  A    between atoms: C_10  and  C_11 
REMARK    6  A    between atoms: C_11  and  O_12 
REMARK    7  A    between atoms: C_11  and  C_13 
REMARK    8  A    between atoms: C_13  and  O_14 
REMARK    9  A    between atoms: O_14  and  C_15 
REMARK   10  A    between atoms: C_23  and  C_24 
ROOT
HETATM    1  C   UNL     1     -43.640  56.178 -52.394  1.00  0.00     0.255 C 
HETATM    2  N   UNL     1     -44.050  55.974 -53.693  1.00  0.00    -0.354 N 
HETATM    3  O   UNL     1     -43.094  55.313 -51.720  1.00  0.00    -0.268 OA
HETATM    4  H   UNL     1     -44.394  56.785 -54.194  1.00  0.00     0.162 HD
ENDROOT
BRANCH   2   5
HETATM    5  C   UNL     1     -43.642  54.820 -54.488  1.00  0.00     0.156 C 
BRANCH   5   6
HETATM    6  C   UNL     1     -42.616  55.064 -55.615  1.00  0.00     0.160 C 
BRANCH   6   7
HETATM    7  O   UNL     1     -42.494  56.467 -55.883  1.00  0.00    -0.392 OA
HETATM    8  H   UNL     1     -43.372  56.875 -55.712  1.00  0.00     0.210 HD
ENDBRANCH   6   7
BRANCH   6   9
HETATM    9  C   UNL     1     -41.247  54.435 -55.327  1.00  0.00     0.209 C 
BRANCH   9  10
HETATM   10  O   UNL     1     -40.954  54.563 -53.931  1.00  0.00    -0.349 OA
BRANCH  10  11
HETATM   11  C   UNL     1     -40.493  53.432 -53.314  1.00  0.00     0.069 A 
HETATM   12  C   UNL     1     -40.324  52.324 -54.150  1.00  0.00     0.043 A 
HETATM   13  C   UNL     1     -39.855  51.106 -53.644  1.00  0.00    -0.059 A 
HETATM   14  C   UNL     1     -39.675  49.919 -54.544  1.00  0.00     0.048 C 
HETATM   15  C   UNL     1     -39.587  50.997 -52.276  1.00  0.00     0.007 A 
HETATM   16  C   UNL     1     -39.770  52.093 -51.434  1.00  0.00     0.003 A 
HETATM   17  C   UNL     1     -40.222  53.310 -51.950  1.00  0.00     0.037 A 
ENDBRANCH  10  11
ENDBRANCH   9  10
ENDBRANCH   6   9
ENDBRANCH   5   6
ENDBRANCH   2   5
BRANCH   1  18
HETATM   18  C   UNL     1     -43.865  57.524 -51.913  1.00  0.00     0.075 A 
HETATM   19  C   UNL     1     -44.925  57.910 -51.064  1.00  0.00     0.158 A 
HETATM   20  N   UNL     1     -44.939  59.215 -50.811  1.00  0.00    -0.183 NA
HETATM   21  N   UNL     1     -43.920  59.698 -51.555  1.00  0.00    -0.268 N 
HETATM   22  C   UNL     1     -43.180  58.704 -52.168  1.00  0.00     0.052 A 
BRANCH  21  23
HETATM   23  C   UNL     1     -43.769  61.148 -51.669  1.00  0.00     0.106 C 
HETATM   24  C   UNL     1     -45.145  61.825 -51.643  1.00  0.00     0.034 C 
BRANCH  23  25
HETATM   25  C   UNL     1     -42.847  61.745 -50.590  1.00  0.00     0.022 C 
HETATM   26  C   UNL     1     -43.325  63.100 -50.087  1.00  0.00     0.007 C 
ENDBRANCH  23  25
ENDBRANCH  21  23
BRANCH  22  27
HETATM   27  C   UNL     1     -41.878  58.937 -52.938  1.00  0.00     0.038 A 
HETATM   28  C   UNL     1     -40.584  59.037 -52.159  1.00  0.00     0.011 A 
HETATM   29  C   UNL     1     -40.818  57.869 -53.055  1.00  0.00     0.011 A 
ENDBRANCH  22  27
ENDBRANCH   1  18
TORSDOF 10
ENDMDL
MODEL 10
REMARK VINA RESULT:      -6.3      2.441      3.760
REMARK  10 active torsions:
REMARK  status: ('A' for Active; 'I' for Inactive)
REMARK    1  A    between atoms: C_2  and  C_3 
REMARK    2  A    between atoms: C_3  and  N_4 
REMARK    3  A    between atoms: C_7  and  C_8 
REMARK       I    between atoms: C_8  and  N_9 
REMARK    4  A    between atoms: N_9  and  C_10 
REMARK    5  A    between atoms: C_10  and  C_11 
REMARK    6  A    between atoms: C_11  and  O_12 
REMARK    7  A    between atoms: C_11  and  C_13 
REMARK    8  A    between atoms: C_13  and  O_14 
REMARK    9  A    between atoms: O_14  and  C_15 
REMARK   10  A    between atoms: C_23  and  C_24 
ROOT
HETATM    1  C   UNL     1     -43.135  56.157 -56.422  1.00  0.00     0.255 C 
HETATM    2  N   UNL     1     -43.937  55.872 -55.340  1.00  0.00    -0.354 N 
HETATM    3  O   UNL     1     -42.074  55.583 -56.640  1.00  0.00    -0.268 OA
HETATM    4  H   UNL     1     -44.841  56.330 -55.312  1.00  0.00     0.162 HD
ENDROOT
BRANCH   2   5
HETATM    5  C   UNL     1     -43.756  54.693 -54.499  1.00  0.00     0.156 C 
BRANCH   5   6
HETATM    6  C   UNL     1     -42.871  54.848 -53.244  1.00  0.00     0.160 C 
BRANCH   6   7
HETATM    7  O   UNL     1     -43.493  54.223 -52.114  1.00  0.00    -0.392 OA
HETATM    8  H   UNL     1     -43.585  53.267 -52.322  1.00  0.00     0.210 HD
ENDBRANCH   6   7
BRANCH   6   9
HETATM    9  C   UNL     1     -41.444  54.326 -53.449  1.00  0.00     0.209 C 
BRANCH   9  10
HETATM   10  O   UNL     1     -40.879  53.986 -52.178  1.00  0.00    -0.349 OA
BRANCH  10  11
HETATM   11  C   UNL     1     -40.431  52.699 -52.050  1.00  0.00     0.069 A 
HETATM   12  C   UNL     1     -40.215  52.022 -53.254  1.00  0.00     0.043 A 
HETATM   13  C   UNL     1     -39.753  50.700 -53.262  1.00  0.00    -0.059 A 
HETATM   14  C   UNL     1     -39.522  49.976 -54.555  1.00  0.00     0.048 C 
HETATM   15  C   UNL     1     -39.542  50.047 -52.044  1.00  0.00     0.007 A 
HETATM   16  C   UNL     1     -39.773  50.712 -50.840  1.00  0.00     0.003 A 
HETATM   17  C   UNL     1     -40.216  52.036 -50.841  1.00  0.00     0.037 A 
ENDBRANCH  10  11
ENDBRANCH   9  10
ENDBRANCH   6   9
ENDBRANCH   5   6
ENDBRANCH   2   5
BRANCH   1  18
HETATM   18  C   UNL     1     -43.682  57.159 -57.311  1.00  0.00     0.075 A 
HETATM   19  C   UNL     1     -44.111  58.444 -56.912  1.00  0.00     0.158 A 
HETATM   20  N   UNL     1     -44.623  59.153 -57.912  1.00  0.00    -0.183 NA
HETATM   21  N   UNL     1     -44.592  58.303 -58.961  1.00  0.00    -0.268 N 
HETATM   22  C   UNL     1     -43.947  57.114 -58.674  1.00  0.00     0.052 A 
BRANCH  21  23
HETATM   23  C   UNL     1     -45.269  58.696 -60.196  1.00  0.00     0.106 C 
HETATM   24  C   UNL     1     -46.767  58.381 -60.098  1.00  0.00     0.034 C 
BRANCH  23  25
HETATM   25  C   UNL     1     -45.045  60.175 -60.561  1.00  0.00     0.022 C 
HETATM   26  C   UNL     1     -44.105  60.355 -61.745  1.00  0.00     0.007 C 
ENDBRANCH  23  25
ENDBRANCH  21  23
BRANCH  22  27
HETATM   27  C   UNL     1     -43.617  56.031 -59.703  1.00  0.00     0.038 A 
HETATM   28  C   UNL     1     -44.235  54.659 -59.533  1.00  0.00     0.011 A 
HETATM   29  C   UNL     1     -44.648  55.518 -60.679  1.00  0.00     0.011 A 
ENDBRANCH  22  27
ENDBRANCH   1  18
TORSDOF 10
ENDMDL
