MODEL 1
REMARK VINA RESULT:      -8.4      0.000      0.000
REMARK  3 active torsions:
REMARK  status: ('A' for Active; 'I' for Inactive)
REMARK    1  A    between atoms: O_2  and  C_3 
REMARK    2  A    between atoms: C_5  and  N_15 
REMARK    3  A    between atoms: C_8  and  C_9 
ROOT
HETATM    1  C   UNL     1     -42.177  59.749 -50.730  1.00  0.00     0.177 A 
HETATM    2  N   UNL     1     -42.075  58.424 -50.988  1.00  0.00    -0.206 NA
HETATM    3  C   UNL     1     -43.132  57.752 -51.470  1.00  0.00     0.135 A 
HETATM    4  C   UNL     1     -44.339  58.405 -51.695  1.00  0.00     0.052 A 
HETATM    5  C   UNL     1     -44.440  59.776 -51.437  1.00  0.00     0.020 A 
HETATM    6  C   UNL     1     -43.341  60.487 -50.946  1.00  0.00     0.030 A 
ENDROOT
BRANCH   3   7
HETATM    7  N   UNL     1     -42.984  56.372 -51.729  1.00  0.00    -0.302 N 
HETATM    8  C   UNL     1     -43.634  55.335 -50.972  1.00  0.00     0.135 C 
HETATM    9  C   UNL     1     -43.463  54.093 -51.831  1.00  0.00     0.040 C 
HETATM   10  C   UNL     1     -42.124  54.331 -52.540  1.00  0.00     0.051 C 
HETATM   11  C   UNL     1     -40.908  53.938 -51.659  1.00  0.00     0.058 C 
HETATM   12  C   UNL     1     -42.004  53.581 -53.881  1.00  0.00     0.058 C 
HETATM   13  C   UNL     1     -42.132  55.844 -52.712  1.00  0.00     0.234 C 
HETATM   14  C   UNL     1     -40.376  52.724 -52.351  1.00  0.00    -0.051 A 
HETATM   15  C   UNL     1     -39.364  51.884 -51.914  1.00  0.00     0.007 A 
HETATM   16  C   UNL     1     -40.986  52.526 -53.589  1.00  0.00    -0.051 A 
HETATM   17  C   UNL     1     -38.970  50.828 -52.739  1.00  0.00     0.001 A 
HETATM   18  C   UNL     1     -39.584  50.629 -53.984  1.00  0.00     0.001 A 
HETATM   19  C   UNL     1     -40.598  51.484 -54.417  1.00  0.00     0.007 A 
HETATM   20  O   UNL     1     -41.446  56.428 -53.536  1.00  0.00    -0.272 OA
ENDBRANCH   3   7
BRANCH   1  21
HETATM   21  O   UNL     1     -41.058  60.397 -50.244  1.00  0.00    -0.339 OA
HETATM   22  C   UNL     1     -39.846  59.679 -50.472  1.00  0.00     0.211 C 
ENDBRANCH   1  21
BRANCH   6  23
HETATM   23  C   UNL     1     -43.442  61.914 -50.673  1.00  0.00     0.015 A 
HETATM   24  C   UNL     1     -43.113  63.041 -51.463  1.00  0.00     0.152 A 
HETATM   25  N   UNL     1     -43.357  64.199 -50.843  1.00  0.00    -0.187 NA
HETATM   26  N   UNL     1     -43.864  63.821 -49.660  1.00  0.00    -0.289 N 
HETATM   27  H   UNL     1     -44.148  64.544 -49.007  1.00  0.00     0.188 HD
HETATM   28  C   UNL     1     -43.928  62.467 -49.504  1.00  0.00     0.123 A 
ENDBRANCH   6  23
TORSDOF 3
ENDMDL
MODEL 2
REMARK VINA RESULT:      -8.4      1.172      1.862
REMARK  3 active torsions:
REMARK  status: ('A' for Active; 'I' for Inactive)
REMARK    1  A    between atoms: O_2  and  C_3 
REMARK    2  A    between atoms: C_5  and  N_15 
REMARK    3  A    between atoms: C_8  and  C_9 
ROOT
HETATM    1  C   UNL     1     -43.982  60.268 -51.731  1.00  0.00     0.177 A 
HETATM    2  N   UNL     1     -43.897  58.938 -51.962  1.00  0.00    -0.206 NA
HETATM    3  C   UNL     1     -42.831  58.248 -51.527  1.00  0.00     0.135 A 
HETATM    4  C   UNL     1     -41.804  58.895 -50.847  1.00  0.00     0.052 A 
HETATM    5  C   UNL     1     -41.899  60.269 -50.600  1.00  0.00     0.020 A 
HETATM    6  C   UNL     1     -43.010  60.993 -51.039  1.00  0.00     0.030 A 
ENDROOT
BRANCH   3   7
HETATM    7  N   UNL     1     -42.781  56.861 -51.786  1.00  0.00    -0.302 N 
HETATM    8  C   UNL     1     -43.588  55.884 -51.104  1.00  0.00     0.135 C 
HETATM    9  C   UNL     1     -43.447  54.635 -51.956  1.00  0.00     0.040 C 
HETATM   10  C   UNL     1     -42.032  54.754 -52.534  1.00  0.00     0.051 C 
HETATM   11  C   UNL     1     -40.944  54.252 -51.548  1.00  0.00     0.058 C 
HETATM   12  C   UNL     1     -41.853  53.999 -53.866  1.00  0.00     0.058 C 
HETATM   13  C   UNL     1     -41.890  56.262 -52.690  1.00  0.00     0.234 C 
HETATM   14  C   UNL     1     -40.458  52.998 -52.200  1.00  0.00    -0.051 A 
HETATM   15  C   UNL     1     -39.570  52.070 -51.678  1.00  0.00     0.007 A 
HETATM   16  C   UNL     1     -40.964  52.857 -53.491  1.00  0.00    -0.051 A 
HETATM   17  C   UNL     1     -39.194  50.985 -52.474  1.00  0.00     0.001 A 
HETATM   18  C   UNL     1     -39.703  50.844 -53.773  1.00  0.00     0.001 A 
HETATM   19  C   UNL     1     -40.594  51.787 -54.290  1.00  0.00     0.007 A 
HETATM   20  O   UNL     1     -41.082  56.785 -53.440  1.00  0.00    -0.272 OA
ENDBRANCH   3   7
BRANCH   1  21
HETATM   21  O   UNL     1     -45.104  60.930 -52.192  1.00  0.00    -0.339 OA
HETATM   22  C   UNL     1     -46.327  60.344 -51.750  1.00  0.00     0.211 C 
ENDBRANCH   1  21
BRANCH   6  23
HETATM   23  C   UNL     1     -43.112  62.423 -50.788  1.00  0.00     0.015 A 
HETATM   24  C   UNL     1     -42.817  63.539 -51.607  1.00  0.00     0.152 A 
HETATM   25  N   UNL     1     -43.049  64.706 -51.000  1.00  0.00    -0.187 NA
HETATM   26  N   UNL     1     -43.516  64.345 -49.795  1.00  0.00    -0.289 N 
HETATM   27  H   UNL     1     -43.784  65.077 -49.146  1.00  0.00     0.188 HD
HETATM   28  C   UNL     1     -43.566  62.993 -49.614  1.00  0.00     0.123 A 
ENDBRANCH   6  23
TORSDOF 3
ENDMDL
MODEL 3
REMARK VINA RESULT:      -8.3      5.352      7.034
REMARK  3 active torsions:
REMARK  status: ('A' for Active; 'I' for Inactive)
REMARK    1  A    between atoms: O_2  and  C_3 
REMARK    2  A    between atoms: C_5  and  N_15 
REMARK    3  A    between atoms: C_8  and  C_9 
ROOT
HETATM    1  C   UNL     1     -44.070  56.559 -58.649  1.00  0.00     0.177 A 
HETATM    2  N   UNL     1     -43.274  56.159 -57.631  1.00  0.00    -0.206 NA
HETATM    3  C   UNL     1     -43.389  56.735 -56.424  1.00  0.00     0.135 A 
HETATM    4  C   UNL     1     -44.315  57.751 -56.214  1.00  0.00     0.052 A 
HETATM    5  C   UNL     1     -45.144  58.156 -57.266  1.00  0.00     0.020 A 
HETATM    6  C   UNL     1     -45.040  57.554 -58.523  1.00  0.00     0.030 A 
ENDROOT
BRANCH   3   7
HETATM    7  N   UNL     1     -42.542  56.287 -55.387  1.00  0.00    -0.302 N 
HETATM    8  C   UNL     1     -41.209  56.783 -55.164  1.00  0.00     0.135 C 
HETATM    9  C   UNL     1     -40.862  56.285 -53.772  1.00  0.00     0.040 C 
HETATM   10  C   UNL     1     -41.628  54.961 -53.664  1.00  0.00     0.051 C 
HETATM   11  C   UNL     1     -40.867  53.779 -54.319  1.00  0.00     0.058 C 
HETATM   12  C   UNL     1     -41.962  54.568 -52.211  1.00  0.00     0.058 C 
HETATM   13  C   UNL     1     -42.872  55.258 -54.491  1.00  0.00     0.234 C 
HETATM   14  C   UNL     1     -40.464  52.950 -53.142  1.00  0.00    -0.051 A 
HETATM   15  C   UNL     1     -39.641  51.835 -53.142  1.00  0.00     0.007 A 
HETATM   16  C   UNL     1     -41.074  53.389 -51.968  1.00  0.00    -0.051 A 
HETATM   17  C   UNL     1     -39.431  51.160 -51.937  1.00  0.00     0.001 A 
HETATM   18  C   UNL     1     -40.045  51.602 -50.756  1.00  0.00     0.001 A 
HETATM   19  C   UNL     1     -40.876  52.724 -50.768  1.00  0.00     0.007 A 
HETATM   20  O   UNL     1     -43.914  54.631 -54.384  1.00  0.00    -0.272 OA
ENDBRANCH   3   7
BRANCH   1  21
HETATM   21  O   UNL     1     -43.918  55.928 -59.869  1.00  0.00    -0.339 OA
HETATM   22  C   UNL     1     -44.446  54.602 -59.889  1.00  0.00     0.211 C 
ENDBRANCH   1  21
BRANCH   6  23
HETATM   23  C   UNL     1     -45.898  57.973 -59.621  1.00  0.00     0.015 A 
HETATM   24  C   UNL     1     -47.102  57.427 -60.127  1.00  0.00     0.152 A 
HETATM   25  N   UNL     1     -47.591  58.116 -61.162  1.00  0.00    -0.187 NA
HETATM   26  N   UNL     1     -46.716  59.121 -61.311  1.00  0.00    -0.289 N 
HETATM   27  H   UNL     1     -46.889  59.803 -62.042  1.00  0.00     0.188 HD
HETATM   28  C   UNL     1     -45.681  59.078 -60.422  1.00  0.00     0.123 A 
ENDBRANCH   6  23
TORSDOF 3
ENDMDL
MODEL 4
REMARK VINA RESULT:      -8.1      2.841      8.980
REMARK  3 active torsions:
REMARK  status: ('A' for Active; 'I' for Inactive)
REMARK    1  A    between atoms: O_2  and  C_3 
REMARK    2  A    between atoms: C_5  and  N_15 
REMARK    3  A    between atoms: C_8  and  C_9 
ROOT
HETATM    1  C   UNL     1     -40.849  53.683 -52.232  1.00  0.00     0.177 A 
HETATM    2  N   UNL     1     -41.174  54.996 -52.182  1.00  0.00    -0.206 NA
HETATM    3  C   UNL     1     -41.092  55.749 -53.291  1.00  0.00     0.135 A 
HETATM    4  C   UNL     1     -40.664  55.191 -54.490  1.00  0.00     0.052 A 
HETATM    5  C   UNL     1     -40.338  53.831 -54.542  1.00  0.00     0.020 A 
HETATM    6  C   UNL     1     -40.432  53.037 -53.395  1.00  0.00     0.030 A 
ENDROOT
BRANCH   3   7
HETATM    7  N   UNL     1     -41.441  57.113 -53.199  1.00  0.00    -0.302 N 
HETATM    8  C   UNL     1     -40.503  58.197 -53.328  1.00  0.00     0.135 C 
HETATM    9  C   UNL     1     -41.382  59.421 -53.518  1.00  0.00     0.040 C 
HETATM   10  C   UNL     1     -42.643  59.084 -52.713  1.00  0.00     0.051 C 
HETATM   11  C   UNL     1     -42.481  59.386 -51.200  1.00  0.00     0.058 C 
HETATM   12  C   UNL     1     -43.901  59.821 -53.215  1.00  0.00     0.058 C 
HETATM   13  C   UNL     1     -42.734  57.576 -52.902  1.00  0.00     0.234 C 
HETATM   14  C   UNL     1     -43.389  60.555 -50.996  1.00  0.00    -0.051 A 
HETATM   15  C   UNL     1     -43.531  61.318 -49.847  1.00  0.00     0.007 A 
HETATM   16  C   UNL     1     -44.180  60.798 -52.118  1.00  0.00    -0.051 A 
HETATM   17  C   UNL     1     -44.482  62.341 -49.838  1.00  0.00     0.001 A 
HETATM   18  C   UNL     1     -45.278  62.584 -50.967  1.00  0.00     0.001 A 
HETATM   19  C   UNL     1     -45.130  61.807 -52.117  1.00  0.00     0.007 A 
HETATM   20  O   UNL     1     -43.765  56.940 -52.746  1.00  0.00    -0.272 OA
ENDBRANCH   3   7
BRANCH   1  21
HETATM   21  O   UNL     1     -40.960  52.950 -51.066  1.00  0.00    -0.339 OA
HETATM   22  C   UNL     1     -40.357  53.586 -49.939  1.00  0.00     0.211 C 
ENDBRANCH   1  21
BRANCH   6  23
HETATM   23  C   UNL     1     -40.092  51.622 -53.442  1.00  0.00     0.015 A 
HETATM   24  C   UNL     1     -40.236  50.660 -54.471  1.00  0.00     0.152 A 
HETATM   25  N   UNL     1     -39.796  49.450 -54.116  1.00  0.00    -0.187 NA
HETATM   26  N   UNL     1     -39.347  49.633 -52.866  1.00  0.00    -0.289 N 
HETATM   27  H   UNL     1     -38.940  48.840 -52.381  1.00  0.00     0.188 HD
HETATM   28  C   UNL     1     -39.508  50.910 -52.412  1.00  0.00     0.123 A 
ENDBRANCH   6  23
TORSDOF 3
ENDMDL
MODEL 5
REMARK VINA RESULT:      -8.1      5.365      7.006
REMARK  3 active torsions:
REMARK  status: ('A' for Active; 'I' for Inactive)
REMARK    1  A    between atoms: O_2  and  C_3 
REMARK    2  A    between atoms: C_5  and  N_15 
REMARK    3  A    between atoms: C_8  and  C_9 
ROOT
HETATM    1  C   UNL     1     -42.928  56.763 -58.761  1.00  0.00     0.177 A 
HETATM    2  N   UNL     1     -42.890  56.022 -57.629  1.00  0.00    -0.206 NA
HETATM    3  C   UNL     1     -42.813  56.627 -56.434  1.00  0.00     0.135 A 
HETATM    4  C   UNL     1     -42.759  58.015 -56.349  1.00  0.00     0.052 A 
HETATM    5  C   UNL     1     -42.808  58.779 -57.520  1.00  0.00     0.020 A 
HETATM    6  C   UNL     1     -42.900  58.158 -58.769  1.00  0.00     0.030 A 
ENDROOT
BRANCH   3   7
HETATM    7  N   UNL     1     -42.779  55.819 -55.277  1.00  0.00    -0.302 N 
HETATM    8  C   UNL     1     -43.948  55.269 -54.643  1.00  0.00     0.135 C 
HETATM    9  C   UNL     1     -43.391  54.216 -53.700  1.00  0.00     0.040 C 
HETATM   10  C   UNL     1     -42.026  54.784 -53.296  1.00  0.00     0.051 C 
HETATM   11  C   UNL     1     -42.130  55.818 -52.143  1.00  0.00     0.058 C 
HETATM   12  C   UNL     1     -41.016  53.699 -52.873  1.00  0.00     0.058 C 
HETATM   13  C   UNL     1     -41.607  55.512 -54.566  1.00  0.00     0.234 C 
HETATM   14  C   UNL     1     -41.501  55.099 -50.994  1.00  0.00    -0.051 A 
HETATM   15  C   UNL     1     -41.446  55.513 -49.672  1.00  0.00     0.007 A 
HETATM   16  C   UNL     1     -40.880  53.919 -51.400  1.00  0.00    -0.051 A 
HETATM   17  C   UNL     1     -40.757  54.720 -48.752  1.00  0.00     0.001 A 
HETATM   18  C   UNL     1     -40.132  53.533 -49.162  1.00  0.00     0.001 A 
HETATM   19  C   UNL     1     -40.189  53.127 -50.496  1.00  0.00     0.007 A 
HETATM   20  O   UNL     1     -40.449  55.799 -54.825  1.00  0.00    -0.272 OA
ENDBRANCH   3   7
BRANCH   1  21
HETATM   21  O   UNL     1     -43.017  56.092 -59.965  1.00  0.00    -0.339 OA
HETATM   22  C   UNL     1     -44.040  55.098 -59.984  1.00  0.00     0.211 C 
ENDBRANCH   1  21
BRANCH   6  23
HETATM   23  C   UNL     1     -42.949  58.949 -59.990  1.00  0.00     0.015 A 
HETATM   24  C   UNL     1     -41.917  59.516 -60.776  1.00  0.00     0.152 A 
HETATM   25  N   UNL     1     -42.380  60.181 -61.839  1.00  0.00    -0.187 NA
HETATM   26  N   UNL     1     -43.709  60.024 -61.753  1.00  0.00    -0.289 N 
HETATM   27  H   UNL     1     -44.289  60.436 -62.477  1.00  0.00     0.188 HD
HETATM   28  C   UNL     1     -44.102  59.304 -60.662  1.00  0.00     0.123 A 
ENDBRANCH   6  23
TORSDOF 3
ENDMDL
MODEL 6
REMARK VINA RESULT:      -8.0      4.327      5.214
REMARK  3 active torsions:
REMARK  status: ('A' for Active; 'I' for Inactive)
REMARK    1  A    between atoms: O_2  and  C_3 
REMARK    2  A    between atoms: C_5  and  N_15 
REMARK    3  A    between atoms: C_8  and  C_9 
ROOT
HETATM    1  C   UNL     1     -42.339  58.653 -57.582  1.00  0.00     0.177 A 
HETATM    2  N   UNL     1     -42.308  57.408 -57.052  1.00  0.00    -0.206 NA
HETATM    3  C   UNL     1     -42.127  57.245 -55.733  1.00  0.00     0.135 A 
HETATM    4  C   UNL     1     -41.958  58.350 -54.904  1.00  0.00     0.052 A 
HETATM    5  C   UNL     1     -42.001  59.636 -55.452  1.00  0.00     0.020 A 
HETATM    6  C   UNL     1     -42.202  59.816 -56.824  1.00  0.00     0.030 A 
ENDROOT
BRANCH   3   7
HETATM    7  N   UNL     1     -42.103  55.931 -55.219  1.00  0.00    -0.302 N 
HETATM    8  C   UNL     1     -43.281  55.146 -54.957  1.00  0.00     0.135 C 
HETATM    9  C   UNL     1     -42.747  53.736 -54.774  1.00  0.00     0.040 C 
HETATM   10  C   UNL     1     -41.355  53.956 -54.168  1.00  0.00     0.051 C 
HETATM   11  C   UNL     1     -41.404  54.179 -52.634  1.00  0.00     0.058 C 
HETATM   12  C   UNL     1     -40.378  52.798 -54.451  1.00  0.00     0.058 C 
HETATM   13  C   UNL     1     -40.932  55.257 -54.837  1.00  0.00     0.234 C 
HETATM   14  C   UNL     1     -40.783  52.930 -52.096  1.00  0.00    -0.051 A 
HETATM   15  C   UNL     1     -40.692  52.541 -50.769  1.00  0.00     0.007 A 
HETATM   16  C   UNL     1     -40.211  52.161 -53.108  1.00  0.00    -0.051 A 
HETATM   17  C   UNL     1     -40.016  51.356 -50.466  1.00  0.00     0.001 A 
HETATM   18  C   UNL     1     -39.441  50.583 -51.484  1.00  0.00     0.001 A 
HETATM   19  C   UNL     1     -39.535  50.986 -52.817  1.00  0.00     0.007 A 
HETATM   20  O   UNL     1     -39.768  55.615 -54.931  1.00  0.00    -0.272 OA
ENDBRANCH   3   7
BRANCH   1  21
HETATM   21  O   UNL     1     -42.539  58.766 -58.945  1.00  0.00    -0.339 OA
HETATM   22  C   UNL     1     -41.890  57.743 -59.698  1.00  0.00     0.211 C 
ENDBRANCH   1  21
BRANCH   6  23
HETATM   23  C   UNL     1     -42.244  61.152 -57.400  1.00  0.00     0.015 A 
HETATM   24  C   UNL     1     -43.268  62.129 -57.417  1.00  0.00     0.152 A 
HETATM   25  N   UNL     1     -42.909  63.246 -58.058  1.00  0.00    -0.187 NA
HETATM   26  N   UNL     1     -41.646  62.999 -58.435  1.00  0.00    -0.289 N 
HETATM   27  H   UNL     1     -41.145  63.726 -58.936  1.00  0.00     0.188 HD
HETATM   28  C   UNL     1     -41.203  61.760 -58.075  1.00  0.00     0.123 A 
ENDBRANCH   6  23
TORSDOF 3
ENDMDL
MODEL 7
REMARK VINA RESULT:      -8.0     17.655     20.425
REMARK  3 active torsions:
REMARK  status: ('A' for Active; 'I' for Inactive)
REMARK    1  A    between atoms: O_2  and  C_3 
REMARK    2  A    between atoms: C_5  and  N_15 
REMARK    3  A    between atoms: C_8  and  C_9 
ROOT
HETATM    1  C   UNL     1     -36.581  38.625 -59.526  1.00  0.00     0.177 A 
HETATM    2  N   UNL     1     -36.084  39.163 -58.389  1.00  0.00    -0.206 NA
HETATM    3  C   UNL     1     -36.338  40.446 -58.088  1.00  0.00     0.135 A 
HETATM    4  C   UNL     1     -37.102  41.232 -58.944  1.00  0.00     0.052 A 
HETATM    5  C   UNL     1     -37.624  40.671 -60.114  1.00  0.00     0.020 A 
HETATM    6  C   UNL     1     -37.374  39.332 -60.430  1.00  0.00     0.030 A 
ENDROOT
BRANCH   3   7
HETATM    7  N   UNL     1     -35.803  40.970 -56.891  1.00  0.00    -0.302 N 
HETATM    8  C   UNL     1     -35.014  42.171 -56.818  1.00  0.00     0.135 C 
HETATM    9  C   UNL     1     -34.991  42.504 -55.336  1.00  0.00     0.040 C 
HETATM   10  C   UNL     1     -35.055  41.129 -54.660  1.00  0.00     0.051 C 
HETATM   11  C   UNL     1     -33.665  40.446 -54.569  1.00  0.00     0.058 C 
HETATM   12  C   UNL     1     -35.658  41.176 -53.241  1.00  0.00     0.058 C 
HETATM   13  C   UNL     1     -35.920  40.346 -55.639  1.00  0.00     0.234 C 
HETATM   14  C   UNL     1     -33.371  40.487 -53.104  1.00  0.00    -0.051 A 
HETATM   15  C   UNL     1     -32.189  40.126 -52.474  1.00  0.00     0.007 A 
HETATM   16  C   UNL     1     -34.480  40.893 -52.365  1.00  0.00    -0.051 A 
HETATM   17  C   UNL     1     -32.133  40.182 -51.080  1.00  0.00     0.001 A 
HETATM   18  C   UNL     1     -33.249  40.591 -50.337  1.00  0.00     0.001 A 
HETATM   19  C   UNL     1     -34.435  40.948 -50.980  1.00  0.00     0.007 A 
HETATM   20  O   UNL     1     -36.527  39.331 -55.334  1.00  0.00    -0.272 OA
ENDBRANCH   3   7
BRANCH   1  21
HETATM   21  O   UNL     1     -36.299  37.297 -59.786  1.00  0.00    -0.339 OA
HETATM   22  C   UNL     1     -34.936  37.068 -60.138  1.00  0.00     0.211 C 
ENDBRANCH   1  21
BRANCH   6  23
HETATM   23  C   UNL     1     -37.912  38.744 -61.648  1.00  0.00     0.015 A 
HETATM   24  C   UNL     1     -39.148  38.104 -61.910  1.00  0.00     0.152 A 
HETATM   25  N   UNL     1     -39.264  37.696 -63.177  1.00  0.00    -0.187 NA
HETATM   26  N   UNL     1     -38.113  38.092 -63.740  1.00  0.00    -0.289 N 
HETATM   27  H   UNL     1     -37.973  37.904 -64.728  1.00  0.00     0.188 HD
HETATM   28  C   UNL     1     -37.267  38.715 -62.869  1.00  0.00     0.123 A 
ENDBRANCH   6  23
TORSDOF 3
ENDMDL
MODEL 8
REMARK VINA RESULT:      -7.8      2.745      3.857
REMARK  3 active torsions:
REMARK  status: ('A' for Active; 'I' for Inactive)
REMARK    1  A    between atoms: O_2  and  C_3 
REMARK    2  A    between atoms: C_5  and  N_15 
REMARK    3  A    between atoms: C_8  and  C_9 
ROOT
HETATM    1  C   UNL     1     -45.670  61.087 -49.961  1.00  0.00     0.177 A 
HETATM    2  N   UNL     1     -44.708  60.150 -50.128  1.00  0.00    -0.206 NA
HETATM    3  C   UNL     1     -44.048  60.068 -51.293  1.00  0.00     0.135 A 
HETATM    4  C   UNL     1     -44.354  60.933 -52.338  1.00  0.00     0.052 A 
HETATM    5  C   UNL     1     -45.342  61.908 -52.160  1.00  0.00     0.020 A 
HETATM    6  C   UNL     1     -46.026  62.009 -50.945  1.00  0.00     0.030 A 
ENDROOT
BRANCH   3   7
HETATM    7  N   UNL     1     -43.050  59.079 -51.427  1.00  0.00    -0.302 N 
HETATM    8  C   UNL     1     -41.637  59.344 -51.353  1.00  0.00     0.135 C 
HETATM    9  C   UNL     1     -41.015  57.967 -51.191  1.00  0.00     0.040 C 
HETATM   10  C   UNL     1     -41.972  57.050 -51.961  1.00  0.00     0.051 C 
HETATM   11  C   UNL     1     -41.689  57.042 -53.486  1.00  0.00     0.058 C 
HETATM   12  C   UNL     1     -41.948  55.590 -51.463  1.00  0.00     0.058 C 
HETATM   13  C   UNL     1     -43.312  57.730 -51.717  1.00  0.00     0.234 C 
HETATM   14  C   UNL     1     -41.145  55.669 -53.716  1.00  0.00    -0.051 A 
HETATM   15  C   UNL     1     -40.602  55.165 -54.888  1.00  0.00     0.007 A 
HETATM   16  C   UNL     1     -41.289  54.860 -52.590  1.00  0.00    -0.051 A 
HETATM   17  C   UNL     1     -40.199  53.828 -54.917  1.00  0.00     0.001 A 
HETATM   18  C   UNL     1     -40.345  53.016 -53.783  1.00  0.00     0.001 A 
HETATM   19  C   UNL     1     -40.896  53.531 -52.609  1.00  0.00     0.007 A 
HETATM   20  O   UNL     1     -44.386  57.160 -51.833  1.00  0.00    -0.272 OA
ENDBRANCH   3   7
BRANCH   1  21
HETATM   21  O   UNL     1     -46.314  61.136 -48.739  1.00  0.00    -0.339 OA
HETATM   22  C   UNL     1     -45.419  61.117 -47.628  1.00  0.00     0.211 C 
ENDBRANCH   1  21
BRANCH   6  23
HETATM   23  C   UNL     1     -47.057  63.019 -50.755  1.00  0.00     0.015 A 
HETATM   24  C   UNL     1     -47.189  64.050 -49.794  1.00  0.00     0.152 A 
HETATM   25  N   UNL     1     -48.296  64.778 -49.961  1.00  0.00    -0.187 NA
HETATM   26  N   UNL     1     -48.870  64.233 -51.044  1.00  0.00    -0.289 N 
HETATM   27  H   UNL     1     -49.736  64.638 -51.384  1.00  0.00     0.188 HD
HETATM   28  C   UNL     1     -48.175  63.173 -51.553  1.00  0.00     0.123 A 
ENDBRANCH   6  23
TORSDOF 3
ENDMDL
MODEL 9
REMARK VINA RESULT:      -7.7      3.633      9.016
REMARK  3 active torsions:
REMARK  status: ('A' for Active; 'I' for Inactive)
REMARK    1  A    between atoms: O_2  and  C_3 
REMARK    2  A    between atoms: C_5  and  N_15 
REMARK    3  A    between atoms: C_8  and  C_9 
ROOT
HETATM    1  C   UNL     1     -40.756  53.553 -52.280  1.00  0.00     0.177 A 
HETATM    2  N   UNL     1     -41.089  54.849 -52.485  1.00  0.00    -0.206 NA
HETATM    3  C   UNL     1     -40.947  55.392 -53.704  1.00  0.00     0.135 A 
HETATM    4  C   UNL     1     -40.448  54.635 -54.758  1.00  0.00     0.052 A 
HETATM    5  C   UNL     1     -40.114  53.293 -54.547  1.00  0.00     0.020 A 
HETATM    6  C   UNL     1     -40.270  52.715 -53.284  1.00  0.00     0.030 A 
ENDROOT
BRANCH   3   7
HETATM    7  N   UNL     1     -41.308  56.746 -53.877  1.00  0.00    -0.302 N 
HETATM    8  C   UNL     1     -40.789  57.827 -53.082  1.00  0.00     0.135 C 
HETATM    9  C   UNL     1     -41.176  59.073 -53.861  1.00  0.00     0.040 C 
HETATM   10  C   UNL     1     -42.492  58.675 -54.540  1.00  0.00     0.051 C 
HETATM   11  C   UNL     1     -43.716  58.834 -53.601  1.00  0.00     0.058 C 
HETATM   12  C   UNL     1     -42.774  59.469 -55.832  1.00  0.00     0.058 C 
HETATM   13  C   UNL     1     -42.267  57.192 -54.801  1.00  0.00     0.234 C 
HETATM   14  C   UNL     1     -44.450  59.989 -54.204  1.00  0.00    -0.051 A 
HETATM   15  C   UNL     1     -45.556  60.644 -53.686  1.00  0.00     0.007 A 
HETATM   16  C   UNL     1     -43.925  60.342 -55.446  1.00  0.00    -0.051 A 
HETATM   17  C   UNL     1     -46.135  61.671 -54.436  1.00  0.00     0.001 A 
HETATM   18  C   UNL     1     -45.607  62.025 -55.686  1.00  0.00     0.001 A 
HETATM   19  C   UNL     1     -44.495  61.357 -56.200  1.00  0.00     0.007 A 
HETATM   20  O   UNL     1     -42.890  56.555 -55.636  1.00  0.00    -0.272 OA
ENDBRANCH   3   7
BRANCH   1  21
HETATM   21  O   UNL     1     -40.930  53.039 -51.009  1.00  0.00    -0.339 OA
HETATM   22  C   UNL     1     -40.404  53.879 -49.983  1.00  0.00     0.211 C 
ENDBRANCH   1  21
BRANCH   6  23
HETATM   23  C   UNL     1     -39.921  51.320 -53.057  1.00  0.00     0.015 A 
HETATM   24  C   UNL     1     -39.871  50.215 -53.940  1.00  0.00     0.152 A 
HETATM   25  N   UNL     1     -39.498  49.083 -53.336  1.00  0.00    -0.187 NA
HETATM   26  N   UNL     1     -39.285  49.461 -52.067  1.00  0.00    -0.289 N 
HETATM   27  H   UNL     1     -38.969  48.760 -51.404  1.00  0.00     0.188 HD
HETATM   28  C   UNL     1     -39.531  50.785 -51.845  1.00  0.00     0.123 A 
ENDBRANCH   6  23
TORSDOF 3
ENDMDL
MODEL 10
REMARK VINA RESULT:      -7.7     17.102     19.757
REMARK  3 active torsions:
REMARK  status: ('A' for Active; 'I' for Inactive)
REMARK    1  A    between atoms: O_2  and  C_3 
REMARK    2  A    between atoms: C_5  and  N_15 
REMARK    3  A    between atoms: C_8  and  C_9 
ROOT
HETATM    1  C   UNL     1     -34.083  39.450 -49.854  1.00  0.00     0.177 A 
HETATM    2  N   UNL     1     -34.732  39.975 -50.919  1.00  0.00    -0.206 NA
HETATM    3  C   UNL     1     -34.038  40.576 -51.897  1.00  0.00     0.135 A 
HETATM    4  C   UNL     1     -32.653  40.674 -51.820  1.00  0.00     0.052 A 
HETATM    5  C   UNL     1     -31.982  40.122 -50.723  1.00  0.00     0.020 A 
HETATM    6  C   UNL     1     -32.696  39.484 -49.704  1.00  0.00     0.030 A 
ENDROOT
BRANCH   3   7
HETATM    7  N   UNL     1     -34.751  41.109 -52.993  1.00  0.00    -0.302 N 
HETATM    8  C   UNL     1     -35.806  42.081 -52.873  1.00  0.00     0.135 C 
HETATM    9  C   UNL     1     -35.995  42.591 -54.291  1.00  0.00     0.040 C 
HETATM   10  C   UNL     1     -35.647  41.376 -55.158  1.00  0.00     0.051 C 
HETATM   11  C   UNL     1     -36.839  40.394 -55.310  1.00  0.00     0.058 C 
HETATM   12  C   UNL     1     -35.159  41.755 -56.570  1.00  0.00     0.058 C 
HETATM   13  C   UNL     1     -34.565  40.703 -54.324  1.00  0.00     0.234 C 
HETATM   14  C   UNL     1     -37.222  40.556 -56.746  1.00  0.00    -0.051 A 
HETATM   15  C   UNL     1     -38.319  40.006 -57.390  1.00  0.00     0.007 A 
HETATM   16  C   UNL     1     -36.286  41.313 -57.448  1.00  0.00    -0.051 A 
HETATM   17  C   UNL     1     -38.471  40.231 -58.760  1.00  0.00     0.001 A 
HETATM   18  C   UNL     1     -37.529  40.993 -59.466  1.00  0.00     0.001 A 
HETATM   19  C   UNL     1     -36.425  41.538 -58.809  1.00  0.00     0.007 A 
HETATM   20  O   UNL     1     -33.755  39.915 -54.786  1.00  0.00    -0.272 OA
ENDBRANCH   3   7
BRANCH   1  21
HETATM   21  O   UNL     1     -34.843  38.834 -48.878  1.00  0.00    -0.339 OA
HETATM   22  C   UNL     1     -35.589  37.719 -49.363  1.00  0.00     0.211 C 
ENDBRANCH   1  21
BRANCH   6  23
HETATM   23  C   UNL     1     -32.004  38.911 -48.559  1.00  0.00     0.015 A 
HETATM   24  C   UNL     1     -31.942  37.582 -48.075  1.00  0.00     0.152 A 
HETATM   25  N   UNL     1     -31.188  37.463 -46.979  1.00  0.00    -0.187 NA
HETATM   26  N   UNL     1     -30.744  38.710 -46.766  1.00  0.00    -0.289 N 
HETATM   27  H   UNL     1     -30.124  38.872 -45.979  1.00  0.00     0.188 HD
HETATM   28  C   UNL     1     -31.209  39.616 -47.676  1.00  0.00     0.123 A 
ENDBRANCH   6  23
TORSDOF 3
ENDMDL
