MODEL 1
REMARK VINA RESULT:      -8.7      0.000      0.000
REMARK  6 active torsions:
REMARK  status: ('A' for Active; 'I' for Inactive)
REMARK    1  A    between atoms: N_2  and  C_5 
REMARK    2  A    between atoms: C_10  and  N_11 
REMARK       I    between atoms: N_11  and  C_12 
REMARK    3  A    between atoms: C_12  and  C_14 
REMARK    4  A    between atoms: C_18  and  C_20 
REMARK       I    between atoms: N_24  and  C_25 
REMARK    5  A    between atoms: C_25  and  C_27 
REMARK    6  A    between atoms: C_32  and  O_33 
ROOT
HETATM    1  C   UNL     1     -44.888  59.801 -56.745  1.00  0.00     0.033 A 
HETATM    2  C   UNL     1     -44.440  61.110 -56.964  1.00  0.00     0.017 A 
HETATM    3  C   UNL     1     -45.287  62.062 -57.528  1.00  0.00     0.002 A 
HETATM    4  C   UNL     1     -46.591  61.715 -57.878  1.00  0.00     0.009 A 
HETATM    5  C   UNL     1     -47.066  60.411 -57.668  1.00  0.00    -0.034 A 
HETATM    6  C   UNL     1     -46.208  59.464 -57.078  1.00  0.00     0.026 A 
ENDROOT
BRANCH   5   7
HETATM    7  C   UNL     1     -48.469  60.007 -58.072  1.00  0.00     0.120 C 
HETATM    8  C   UNL     1     -49.533  60.820 -57.316  1.00  0.00     0.032 C 
HETATM    9  C   UNL     1     -50.718  60.815 -58.272  1.00  0.00     0.022 C 
HETATM   10  C   UNL     1     -50.052  60.932 -59.634  1.00  0.00     0.127 C 
HETATM   11  N   UNL     1     -48.795  60.218 -59.488  1.00  0.00    -0.339 N 
HETATM   12  C   UNL     1     -48.158  59.714 -60.608  1.00  0.00     0.254 C 
HETATM   13  O   UNL     1     -48.541  59.909 -61.757  1.00  0.00    -0.267 OA
BRANCH  12  14
HETATM   14  C   UNL     1     -46.930  58.923 -60.417  1.00  0.00     0.033 A 
HETATM   15  C   UNL     1     -47.051  57.570 -60.099  1.00  0.00     0.018 A 
HETATM   16  C   UNL     1     -45.905  56.784 -59.999  1.00  0.00     0.013 A 
HETATM   17  C   UNL     1     -44.633  57.346 -60.189  1.00  0.00    -0.023 A 
HETATM   18  C   UNL     1     -43.475  56.557 -60.113  1.00  0.00     0.048 A 
HETATM   19  C   UNL     1     -44.515  58.734 -60.456  1.00  0.00    -0.025 A 
HETATM   20  C   UNL     1     -42.223  57.139 -60.284  1.00  0.00     0.066 A 
HETATM   21  C   UNL     1     -42.096  58.500 -60.523  1.00  0.00     0.037 A 
HETATM   22  C   UNL     1     -43.237  59.297 -60.612  1.00  0.00     0.015 A 
HETATM   23  C   UNL     1     -45.674  59.517 -60.564  1.00  0.00     0.029 A 
BRANCH  20  24
HETATM   24  O   UNL     1     -41.080  56.395 -60.224  1.00  0.00    -0.361 OA
HETATM   25  H   UNL     1     -40.864  56.243 -59.287  1.00  0.00     0.217 HD
ENDBRANCH  20  24
ENDBRANCH  12  14
ENDBRANCH   5   7
BRANCH   1  26
HETATM   26  C   UNL     1     -43.946  58.831 -56.109  1.00  0.00     0.257 C 
HETATM   27  N   UNL     1     -44.325  57.506 -56.161  1.00  0.00    -0.301 N 
HETATM   28  H   UNL     1     -45.110  57.201 -56.715  1.00  0.00     0.171 HD
HETATM   29  O   UNL     1     -42.922  59.274 -55.602  1.00  0.00    -0.267 OA
BRANCH  27  30
HETATM   30  C   UNL     1     -43.627  56.536 -55.495  1.00  0.00     0.174 A 
HETATM   31  N   UNL     1     -43.829  56.038 -54.300  1.00  0.00    -0.228 NA
HETATM   32  C   UNL     1     -42.906  55.059 -54.044  1.00  0.00     0.050 A 
HETATM   33  C   UNL     1     -42.905  54.329 -52.747  1.00  0.00     0.062 C 
HETATM   34  C   UNL     1     -42.033  54.791 -55.077  1.00  0.00     0.013 A 
HETATM   35  C   UNL     1     -41.587  53.555 -52.553  1.00  0.00     0.039 C 
HETATM   36  C   UNL     1     -41.194  52.802 -53.844  1.00  0.00     0.192 C 
HETATM   37  C   UNL     1     -40.953  53.765 -55.044  1.00  0.00     0.081 C 
HETATM   38  S   UNL     1     -42.339  55.840 -56.386  1.00  0.00    -0.055 SA
BRANCH  36  39
HETATM   39  N   UNL     1     -39.982  51.888 -53.627  1.00  0.00    -0.074 N 
HETATM   40  C   UNL     1     -39.539  51.707 -52.197  1.00  0.00     0.269 C 
HETATM   41  H   UNL     1     -39.194  52.343 -54.110  1.00  0.00     0.279 HD
HETATM   42  C   UNL     1     -40.133  50.550 -54.313  1.00  0.00     0.269 C 
ENDBRANCH  36  39
ENDBRANCH  27  30
ENDBRANCH   1  26
TORSDOF 6
ENDMDL
MODEL 2
REMARK VINA RESULT:      -8.4      3.429      5.792
REMARK  6 active torsions:
REMARK  status: ('A' for Active; 'I' for Inactive)
REMARK    1  A    between atoms: N_2  and  C_5 
REMARK    2  A    between atoms: C_10  and  N_11 
REMARK       I    between atoms: N_11  and  C_12 
REMARK    3  A    between atoms: C_12  and  C_14 
REMARK    4  A    between atoms: C_18  and  C_20 
REMARK       I    between atoms: N_24  and  C_25 
REMARK    5  A    between atoms: C_25  and  C_27 
REMARK    6  A    between atoms: C_32  and  O_33 
ROOT
HETATM    1  C   UNL     1     -43.017  57.810 -56.826  1.00  0.00     0.033 A 
HETATM    2  C   UNL     1     -43.973  57.662 -57.838  1.00  0.00     0.017 A 
HETATM    3  C   UNL     1     -44.204  58.693 -58.748  1.00  0.00     0.002 A 
HETATM    4  C   UNL     1     -43.480  59.881 -58.654  1.00  0.00     0.009 A 
HETATM    5  C   UNL     1     -42.514  60.054 -57.649  1.00  0.00    -0.034 A 
HETATM    6  C   UNL     1     -42.275  58.998 -56.750  1.00  0.00     0.026 A 
ENDROOT
BRANCH   5   7
HETATM    7  C   UNL     1     -41.742  61.350 -57.511  1.00  0.00     0.120 C 
HETATM    8  C   UNL     1     -40.970  61.689 -58.798  1.00  0.00     0.032 C 
HETATM    9  C   UNL     1     -40.870  63.207 -58.752  1.00  0.00     0.022 C 
HETATM   10  C   UNL     1     -42.217  63.616 -58.176  1.00  0.00     0.127 C 
HETATM   11  N   UNL     1     -42.563  62.541 -57.261  1.00  0.00    -0.339 N 
HETATM   12  C   UNL     1     -43.452  62.779 -56.228  1.00  0.00     0.254 C 
HETATM   13  O   UNL     1     -44.057  63.836 -56.077  1.00  0.00    -0.267 OA
BRANCH  12  14
HETATM   14  C   UNL     1     -43.716  61.691 -55.269  1.00  0.00     0.033 A 
HETATM   15  C   UNL     1     -44.894  60.957 -55.402  1.00  0.00     0.018 A 
HETATM   16  C   UNL     1     -45.124  59.869 -54.562  1.00  0.00     0.013 A 
HETATM   17  C   UNL     1     -44.193  59.525 -53.569  1.00  0.00    -0.023 A 
HETATM   18  C   UNL     1     -44.405  58.417 -52.733  1.00  0.00     0.048 A 
HETATM   19  C   UNL     1     -43.024  60.311 -53.403  1.00  0.00    -0.025 A 
HETATM   20  C   UNL     1     -43.480  58.106 -51.742  1.00  0.00     0.066 A 
HETATM   21  C   UNL     1     -42.345  58.883 -51.557  1.00  0.00     0.037 A 
HETATM   22  C   UNL     1     -42.114  59.980 -52.386  1.00  0.00     0.015 A 
HETATM   23  C   UNL     1     -42.796  61.398 -54.259  1.00  0.00     0.029 A 
BRANCH  20  24
HETATM   24  O   UNL     1     -43.656  57.030 -50.920  1.00  0.00    -0.361 OA
HETATM   25  H   UNL     1     -43.748  56.235 -51.473  1.00  0.00     0.217 HD
ENDBRANCH  20  24
ENDBRANCH  12  14
ENDBRANCH   5   7
BRANCH   1  26
HETATM   26  C   UNL     1     -42.790  56.661 -55.898  1.00  0.00     0.257 C 
HETATM   27  N   UNL     1     -41.713  56.781 -55.045  1.00  0.00    -0.301 N 
HETATM   28  H   UNL     1     -41.202  57.647 -54.957  1.00  0.00     0.171 HD
HETATM   29  O   UNL     1     -43.567  55.714 -55.956  1.00  0.00    -0.267 OA
BRANCH  27  30
HETATM   30  C   UNL     1     -41.311  55.744 -54.249  1.00  0.00     0.174 A 
HETATM   31  N   UNL     1     -41.411  55.604 -52.950  1.00  0.00    -0.228 NA
HETATM   32  C   UNL     1     -40.906  54.388 -52.575  1.00  0.00     0.050 A 
HETATM   33  C   UNL     1     -40.891  53.974 -51.145  1.00  0.00     0.062 C 
HETATM   34  C   UNL     1     -40.464  53.591 -53.610  1.00  0.00     0.013 A 
HETATM   35  C   UNL     1     -39.966  52.760 -50.934  1.00  0.00     0.039 C 
HETATM   36  C   UNL     1     -40.200  51.693 -52.027  1.00  0.00     0.192 C 
HETATM   37  C   UNL     1     -39.886  52.227 -53.456  1.00  0.00     0.081 C 
HETATM   38  S   UNL     1     -40.631  54.416 -55.093  1.00  0.00    -0.055 SA
BRANCH  36  39
HETATM   39  N   UNL     1     -39.419  50.403 -51.744  1.00  0.00    -0.074 N 
HETATM   40  C   UNL     1     -39.725  49.721 -50.434  1.00  0.00     0.269 C 
HETATM   41  H   UNL     1     -38.427  50.678 -51.693  1.00  0.00     0.279 HD
HETATM   42  C   UNL     1     -39.488  49.419 -52.888  1.00  0.00     0.269 C 
ENDBRANCH  36  39
ENDBRANCH  27  30
ENDBRANCH   1  26
TORSDOF 6
ENDMDL
MODEL 3
REMARK VINA RESULT:      -7.9      3.385      9.608
REMARK  6 active torsions:
REMARK  status: ('A' for Active; 'I' for Inactive)
REMARK    1  A    between atoms: N_2  and  C_5 
REMARK    2  A    between atoms: C_10  and  N_11 
REMARK       I    between atoms: N_11  and  C_12 
REMARK    3  A    between atoms: C_12  and  C_14 
REMARK    4  A    between atoms: C_18  and  C_20 
REMARK       I    between atoms: N_24  and  C_25 
REMARK    5  A    between atoms: C_25  and  C_27 
REMARK    6  A    between atoms: C_32  and  O_33 
ROOT
HETATM    1  C   UNL     1     -42.524  56.697 -56.012  1.00  0.00     0.033 A 
HETATM    2  C   UNL     1     -41.534  55.725 -55.826  1.00  0.00     0.017 A 
HETATM    3  C   UNL     1     -40.747  55.729 -54.675  1.00  0.00     0.002 A 
HETATM    4  C   UNL     1     -40.944  56.705 -53.699  1.00  0.00     0.009 A 
HETATM    5  C   UNL     1     -41.932  57.690 -53.860  1.00  0.00    -0.034 A 
HETATM    6  C   UNL     1     -42.733  57.663 -55.016  1.00  0.00     0.026 A 
ENDROOT
BRANCH   5   7
HETATM    7  C   UNL     1     -42.138  58.777 -52.826  1.00  0.00     0.120 C 
HETATM    8  C   UNL     1     -42.000  60.179 -53.443  1.00  0.00     0.032 C 
HETATM    9  C   UNL     1     -42.872  61.043 -52.542  1.00  0.00     0.022 C 
HETATM   10  C   UNL     1     -44.043  60.125 -52.227  1.00  0.00     0.127 C 
HETATM   11  N   UNL     1     -43.463  58.793 -52.194  1.00  0.00    -0.339 N 
HETATM   12  C   UNL     1     -44.098  57.785 -51.489  1.00  0.00     0.254 C 
HETATM   13  O   UNL     1     -45.193  57.914 -50.951  1.00  0.00    -0.267 OA
BRANCH  12  14
HETATM   14  C   UNL     1     -43.440  56.469 -51.406  1.00  0.00     0.033 A 
HETATM   15  C   UNL     1     -43.879  55.450 -52.250  1.00  0.00     0.018 A 
HETATM   16  C   UNL     1     -43.215  54.224 -52.250  1.00  0.00     0.013 A 
HETATM   17  C   UNL     1     -42.129  54.001 -51.390  1.00  0.00    -0.023 A 
HETATM   18  C   UNL     1     -41.440  52.778 -51.399  1.00  0.00     0.048 A 
HETATM   19  C   UNL     1     -41.723  55.023 -50.494  1.00  0.00    -0.025 A 
HETATM   20  C   UNL     1     -40.378  52.570 -50.525  1.00  0.00     0.066 A 
HETATM   21  C   UNL     1     -39.989  53.557 -49.628  1.00  0.00     0.037 A 
HETATM   22  C   UNL     1     -40.657  54.781 -49.614  1.00  0.00     0.015 A 
HETATM   23  C   UNL     1     -42.391  56.257 -50.508  1.00  0.00     0.029 A 
BRANCH  20  24
HETATM   24  O   UNL     1     -39.685  51.395 -50.517  1.00  0.00    -0.361 OA
HETATM   25  H   UNL     1     -39.033  51.420 -51.239  1.00  0.00     0.217 HD
ENDBRANCH  20  24
ENDBRANCH  12  14
ENDBRANCH   5   7
BRANCH   1  26
HETATM   26  C   UNL     1     -43.358  56.626 -57.250  1.00  0.00     0.257 C 
HETATM   27  N   UNL     1     -44.102  57.751 -57.538  1.00  0.00    -0.301 N 
HETATM   28  H   UNL     1     -43.980  58.611 -57.027  1.00  0.00     0.171 HD
HETATM   29  O   UNL     1     -43.315  55.594 -57.911  1.00  0.00    -0.267 OA
BRANCH  27  30
HETATM   30  C   UNL     1     -45.012  57.764 -58.559  1.00  0.00     0.174 A 
HETATM   31  N   UNL     1     -45.727  56.781 -59.050  1.00  0.00    -0.228 NA
HETATM   32  C   UNL     1     -46.536  57.251 -60.048  1.00  0.00     0.050 A 
HETATM   33  C   UNL     1     -47.453  56.336 -60.785  1.00  0.00     0.062 C 
HETATM   34  C   UNL     1     -46.460  58.609 -60.277  1.00  0.00     0.013 A 
HETATM   35  C   UNL     1     -47.977  57.003 -62.070  1.00  0.00     0.039 C 
HETATM   36  C   UNL     1     -48.421  58.457 -61.797  1.00  0.00     0.192 C 
HETATM   37  C   UNL     1     -47.249  59.353 -61.298  1.00  0.00     0.081 C 
HETATM   38  S   UNL     1     -45.292  59.308 -59.249  1.00  0.00    -0.055 SA
BRANCH  36  39
HETATM   39  N   UNL     1     -49.106  59.086 -63.017  1.00  0.00    -0.074 N 
HETATM   40  C   UNL     1     -50.612  59.001 -63.044  1.00  0.00     0.269 C 
HETATM   41  H   UNL     1     -48.779  58.550 -63.833  1.00  0.00     0.279 HD
HETATM   42  C   UNL     1     -48.646  60.502 -63.276  1.00  0.00     0.269 C 
ENDBRANCH  36  39
ENDBRANCH  27  30
ENDBRANCH   1  26
TORSDOF 6
ENDMDL
MODEL 4
REMARK VINA RESULT:      -7.6      5.500      8.574
REMARK  6 active torsions:
REMARK  status: ('A' for Active; 'I' for Inactive)
REMARK    1  A    between atoms: N_2  and  C_5 
REMARK    2  A    between atoms: C_10  and  N_11 
REMARK       I    between atoms: N_11  and  C_12 
REMARK    3  A    between atoms: C_12  and  C_14 
REMARK    4  A    between atoms: C_18  and  C_20 
REMARK       I    between atoms: N_24  and  C_25 
REMARK    5  A    between atoms: C_25  and  C_27 
REMARK    6  A    between atoms: C_32  and  O_33 
ROOT
HETATM    1  C   UNL     1     -43.386  60.650 -55.506  1.00  0.00     0.033 A 
HETATM    2  C   UNL     1     -42.218  61.064 -56.157  1.00  0.00     0.017 A 
HETATM    3  C   UNL     1     -41.734  60.359 -57.258  1.00  0.00     0.002 A 
HETATM    4  C   UNL     1     -42.415  59.232 -57.718  1.00  0.00     0.009 A 
HETATM    5  C   UNL     1     -43.590  58.796 -57.084  1.00  0.00    -0.034 A 
HETATM    6  C   UNL     1     -44.080  59.530 -55.987  1.00  0.00     0.026 A 
ENDROOT
BRANCH   5   7
HETATM    7  C   UNL     1     -44.325  57.556 -57.549  1.00  0.00     0.120 C 
HETATM    8  C   UNL     1     -44.804  57.694 -59.004  1.00  0.00     0.032 C 
HETATM    9  C   UNL     1     -44.854  56.252 -59.491  1.00  0.00     0.022 C 
HETATM   10  C   UNL     1     -43.639  55.629 -58.821  1.00  0.00     0.127 C 
HETATM   11  N   UNL     1     -43.528  56.323 -57.549  1.00  0.00    -0.339 N 
HETATM   12  C   UNL     1     -42.859  55.723 -56.496  1.00  0.00     0.254 C 
HETATM   13  O   UNL     1     -42.258  54.658 -56.587  1.00  0.00    -0.267 OA
BRANCH  12  14
HETATM   14  C   UNL     1     -42.838  56.417 -55.197  1.00  0.00     0.033 A 
HETATM   15  C   UNL     1     -43.934  56.276 -54.347  1.00  0.00     0.018 A 
HETATM   16  C   UNL     1     -43.899  56.852 -53.079  1.00  0.00     0.013 A 
HETATM   17  C   UNL     1     -42.782  57.592 -52.661  1.00  0.00    -0.023 A 
HETATM   18  C   UNL     1     -42.728  58.156 -51.377  1.00  0.00     0.048 A 
HETATM   19  C   UNL     1     -41.693  57.778 -53.551  1.00  0.00    -0.025 A 
HETATM   20  C   UNL     1     -41.619  58.902 -50.990  1.00  0.00     0.066 A 
HETATM   21  C   UNL     1     -40.560  59.110 -51.863  1.00  0.00     0.037 A 
HETATM   22  C   UNL     1     -40.593  58.548 -53.139  1.00  0.00     0.015 A 
HETATM   23  C   UNL     1     -41.733  57.188 -54.823  1.00  0.00     0.029 A 
BRANCH  20  24
HETATM   24  O   UNL     1     -41.535  59.456 -49.745  1.00  0.00    -0.361 OA
HETATM   25  H   UNL     1     -41.373  60.410 -49.846  1.00  0.00     0.217 HD
ENDBRANCH  20  24
ENDBRANCH  12  14
ENDBRANCH   5   7
BRANCH   1  26
HETATM   26  C   UNL     1     -43.875  61.463 -54.351  1.00  0.00     0.257 C 
HETATM   27  N   UNL     1     -43.166  61.325 -53.177  1.00  0.00    -0.301 N 
HETATM   28  H   UNL     1     -42.294  60.820 -53.142  1.00  0.00     0.171 HD
HETATM   29  O   UNL     1     -44.850  62.186 -54.531  1.00  0.00    -0.267 OA
BRANCH  27  30
HETATM   30  C   UNL     1     -43.593  61.900 -52.012  1.00  0.00     0.174 A 
HETATM   31  N   UNL     1     -43.235  63.034 -51.463  1.00  0.00    -0.228 NA
HETATM   32  C   UNL     1     -43.943  63.235 -50.309  1.00  0.00     0.050 A 
HETATM   33  C   UNL     1     -43.725  64.452 -49.479  1.00  0.00     0.062 C 
HETATM   34  C   UNL     1     -44.874  62.261 -50.015  1.00  0.00     0.013 A 
HETATM   35  C   UNL     1     -44.350  64.283 -48.082  1.00  0.00     0.039 C 
HETATM   36  C   UNL     1     -45.770  63.682 -48.182  1.00  0.00     0.192 C 
HETATM   37  C   UNL     1     -45.771  62.263 -48.825  1.00  0.00     0.081 C 
HETATM   38  S   UNL     1     -44.817  61.026 -51.188  1.00  0.00    -0.055 SA
BRANCH  36  39
HETATM   39  N   UNL     1     -46.482  63.664 -46.823  1.00  0.00    -0.074 N 
HETATM   40  C   UNL     1     -46.984  62.319 -46.359  1.00  0.00     0.269 C 
HETATM   41  H   UNL     1     -47.319  64.254 -46.934  1.00  0.00     0.279 HD
HETATM   42  C   UNL     1     -45.677  64.337 -45.736  1.00  0.00     0.269 C 
ENDBRANCH  36  39
ENDBRANCH  27  30
ENDBRANCH   1  26
TORSDOF 6
ENDMDL
MODEL 5
REMARK VINA RESULT:      -7.4     18.890     21.777
REMARK  6 active torsions:
REMARK  status: ('A' for Active; 'I' for Inactive)
REMARK    1  A    between atoms: N_2  and  C_5 
REMARK    2  A    between atoms: C_10  and  N_11 
REMARK       I    between atoms: N_11  and  C_12 
REMARK    3  A    between atoms: C_12  and  C_14 
REMARK    4  A    between atoms: C_18  and  C_20 
REMARK       I    between atoms: N_24  and  C_25 
REMARK    5  A    between atoms: C_25  and  C_27 
REMARK    6  A    between atoms: C_32  and  O_33 
ROOT
HETATM    1  C   UNL     1     -35.744  40.802 -55.200  1.00  0.00     0.033 A 
HETATM    2  C   UNL     1     -35.251  42.037 -55.637  1.00  0.00     0.017 A 
HETATM    3  C   UNL     1     -35.391  42.422 -56.970  1.00  0.00     0.002 A 
HETATM    4  C   UNL     1     -36.027  41.575 -57.877  1.00  0.00     0.009 A 
HETATM    5  C   UNL     1     -36.532  40.332 -57.464  1.00  0.00    -0.034 A 
HETATM    6  C   UNL     1     -36.404  39.964 -56.111  1.00  0.00     0.026 A 
ENDROOT
BRANCH   5   7
HETATM    7  C   UNL     1     -37.196  39.385 -58.441  1.00  0.00     0.120 C 
HETATM    8  C   UNL     1     -38.346  40.069 -59.201  1.00  0.00     0.032 C 
HETATM    9  C   UNL     1     -38.402  39.298 -60.512  1.00  0.00     0.022 C 
HETATM   10  C   UNL     1     -36.935  39.031 -60.810  1.00  0.00     0.127 C 
HETATM   11  N   UNL     1     -36.322  38.871 -59.502  1.00  0.00    -0.339 N 
HETATM   12  C   UNL     1     -35.137  38.166 -59.382  1.00  0.00     0.254 C 
HETATM   13  O   UNL     1     -34.501  37.732 -60.338  1.00  0.00    -0.267 OA
BRANCH  12  14
HETATM   14  C   UNL     1     -34.586  37.950 -58.033  1.00  0.00     0.033 A 
HETATM   15  C   UNL     1     -35.132  36.937 -57.245  1.00  0.00     0.018 A 
HETATM   16  C   UNL     1     -34.570  36.658 -56.000  1.00  0.00     0.013 A 
HETATM   17  C   UNL     1     -33.480  37.403 -55.525  1.00  0.00    -0.023 A 
HETATM   18  C   UNL     1     -32.893  37.113 -54.283  1.00  0.00     0.048 A 
HETATM   19  C   UNL     1     -32.966  38.468 -56.308  1.00  0.00    -0.025 A 
HETATM   20  C   UNL     1     -31.826  37.877 -53.822  1.00  0.00     0.066 A 
HETATM   21  C   UNL     1     -31.331  38.936 -54.571  1.00  0.00     0.037 A 
HETATM   22  C   UNL     1     -31.896  39.230 -55.812  1.00  0.00     0.015 A 
HETATM   23  C   UNL     1     -33.531  38.736 -57.563  1.00  0.00     0.029 A 
BRANCH  20  24
HETATM   24  O   UNL     1     -31.230  37.614 -52.623  1.00  0.00    -0.361 OA
HETATM   25  H   UNL     1     -30.440  38.177 -52.544  1.00  0.00     0.217 HD
ENDBRANCH  20  24
ENDBRANCH  12  14
ENDBRANCH   5   7
BRANCH   1  26
HETATM   26  C   UNL     1     -35.594  40.455 -53.753  1.00  0.00     0.257 C 
HETATM   27  N   UNL     1     -34.301  40.423 -53.276  1.00  0.00    -0.301 N 
HETATM   28  H   UNL     1     -33.524  40.752 -53.829  1.00  0.00     0.171 HD
HETATM   29  O   UNL     1     -36.613  40.234 -53.108  1.00  0.00    -0.267 OA
BRANCH  27  30
HETATM   30  C   UNL     1     -34.016  39.982 -52.013  1.00  0.00     0.174 A 
HETATM   31  N   UNL     1     -34.596  39.042 -51.309  1.00  0.00    -0.228 NA
HETATM   32  C   UNL     1     -33.963  38.909 -50.102  1.00  0.00     0.050 A 
HETATM   33  C   UNL     1     -34.427  37.910 -49.100  1.00  0.00     0.062 C 
HETATM   34  C   UNL     1     -32.868  39.728 -49.920  1.00  0.00     0.013 A 
HETATM   35  C   UNL     1     -33.809  38.190 -47.718  1.00  0.00     0.039 C 
HETATM   36  C   UNL     1     -32.299  38.492 -47.840  1.00  0.00     0.192 C 
HETATM   37  C   UNL     1     -32.012  39.758 -48.701  1.00  0.00     0.081 C 
HETATM   38  S   UNL     1     -32.663  40.738 -51.278  1.00  0.00    -0.055 SA
BRANCH  36  39
HETATM   39  N   UNL     1     -31.624  38.604 -46.466  1.00  0.00    -0.074 N 
HETATM   40  C   UNL     1     -31.178  37.305 -45.843  1.00  0.00     0.269 C 
HETATM   41  H   UNL     1     -32.337  38.991 -45.831  1.00  0.00     0.279 HD
HETATM   42  C   UNL     1     -30.503  39.618 -46.450  1.00  0.00     0.269 C 
ENDBRANCH  36  39
ENDBRANCH  27  30
ENDBRANCH   1  26
TORSDOF 6
ENDMDL
MODEL 6
REMARK VINA RESULT:      -7.4     18.607     21.407
REMARK  6 active torsions:
REMARK  status: ('A' for Active; 'I' for Inactive)
REMARK    1  A    between atoms: N_2  and  C_5 
REMARK    2  A    between atoms: C_10  and  N_11 
REMARK       I    between atoms: N_11  and  C_12 
REMARK    3  A    between atoms: C_12  and  C_14 
REMARK    4  A    between atoms: C_18  and  C_20 
REMARK       I    between atoms: N_24  and  C_25 
REMARK    5  A    between atoms: C_25  and  C_27 
REMARK    6  A    between atoms: C_32  and  O_33 
ROOT
HETATM    1  C   UNL     1     -36.493  41.063 -54.976  1.00  0.00     0.033 A 
HETATM    2  C   UNL     1     -35.861  42.242 -55.388  1.00  0.00     0.017 A 
HETATM    3  C   UNL     1     -35.635  42.487 -56.742  1.00  0.00     0.002 A 
HETATM    4  C   UNL     1     -36.040  41.554 -57.696  1.00  0.00     0.009 A 
HETATM    5  C   UNL     1     -36.678  40.364 -57.309  1.00  0.00    -0.034 A 
HETATM    6  C   UNL     1     -36.919  40.139 -55.941  1.00  0.00     0.026 A 
ENDROOT
BRANCH   5   7
HETATM    7  C   UNL     1     -37.095  39.324 -58.328  1.00  0.00     0.120 C 
HETATM    8  C   UNL     1     -38.161  39.871 -59.292  1.00  0.00     0.032 C 
HETATM    9  C   UNL     1     -37.943  39.049 -60.554  1.00  0.00     0.022 C 
HETATM   10  C   UNL     1     -36.430  38.906 -60.605  1.00  0.00     0.127 C 
HETATM   11  N   UNL     1     -36.022  38.852 -59.211  1.00  0.00    -0.339 N 
HETATM   12  C   UNL     1     -34.817  38.263 -58.872  1.00  0.00     0.254 C 
HETATM   13  O   UNL     1     -34.002  37.852 -59.692  1.00  0.00    -0.267 OA
BRANCH  12  14
HETATM   14  C   UNL     1     -34.473  38.149 -57.443  1.00  0.00     0.033 A 
HETATM   15  C   UNL     1     -34.994  37.080 -56.716  1.00  0.00     0.018 A 
HETATM   16  C   UNL     1     -34.613  36.903 -55.387  1.00  0.00     0.013 A 
HETATM   17  C   UNL     1     -33.731  37.806 -54.770  1.00  0.00    -0.023 A 
HETATM   18  C   UNL     1     -33.324  37.623 -53.440  1.00  0.00     0.048 A 
HETATM   19  C   UNL     1     -33.249  38.922 -55.501  1.00  0.00    -0.025 A 
HETATM   20  C   UNL     1     -32.466  38.540 -52.842  1.00  0.00     0.066 A 
HETATM   21  C   UNL     1     -32.008  39.648 -53.541  1.00  0.00     0.037 A 
HETATM   22  C   UNL     1     -32.394  39.839 -54.868  1.00  0.00     0.015 A 
HETATM   23  C   UNL     1     -33.631  39.087 -56.840  1.00  0.00     0.029 A 
BRANCH  20  24
HETATM   24  O   UNL     1     -32.047  38.384 -51.553  1.00  0.00    -0.361 OA
HETATM   25  H   UNL     1     -32.826  38.421 -50.971  1.00  0.00     0.217 HD
ENDBRANCH  20  24
ENDBRANCH  12  14
ENDBRANCH   5   7
BRANCH   1  26
HETATM   26  C   UNL     1     -36.737  40.869 -53.514  1.00  0.00     0.257 C 
HETATM   27  N   UNL     1     -36.584  39.581 -53.046  1.00  0.00    -0.301 N 
HETATM   28  H   UNL     1     -36.195  38.851 -53.623  1.00  0.00     0.171 HD
HETATM   29  O   UNL     1     -37.044  41.852 -52.848  1.00  0.00    -0.267 OA
BRANCH  27  30
HETATM   30  C   UNL     1     -36.915  39.242 -51.763  1.00  0.00     0.174 A 
HETATM   31  N   UNL     1     -38.040  38.762 -51.293  1.00  0.00    -0.228 NA
HETATM   32  C   UNL     1     -37.921  38.536 -49.948  1.00  0.00     0.050 A 
HETATM   33  C   UNL     1     -39.062  37.994 -49.159  1.00  0.00     0.062 C 
HETATM   34  C   UNL     1     -36.679  38.808 -49.414  1.00  0.00     0.013 A 
HETATM   35  C   UNL     1     -38.816  38.167 -47.648  1.00  0.00     0.039 C 
HETATM   36  C   UNL     1     -37.375  37.755 -47.273  1.00  0.00     0.192 C 
HETATM   37  C   UNL     1     -36.301  38.631 -47.984  1.00  0.00     0.081 C 
HETATM   38  S   UNL     1     -35.646  39.423 -50.624  1.00  0.00    -0.055 SA
BRANCH  36  39
HETATM   39  N   UNL     1     -37.157  37.752 -45.754  1.00  0.00    -0.074 N 
HETATM   40  C   UNL     1     -38.192  37.016 -44.941  1.00  0.00     0.269 C 
HETATM   41  H   UNL     1     -37.216  38.737 -45.458  1.00  0.00     0.279 HD
HETATM   42  C   UNL     1     -35.763  37.316 -45.368  1.00  0.00     0.269 C 
ENDBRANCH  36  39
ENDBRANCH  27  30
ENDBRANCH   1  26
TORSDOF 6
ENDMDL
MODEL 7
REMARK VINA RESULT:      -7.4      2.191      4.802
REMARK  6 active torsions:
REMARK  status: ('A' for Active; 'I' for Inactive)
REMARK    1  A    between atoms: N_2  and  C_5 
REMARK    2  A    between atoms: C_10  and  N_11 
REMARK       I    between atoms: N_11  and  C_12 
REMARK    3  A    between atoms: C_12  and  C_14 
REMARK    4  A    between atoms: C_18  and  C_20 
REMARK       I    between atoms: N_24  and  C_25 
REMARK    5  A    between atoms: C_25  and  C_27 
REMARK    6  A    between atoms: C_32  and  O_33 
ROOT
HETATM    1  C   UNL     1     -44.066  59.021 -55.003  1.00  0.00     0.033 A 
HETATM    2  C   UNL     1     -45.126  59.720 -54.413  1.00  0.00     0.017 A 
HETATM    3  C   UNL     1     -45.594  60.905 -54.980  1.00  0.00     0.002 A 
HETATM    4  C   UNL     1     -45.007  61.401 -56.143  1.00  0.00     0.009 A 
HETATM    5  C   UNL     1     -43.944  60.718 -56.756  1.00  0.00    -0.034 A 
HETATM    6  C   UNL     1     -43.494  59.513 -56.186  1.00  0.00     0.026 A 
ENDROOT
BRANCH   5   7
HETATM    7  C   UNL     1     -43.272  61.259 -58.001  1.00  0.00     0.120 C 
HETATM    8  C   UNL     1     -41.807  61.645 -57.733  1.00  0.00     0.032 C 
HETATM    9  C   UNL     1     -41.149  61.481 -59.095  1.00  0.00     0.022 C 
HETATM   10  C   UNL     1     -41.843  60.250 -59.658  1.00  0.00     0.127 C 
HETATM   11  N   UNL     1     -43.194  60.318 -59.125  1.00  0.00    -0.339 N 
HETATM   12  C   UNL     1     -44.222  59.659 -59.777  1.00  0.00     0.254 C 
HETATM   13  O   UNL     1     -44.057  58.927 -60.747  1.00  0.00    -0.267 OA
BRANCH  12  14
HETATM   14  C   UNL     1     -45.592  59.818 -59.258  1.00  0.00     0.033 A 
HETATM   15  C   UNL     1     -46.130  58.798 -58.474  1.00  0.00     0.018 A 
HETATM   16  C   UNL     1     -47.390  58.964 -57.902  1.00  0.00     0.013 A 
HETATM   17  C   UNL     1     -48.129  60.135 -58.130  1.00  0.00    -0.023 A 
HETATM   18  C   UNL     1     -49.389  60.321 -57.539  1.00  0.00     0.048 A 
HETATM   19  C   UNL     1     -47.599  61.144 -58.974  1.00  0.00    -0.025 A 
HETATM   20  C   UNL     1     -50.114  61.481 -57.794  1.00  0.00     0.066 A 
HETATM   21  C   UNL     1     -49.613  62.463 -58.638  1.00  0.00     0.037 A 
HETATM   22  C   UNL     1     -48.359  62.299 -59.224  1.00  0.00     0.015 A 
HETATM   23  C   UNL     1     -46.327  60.973 -59.539  1.00  0.00     0.029 A 
BRANCH  20  24
HETATM   24  O   UNL     1     -51.337  61.692 -57.227  1.00  0.00    -0.361 OA
HETATM   25  H   UNL     1     -51.257  61.554 -56.268  1.00  0.00     0.217 HD
ENDBRANCH  20  24
ENDBRANCH  12  14
ENDBRANCH   5   7
BRANCH   1  26
HETATM   26  C   UNL     1     -43.626  57.741 -54.369  1.00  0.00     0.257 C 
HETATM   27  N   UNL     1     -42.263  57.540 -54.306  1.00  0.00    -0.301 N 
HETATM   28  H   UNL     1     -41.609  58.271 -54.542  1.00  0.00     0.171 HD
HETATM   29  O   UNL     1     -44.493  56.980 -53.953  1.00  0.00    -0.267 OA
BRANCH  27  30
HETATM   30  C   UNL     1     -41.735  56.352 -53.882  1.00  0.00     0.174 A 
HETATM   31  N   UNL     1     -41.582  55.896 -52.663  1.00  0.00    -0.228 NA
HETATM   32  C   UNL     1     -41.038  54.640 -52.703  1.00  0.00     0.050 A 
HETATM   33  C   UNL     1     -40.752  53.890 -51.449  1.00  0.00     0.062 C 
HETATM   34  C   UNL     1     -40.823  54.134 -53.968  1.00  0.00     0.013 A 
HETATM   35  C   UNL     1     -39.829  52.689 -51.726  1.00  0.00     0.039 C 
HETATM   36  C   UNL     1     -40.293  51.914 -52.980  1.00  0.00     0.192 C 
HETATM   37  C   UNL     1     -40.254  52.790 -54.268  1.00  0.00     0.081 C 
HETATM   38  S   UNL     1     -41.259  55.290 -55.142  1.00  0.00    -0.055 SA
BRANCH  36  39
HETATM   39  N   UNL     1     -39.498  50.617 -53.179  1.00  0.00    -0.074 N 
HETATM   40  C   UNL     1     -39.514  49.650 -52.022  1.00  0.00     0.269 C 
HETATM   41  H   UNL     1     -38.515  50.902 -53.294  1.00  0.00     0.279 HD
HETATM   42  C   UNL     1     -39.848  49.913 -54.470  1.00  0.00     0.269 C 
ENDBRANCH  36  39
ENDBRANCH  27  30
ENDBRANCH   1  26
TORSDOF 6
ENDMDL
MODEL 8
REMARK VINA RESULT:      -7.2      2.731      9.780
REMARK  6 active torsions:
REMARK  status: ('A' for Active; 'I' for Inactive)
REMARK    1  A    between atoms: N_2  and  C_5 
REMARK    2  A    between atoms: C_10  and  N_11 
REMARK       I    between atoms: N_11  and  C_12 
REMARK    3  A    between atoms: C_12  and  C_14 
REMARK    4  A    between atoms: C_18  and  C_20 
REMARK       I    between atoms: N_24  and  C_25 
REMARK    5  A    between atoms: C_25  and  C_27 
REMARK    6  A    between atoms: C_32  and  O_33 
ROOT
HETATM    1  C   UNL     1     -42.614  55.533 -54.881  1.00  0.00     0.033 A 
HETATM    2  C   UNL     1     -41.401  55.450 -55.576  1.00  0.00     0.017 A 
HETATM    3  C   UNL     1     -40.280  54.880 -54.975  1.00  0.00     0.002 A 
HETATM    4  C   UNL     1     -40.361  54.388 -53.673  1.00  0.00     0.009 A 
HETATM    5  C   UNL     1     -41.566  54.457 -52.955  1.00  0.00    -0.034 A 
HETATM    6  C   UNL     1     -42.696  55.014 -53.581  1.00  0.00     0.026 A 
ENDROOT
BRANCH   5   7
HETATM    7  C   UNL     1     -41.665  53.956 -51.529  1.00  0.00     0.120 C 
HETATM    8  C   UNL     1     -40.969  52.596 -51.356  1.00  0.00     0.032 C 
HETATM    9  C   UNL     1     -40.561  52.598 -49.889  1.00  0.00     0.022 C 
HETATM   10  C   UNL     1     -40.152  54.044 -49.656  1.00  0.00     0.127 C 
HETATM   11  N   UNL     1     -41.029  54.815 -50.522  1.00  0.00    -0.339 N 
HETATM   12  C   UNL     1     -41.276  56.146 -50.238  1.00  0.00     0.254 C 
HETATM   13  O   UNL     1     -40.723  56.767 -49.335  1.00  0.00    -0.267 OA
BRANCH  12  14
HETATM   14  C   UNL     1     -42.235  56.876 -51.087  1.00  0.00     0.033 A 
HETATM   15  C   UNL     1     -43.598  56.667 -50.884  1.00  0.00     0.018 A 
HETATM   16  C   UNL     1     -44.523  57.409 -51.615  1.00  0.00     0.013 A 
HETATM   17  C   UNL     1     -44.094  58.344 -52.570  1.00  0.00    -0.023 A 
HETATM   18  C   UNL     1     -45.018  59.113 -53.294  1.00  0.00     0.048 A 
HETATM   19  C   UNL     1     -42.706  58.511 -52.811  1.00  0.00    -0.025 A 
HETATM   20  C   UNL     1     -44.572  60.020 -54.251  1.00  0.00     0.066 A 
HETATM   21  C   UNL     1     -43.217  60.173 -54.510  1.00  0.00     0.037 A 
HETATM   22  C   UNL     1     -42.285  59.424 -53.791  1.00  0.00     0.015 A 
HETATM   23  C   UNL     1     -41.782  57.766 -52.064  1.00  0.00     0.029 A 
BRANCH  20  24
HETATM   24  O   UNL     1     -45.446  60.786 -54.965  1.00  0.00    -0.361 OA
HETATM   25  H   UNL     1     -46.320  60.360 -54.935  1.00  0.00     0.217 HD
ENDBRANCH  20  24
ENDBRANCH  12  14
ENDBRANCH   5   7
BRANCH   1  26
HETATM   26  C   UNL     1     -43.791  56.125 -55.586  1.00  0.00     0.257 C 
HETATM   27  N   UNL     1     -43.544  56.632 -56.845  1.00  0.00    -0.301 N 
HETATM   28  H   UNL     1     -42.663  56.483 -57.312  1.00  0.00     0.171 HD
HETATM   29  O   UNL     1     -44.873  56.112 -55.008  1.00  0.00    -0.267 OA
BRANCH  27  30
HETATM   30  C   UNL     1     -44.499  57.327 -57.535  1.00  0.00     0.174 A 
HETATM   31  N   UNL     1     -45.120  58.435 -57.211  1.00  0.00    -0.228 NA
HETATM   32  C   UNL     1     -45.976  58.796 -58.216  1.00  0.00     0.050 A 
HETATM   33  C   UNL     1     -46.816  60.021 -58.102  1.00  0.00     0.062 C 
HETATM   34  C   UNL     1     -45.962  57.974 -59.324  1.00  0.00     0.013 A 
HETATM   35  C   UNL     1     -47.934  60.020 -59.162  1.00  0.00     0.039 C 
HETATM   36  C   UNL     1     -47.383  59.608 -60.545  1.00  0.00     0.192 C 
HETATM   37  C   UNL     1     -46.793  58.167 -60.546  1.00  0.00     0.081 C 
HETATM   38  S   UNL     1     -44.888  56.675 -59.073  1.00  0.00    -0.055 SA
BRANCH  36  39
HETATM   39  N   UNL     1     -48.435  59.766 -61.651  1.00  0.00    -0.074 N 
HETATM   40  C   UNL     1     -48.724  58.531 -62.467  1.00  0.00     0.269 C 
HETATM   41  H   UNL     1     -48.049  60.456 -62.312  1.00  0.00     0.279 HD
HETATM   42  C   UNL     1     -49.718  60.388 -61.149  1.00  0.00     0.269 C 
ENDBRANCH  36  39
ENDBRANCH  27  30
ENDBRANCH   1  26
TORSDOF 6
ENDMDL
MODEL 9
REMARK VINA RESULT:      -7.1      2.971      9.944
REMARK  6 active torsions:
REMARK  status: ('A' for Active; 'I' for Inactive)
REMARK    1  A    between atoms: N_2  and  C_5 
REMARK    2  A    between atoms: C_10  and  N_11 
REMARK       I    between atoms: N_11  and  C_12 
REMARK    3  A    between atoms: C_12  and  C_14 
REMARK    4  A    between atoms: C_18  and  C_20 
REMARK       I    between atoms: N_24  and  C_25 
REMARK    5  A    between atoms: C_25  and  C_27 
REMARK    6  A    between atoms: C_32  and  O_33 
ROOT
HETATM    1  C   UNL     1     -42.995  56.950 -55.948  1.00  0.00     0.033 A 
HETATM    2  C   UNL     1     -42.353  55.892 -56.603  1.00  0.00     0.017 A 
HETATM    3  C   UNL     1     -41.211  55.311 -56.053  1.00  0.00     0.002 A 
HETATM    4  C   UNL     1     -40.701  55.783 -54.844  1.00  0.00     0.009 A 
HETATM    5  C   UNL     1     -41.328  56.842 -54.167  1.00  0.00    -0.034 A 
HETATM    6  C   UNL     1     -42.492  57.405 -54.721  1.00  0.00     0.026 A 
ENDROOT
BRANCH   5   7
HETATM    7  C   UNL     1     -40.770  57.389 -52.870  1.00  0.00     0.120 C 
HETATM    8  C   UNL     1     -40.566  58.912 -52.939  1.00  0.00     0.032 C 
HETATM    9  C   UNL     1     -40.697  59.346 -51.485  1.00  0.00     0.022 C 
HETATM   10  C   UNL     1     -41.799  58.439 -50.961  1.00  0.00     0.127 C 
HETATM   11  N   UNL     1     -41.626  57.195 -51.693  1.00  0.00    -0.339 N 
HETATM   12  C   UNL     1     -42.118  56.015 -51.165  1.00  0.00     0.254 C 
HETATM   13  O   UNL     1     -42.789  55.952 -50.139  1.00  0.00    -0.267 OA
BRANCH  12  14
HETATM   14  C   UNL     1     -41.853  54.760 -51.891  1.00  0.00     0.033 A 
HETATM   15  C   UNL     1     -42.768  54.342 -52.856  1.00  0.00     0.018 A 
HETATM   16  C   UNL     1     -42.494  53.206 -53.615  1.00  0.00     0.013 A 
HETATM   17  C   UNL     1     -41.320  52.467 -53.398  1.00  0.00    -0.023 A 
HETATM   18  C   UNL     1     -41.025  51.335 -54.174  1.00  0.00     0.048 A 
HETATM   19  C   UNL     1     -40.421  52.867 -52.377  1.00  0.00    -0.025 A 
HETATM   20  C   UNL     1     -39.866  50.606 -53.929  1.00  0.00     0.066 A 
HETATM   21  C   UNL     1     -38.992  50.977 -52.916  1.00  0.00     0.037 A 
HETATM   22  C   UNL     1     -39.265  52.105 -52.143  1.00  0.00     0.015 A 
HETATM   23  C   UNL     1     -40.700  54.017 -51.624  1.00  0.00     0.029 A 
BRANCH  20  24
HETATM   24  O   UNL     1     -39.549  49.506 -54.671  1.00  0.00    -0.361 OA
HETATM   25  H   UNL     1     -39.386  48.764 -54.063  1.00  0.00     0.217 HD
ENDBRANCH  20  24
ENDBRANCH  12  14
ENDBRANCH   5   7
BRANCH   1  26
HETATM   26  C   UNL     1     -44.234  57.514 -56.568  1.00  0.00     0.257 C 
HETATM   27  N   UNL     1     -44.294  57.460 -57.944  1.00  0.00    -0.301 N 
HETATM   28  H   UNL     1     -43.614  56.947 -58.484  1.00  0.00     0.171 HD
HETATM   29  O   UNL     1     -45.093  57.968 -55.820  1.00  0.00    -0.267 OA
BRANCH  27  30
HETATM   30  C   UNL     1     -45.303  58.068 -58.640  1.00  0.00     0.174 A 
HETATM   31  N   UNL     1     -45.767  59.289 -58.537  1.00  0.00    -0.228 NA
HETATM   32  C   UNL     1     -46.763  59.484 -59.456  1.00  0.00     0.050 A 
HETATM   33  C   UNL     1     -47.472  60.791 -59.549  1.00  0.00     0.062 C 
HETATM   34  C   UNL     1     -47.015  58.412 -60.286  1.00  0.00     0.013 A 
HETATM   35  C   UNL     1     -48.762  60.657 -60.380  1.00  0.00     0.039 C 
HETATM   36  C   UNL     1     -48.507  59.842 -61.668  1.00  0.00     0.192 C 
HETATM   37  C   UNL     1     -48.039  58.387 -61.368  1.00  0.00     0.081 C 
HETATM   38  S   UNL     1     -46.015  57.098 -59.862  1.00  0.00    -0.055 SA
BRANCH  36  39
HETATM   39  N   UNL     1     -49.728  59.841 -62.596  1.00  0.00    -0.074 N 
HETATM   40  C   UNL     1     -49.982  58.560 -63.351  1.00  0.00     0.269 C 
HETATM   41  H   UNL     1     -49.539  60.557 -63.313  1.00  0.00     0.279 HD
HETATM   42  C   UNL     1     -50.986  60.311 -61.904  1.00  0.00     0.269 C 
ENDBRANCH  36  39
ENDBRANCH  27  30
ENDBRANCH   1  26
TORSDOF 6
ENDMDL
MODEL 10
REMARK VINA RESULT:      -7.0      3.158      9.516
REMARK  6 active torsions:
REMARK  status: ('A' for Active; 'I' for Inactive)
REMARK    1  A    between atoms: N_2  and  C_5 
REMARK    2  A    between atoms: C_10  and  N_11 
REMARK       I    between atoms: N_11  and  C_12 
REMARK    3  A    between atoms: C_12  and  C_14 
REMARK    4  A    between atoms: C_18  and  C_20 
REMARK       I    between atoms: N_24  and  C_25 
REMARK    5  A    between atoms: C_25  and  C_27 
REMARK    6  A    between atoms: C_32  and  O_33 
ROOT
HETATM    1  C   UNL     1     -42.442  57.572 -55.530  1.00  0.00     0.033 A 
HETATM    2  C   UNL     1     -41.228  56.876 -55.574  1.00  0.00     0.017 A 
HETATM    3  C   UNL     1     -40.487  56.674 -54.410  1.00  0.00     0.002 A 
HETATM    4  C   UNL     1     -40.954  57.166 -53.192  1.00  0.00     0.009 A 
HETATM    5  C   UNL     1     -42.169  57.866 -53.120  1.00  0.00    -0.034 A 
HETATM    6  C   UNL     1     -42.918  58.045 -54.298  1.00  0.00     0.026 A 
ENDROOT
BRANCH   5   7
HETATM    7  C   UNL     1     -42.675  58.437 -51.812  1.00  0.00     0.120 C 
HETATM    8  C   UNL     1     -43.086  59.912 -51.958  1.00  0.00     0.032 C 
HETATM    9  C   UNL     1     -44.143  60.087 -50.877  1.00  0.00     0.022 C 
HETATM   10  C   UNL     1     -44.888  58.762 -50.917  1.00  0.00     0.127 C 
HETATM   11  N   UNL     1     -43.873  57.783 -51.270  1.00  0.00    -0.339 N 
HETATM   12  C   UNL     1     -44.061  56.452 -50.942  1.00  0.00     0.254 C 
HETATM   13  O   UNL     1     -45.091  56.010 -50.443  1.00  0.00    -0.267 OA
BRANCH  12  14
HETATM   14  C   UNL     1     -42.975  55.500 -51.239  1.00  0.00     0.033 A 
HETATM   15  C   UNL     1     -42.001  55.277 -50.267  1.00  0.00     0.018 A 
HETATM   16  C   UNL     1     -41.015  54.318 -50.491  1.00  0.00     0.013 A 
HETATM   17  C   UNL     1     -40.981  53.596 -51.694  1.00  0.00    -0.023 A 
HETATM   18  C   UNL     1     -40.006  52.612 -51.919  1.00  0.00     0.048 A 
HETATM   19  C   UNL     1     -41.943  53.867 -52.701  1.00  0.00    -0.025 A 
HETATM   20  C   UNL     1     -39.978  51.922 -53.126  1.00  0.00     0.066 A 
HETATM   21  C   UNL     1     -40.901  52.197 -54.126  1.00  0.00     0.037 A 
HETATM   22  C   UNL     1     -41.883  53.164 -53.915  1.00  0.00     0.015 A 
HETATM   23  C   UNL     1     -42.937  54.828 -52.463  1.00  0.00     0.029 A 
BRANCH  20  24
HETATM   24  O   UNL     1     -39.047  50.954 -53.370  1.00  0.00    -0.361 OA
HETATM   25  H   UNL     1     -38.743  50.601 -52.515  1.00  0.00     0.217 HD
ENDBRANCH  20  24
ENDBRANCH  12  14
ENDBRANCH   5   7
BRANCH   1  26
HETATM   26  C   UNL     1     -43.209  57.732 -56.803  1.00  0.00     0.257 C 
HETATM   27  N   UNL     1     -43.652  59.007 -57.081  1.00  0.00    -0.301 N 
HETATM   28  H   UNL     1     -43.356  59.801 -56.534  1.00  0.00     0.171 HD
HETATM   29  O   UNL     1     -43.380  56.735 -57.498  1.00  0.00    -0.267 OA
BRANCH  27  30
HETATM   30  C   UNL     1     -44.485  59.261 -58.136  1.00  0.00     0.174 A 
HETATM   31  N   UNL     1     -44.219  59.824 -59.289  1.00  0.00    -0.228 NA
HETATM   32  C   UNL     1     -45.348  59.847 -60.064  1.00  0.00     0.050 A 
HETATM   33  C   UNL     1     -45.326  60.441 -61.429  1.00  0.00     0.062 C 
HETATM   34  C   UNL     1     -46.459  59.254 -59.501  1.00  0.00     0.013 A 
HETATM   35  C   UNL     1     -46.757  60.677 -61.948  1.00  0.00     0.039 C 
HETATM   36  C   UNL     1     -47.654  59.449 -61.672  1.00  0.00     0.192 C 
HETATM   37  C   UNL     1     -47.795  59.144 -60.151  1.00  0.00     0.081 C 
HETATM   38  S   UNL     1     -46.094  58.706 -57.929  1.00  0.00    -0.055 SA
BRANCH  36  39
HETATM   39  N   UNL     1     -49.033  59.587 -62.330  1.00  0.00    -0.074 N 
HETATM   40  C   UNL     1     -49.084  60.422 -63.585  1.00  0.00     0.269 C 
HETATM   41  H   UNL     1     -49.626  60.075 -61.644  1.00  0.00     0.279 HD
HETATM   42  C   UNL     1     -49.710  58.254 -62.547  1.00  0.00     0.269 C 
ENDBRANCH  36  39
ENDBRANCH  27  30
ENDBRANCH   1  26
TORSDOF 6
ENDMDL
