MODEL 1
REMARK VINA RESULT:      -8.4      0.000      0.000
REMARK  8 active torsions:
REMARK  status: ('A' for Active; 'I' for Inactive)
REMARK    1  A    between atoms: C_2  and  C_3 
REMARK    2  A    between atoms: C_3  and  C_4 
REMARK    3  A    between atoms: C_7  and  N_8 
REMARK       I    between atoms: N_8  and  C_9 
REMARK    4  A    between atoms: C_9  and  C_10 
REMARK    5  A    between atoms: C_13  and  N_14 
REMARK       I    between atoms: N_14  and  C_15 
REMARK    6  A    between atoms: C_15  and  C_16 
REMARK    7  A    between atoms: C_16  and  C_17 
REMARK    8  A    between atoms: C_19  and  N_20 
ROOT
HETATM    1  C   UNL     1     -44.204  58.704 -52.505  1.00  0.00     0.032 A 
HETATM    2  C   UNL     1     -45.342  59.319 -53.038  1.00  0.00     0.019 A 
HETATM    3  C   UNL     1     -45.780  60.553 -52.536  1.00  0.00     0.030 A 
HETATM    4  C   UNL     1     -45.099  61.182 -51.492  1.00  0.00     0.034 A 
HETATM    5  C   UNL     1     -43.989  60.541 -50.930  1.00  0.00     0.030 A 
HETATM    6  C   UNL     1     -43.547  59.313 -51.430  1.00  0.00     0.019 A 
ENDROOT
BRANCH   4   7
HETATM    7  N   UNL     1     -45.453  62.439 -50.958  1.00  0.00    -0.327 N 
HETATM    8  C   UNL     1     -46.251  62.688 -49.856  1.00  0.00     0.223 C 
HETATM    9  O   UNL     1     -46.810  61.848 -49.158  1.00  0.00    -0.273 OA
HETATM   10  H   UNL     1     -45.085  63.242 -51.452  1.00  0.00     0.169 HD
BRANCH   8  11
HETATM   11  C   UNL     1     -46.438  64.168 -49.589  1.00  0.00     0.128 C 
BRANCH  11  12
HETATM   12  C   UNL     1     -47.633  64.698 -50.368  1.00  0.00     0.158 C 
HETATM   13  S   UNL     1     -47.647  64.074 -52.074  1.00  0.00    -0.077 SA
HETATM   14  C   UNL     1     -49.350  63.673 -51.935  1.00  0.00     0.168 C 
HETATM   15  N   UNL     1     -49.851  63.786 -50.748  1.00  0.00    -0.189 NA
HETATM   16  C   UNL     1     -48.945  64.200 -49.799  1.00  0.00     0.260 C 
HETATM   17  O   UNL     1     -49.181  64.191 -48.596  1.00  0.00    -0.270 OA
BRANCH  14  18
HETATM   18  N   UNL     1     -50.061  63.300 -53.055  1.00  0.00    -0.360 N 
HETATM   19  C   UNL     1     -50.416  61.915 -53.380  1.00  0.00     0.125 C 
HETATM   20  C   UNL     1     -51.835  61.630 -52.885  1.00  0.00     0.020 C 
HETATM   21  C   UNL     1     -52.834  62.630 -53.471  1.00  0.00     0.003 C 
HETATM   22  C   UNL     1     -52.380  64.071 -53.232  1.00  0.00     0.020 C 
HETATM   23  C   UNL     1     -50.943  64.278 -53.709  1.00  0.00     0.125 C 
ENDBRANCH  14  18
ENDBRANCH  11  12
ENDBRANCH   8  11
ENDBRANCH   4   7
BRANCH   1  24
HETATM   24  C   UNL     1     -43.633  57.429 -53.040  1.00  0.00     0.256 C 
HETATM   25  N   UNL     1     -42.311  57.181 -52.712  1.00  0.00    -0.323 N 
HETATM   26  H   UNL     1     -41.817  57.886 -52.186  1.00  0.00     0.169 HD
HETATM   27  O   UNL     1     -44.374  56.692 -53.681  1.00  0.00    -0.267 OA
BRANCH  25  28
HETATM   28  C   UNL     1     -41.585  55.990 -52.930  1.00  0.00     0.035 A 
HETATM   29  C   UNL     1     -40.997  55.644 -54.145  1.00  0.00     0.030 A 
HETATM   30  C   UNL     1     -40.364  54.403 -54.305  1.00  0.00     0.010 A 
HETATM   31  C   UNL     1     -40.281  53.493 -53.244  1.00  0.00    -0.054 A 
HETATM   32  C   UNL     1     -40.857  53.855 -52.018  1.00  0.00     0.010 A 
HETATM   33  C   UNL     1     -41.504  55.085 -51.866  1.00  0.00     0.030 A 
BRANCH  31  34
HETATM   34  C   UNL     1     -39.660  52.112 -53.393  1.00  0.00     0.014 C 
HETATM   35  C   UNL     1     -39.586  51.447 -52.012  1.00  0.00     0.015 C 
BRANCH  34  36
HETATM   36  C   UNL     1     -40.360  51.166 -54.391  1.00  0.00     0.004 C 
HETATM   37  C   UNL     1     -39.780  49.757 -54.395  1.00  0.00     0.006 C 
ENDBRANCH  34  36
ENDBRANCH  31  34
ENDBRANCH  25  28
ENDBRANCH   1  24
TORSDOF 8
ENDMDL
MODEL 2
REMARK VINA RESULT:      -8.3      2.511      4.364
REMARK  8 active torsions:
REMARK  status: ('A' for Active; 'I' for Inactive)
REMARK    1  A    between atoms: C_2  and  C_3 
REMARK    2  A    between atoms: C_3  and  C_4 
REMARK    3  A    between atoms: C_7  and  N_8 
REMARK       I    between atoms: N_8  and  C_9 
REMARK    4  A    between atoms: C_9  and  C_10 
REMARK    5  A    between atoms: C_13  and  N_14 
REMARK       I    between atoms: N_14  and  C_15 
REMARK    6  A    between atoms: C_15  and  C_16 
REMARK    7  A    between atoms: C_16  and  C_17 
REMARK    8  A    between atoms: C_19  and  N_20 
ROOT
HETATM    1  C   UNL     1     -44.708  58.342 -51.832  1.00  0.00     0.032 A 
HETATM    2  C   UNL     1     -44.594  59.105 -52.999  1.00  0.00     0.019 A 
HETATM    3  C   UNL     1     -45.075  60.422 -53.033  1.00  0.00     0.030 A 
HETATM    4  C   UNL     1     -45.686  60.989 -51.913  1.00  0.00     0.034 A 
HETATM    5  C   UNL     1     -45.841  60.207 -50.763  1.00  0.00     0.030 A 
HETATM    6  C   UNL     1     -45.358  58.895 -50.723  1.00  0.00     0.019 A 
ENDROOT
BRANCH   4   7
HETATM    7  N   UNL     1     -46.162  62.316 -51.856  1.00  0.00    -0.327 N 
HETATM    8  C   UNL     1     -47.442  62.761 -52.130  1.00  0.00     0.223 C 
HETATM    9  O   UNL     1     -48.389  62.072 -52.492  1.00  0.00    -0.273 OA
HETATM   10  H   UNL     1     -45.476  63.014 -51.595  1.00  0.00     0.169 HD
BRANCH   8  11
HETATM   11  C   UNL     1     -47.584  64.264 -51.990  1.00  0.00     0.128 C 
BRANCH  11  12
HETATM   12  C   UNL     1     -47.329  64.687 -50.551  1.00  0.00     0.158 C 
HETATM   13  S   UNL     1     -48.262  63.660 -49.378  1.00  0.00    -0.077 SA
HETATM   14  C   UNL     1     -46.831  63.460 -48.382  1.00  0.00     0.168 C 
HETATM   15  N   UNL     1     -45.732  63.911 -48.895  1.00  0.00    -0.189 NA
HETATM   16  C   UNL     1     -45.888  64.466 -50.144  1.00  0.00     0.260 C 
HETATM   17  O   UNL     1     -44.945  64.779 -50.862  1.00  0.00    -0.270 OA
BRANCH  14  18
HETATM   18  N   UNL     1     -46.937  62.884 -47.135  1.00  0.00    -0.360 N 
HETATM   19  C   UNL     1     -46.540  61.506 -46.830  1.00  0.00     0.125 C 
HETATM   20  C   UNL     1     -45.120  61.506 -46.259  1.00  0.00     0.020 C 
HETATM   21  C   UNL     1     -45.020  62.417 -45.033  1.00  0.00     0.003 C 
HETATM   22  C   UNL     1     -45.559  63.816 -45.337  1.00  0.00     0.020 C 
HETATM   23  C   UNL     1     -46.960  63.743 -45.943  1.00  0.00     0.125 C 
ENDBRANCH  14  18
ENDBRANCH  11  12
ENDBRANCH   8  11
ENDBRANCH   4   7
BRANCH   1  24
HETATM   24  C   UNL     1     -44.148  56.962 -51.695  1.00  0.00     0.256 C 
HETATM   25  N   UNL     1     -43.255  56.577 -52.680  1.00  0.00    -0.323 N 
HETATM   26  H   UNL     1     -43.083  57.222 -53.436  1.00  0.00     0.169 HD
HETATM   27  O   UNL     1     -44.483  56.302 -50.717  1.00  0.00    -0.267 OA
BRANCH  25  28
HETATM   28  C   UNL     1     -42.454  55.415 -52.700  1.00  0.00     0.035 A 
HETATM   29  C   UNL     1     -41.504  55.103 -51.730  1.00  0.00     0.030 A 
HETATM   30  C   UNL     1     -40.688  53.970 -51.866  1.00  0.00     0.010 A 
HETATM   31  C   UNL     1     -40.825  53.110 -52.963  1.00  0.00    -0.054 A 
HETATM   32  C   UNL     1     -41.796  53.419 -53.926  1.00  0.00     0.010 A 
HETATM   33  C   UNL     1     -42.596  54.559 -53.798  1.00  0.00     0.030 A 
BRANCH  31  34
HETATM   34  C   UNL     1     -39.919  51.908 -53.182  1.00  0.00     0.014 C 
HETATM   35  C   UNL     1     -39.522  51.326 -51.818  1.00  0.00     0.015 C 
BRANCH  34  36
HETATM   36  C   UNL     1     -40.491  50.791 -54.079  1.00  0.00     0.004 C 
HETATM   37  C   UNL     1     -39.426  49.851 -54.627  1.00  0.00     0.006 C 
ENDBRANCH  34  36
ENDBRANCH  31  34
ENDBRANCH  25  28
ENDBRANCH   1  24
TORSDOF 8
ENDMDL
MODEL 3
REMARK VINA RESULT:      -8.2      3.732      4.674
REMARK  8 active torsions:
REMARK  status: ('A' for Active; 'I' for Inactive)
REMARK    1  A    between atoms: C_2  and  C_3 
REMARK    2  A    between atoms: C_3  and  C_4 
REMARK    3  A    between atoms: C_7  and  N_8 
REMARK       I    between atoms: N_8  and  C_9 
REMARK    4  A    between atoms: C_9  and  C_10 
REMARK    5  A    between atoms: C_13  and  N_14 
REMARK       I    between atoms: N_14  and  C_15 
REMARK    6  A    between atoms: C_15  and  C_16 
REMARK    7  A    between atoms: C_16  and  C_17 
REMARK    8  A    between atoms: C_19  and  N_20 
ROOT
HETATM    1  C   UNL     1     -43.112  57.936 -51.942  1.00  0.00     0.032 A 
HETATM    2  C   UNL     1     -44.321  58.446 -51.459  1.00  0.00     0.019 A 
HETATM    3  C   UNL     1     -44.533  59.831 -51.404  1.00  0.00     0.030 A 
HETATM    4  C   UNL     1     -43.541  60.723 -51.817  1.00  0.00     0.034 A 
HETATM    5  C   UNL     1     -42.315  60.210 -52.255  1.00  0.00     0.030 A 
HETATM    6  C   UNL     1     -42.101  58.829 -52.316  1.00  0.00     0.019 A 
ENDROOT
BRANCH   4   7
HETATM    7  N   UNL     1     -43.690  62.126 -51.827  1.00  0.00    -0.327 N 
HETATM    8  C   UNL     1     -44.601  62.868 -52.557  1.00  0.00     0.223 C 
HETATM    9  O   UNL     1     -45.433  62.428 -53.343  1.00  0.00    -0.273 OA
HETATM   10  H   UNL     1     -43.043  62.637 -51.239  1.00  0.00     0.169 HD
BRANCH   8  11
HETATM   11  C   UNL     1     -44.452  64.360 -52.338  1.00  0.00     0.128 C 
BRANCH  11  12
HETATM   12  C   UNL     1     -44.729  64.711 -50.883  1.00  0.00     0.158 C 
HETATM   13  S   UNL     1     -46.161  63.798 -50.238  1.00  0.00    -0.077 SA
HETATM   14  C   UNL     1     -45.266  63.377 -48.788  1.00  0.00     0.168 C 
HETATM   15  N   UNL     1     -44.009  63.681 -48.806  1.00  0.00    -0.189 NA
HETATM   16  C   UNL     1     -43.598  64.280 -49.973  1.00  0.00     0.260 C 
HETATM   17  O   UNL     1     -42.420  64.475 -50.249  1.00  0.00    -0.270 OA
BRANCH  14  18
HETATM   18  N   UNL     1     -45.919  62.794 -47.724  1.00  0.00    -0.360 N 
HETATM   19  C   UNL     1     -45.917  61.353 -47.448  1.00  0.00     0.125 C 
HETATM   20  C   UNL     1     -44.825  61.038 -46.425  1.00  0.00     0.020 C 
HETATM   21  C   UNL     1     -45.008  61.865 -45.150  1.00  0.00     0.003 C 
HETATM   22  C   UNL     1     -45.136  63.355 -45.471  1.00  0.00     0.020 C 
HETATM   23  C   UNL     1     -46.212  63.597 -46.528  1.00  0.00     0.125 C 
ENDBRANCH  14  18
ENDBRANCH  11  12
ENDBRANCH   8  11
ENDBRANCH   4   7
BRANCH   1  24
HETATM   24  C   UNL     1     -42.843  56.473 -52.104  1.00  0.00     0.256 C 
HETATM   25  N   UNL     1     -41.550  56.137 -52.466  1.00  0.00    -0.323 N 
HETATM   26  H   UNL     1     -40.901  56.890 -52.641  1.00  0.00     0.169 HD
HETATM   27  O   UNL     1     -43.758  55.692 -51.868  1.00  0.00    -0.267 OA
BRANCH  25  28
HETATM   28  C   UNL     1     -40.983  54.845 -52.514  1.00  0.00     0.035 A 
HETATM   29  C   UNL     1     -40.825  54.104 -53.683  1.00  0.00     0.030 A 
HETATM   30  C   UNL     1     -40.329  52.793 -53.636  1.00  0.00     0.010 A 
HETATM   31  C   UNL     1     -39.957  52.205 -52.421  1.00  0.00    -0.054 A 
HETATM   32  C   UNL     1     -40.100  52.963 -51.250  1.00  0.00     0.010 A 
HETATM   33  C   UNL     1     -40.611  54.264 -51.297  1.00  0.00     0.030 A 
BRANCH  31  34
HETATM   34  C   UNL     1     -39.476  50.765 -52.318  1.00  0.00     0.014 C 
HETATM   35  C   UNL     1     -39.703  50.265 -50.885  1.00  0.00     0.015 C 
BRANCH  34  36
HETATM   36  C   UNL     1     -40.103  49.775 -53.322  1.00  0.00     0.004 C 
HETATM   37  C   UNL     1     -39.387  49.745 -54.667  1.00  0.00     0.006 C 
ENDBRANCH  34  36
ENDBRANCH  31  34
ENDBRANCH  25  28
ENDBRANCH   1  24
TORSDOF 8
ENDMDL
MODEL 4
REMARK VINA RESULT:      -8.0     21.121     24.199
REMARK  8 active torsions:
REMARK  status: ('A' for Active; 'I' for Inactive)
REMARK    1  A    between atoms: C_2  and  C_3 
REMARK    2  A    between atoms: C_3  and  C_4 
REMARK    3  A    between atoms: C_7  and  N_8 
REMARK       I    between atoms: N_8  and  C_9 
REMARK    4  A    between atoms: C_9  and  C_10 
REMARK    5  A    between atoms: C_13  and  N_14 
REMARK       I    between atoms: N_14  and  C_15 
REMARK    6  A    between atoms: C_15  and  C_16 
REMARK    7  A    between atoms: C_16  and  C_17 
REMARK    8  A    between atoms: C_19  and  N_20 
ROOT
HETATM    1  C   UNL     1     -32.862  39.776 -49.732  1.00  0.00     0.032 A 
HETATM    2  C   UNL     1     -34.236  39.789 -49.991  1.00  0.00     0.019 A 
HETATM    3  C   UNL     1     -34.718  40.224 -51.235  1.00  0.00     0.030 A 
HETATM    4  C   UNL     1     -33.840  40.661 -52.228  1.00  0.00     0.034 A 
HETATM    5  C   UNL     1     -32.469  40.692 -51.949  1.00  0.00     0.030 A 
HETATM    6  C   UNL     1     -31.984  40.255 -50.712  1.00  0.00     0.019 A 
ENDROOT
BRANCH   4   7
HETATM    7  N   UNL     1     -34.242  41.077 -53.514  1.00  0.00    -0.327 N 
HETATM    8  C   UNL     1     -35.207  42.017 -53.830  1.00  0.00     0.223 C 
HETATM    9  O   UNL     1     -35.900  42.641 -53.034  1.00  0.00    -0.273 OA
HETATM   10  H   UNL     1     -33.772  40.622 -54.287  1.00  0.00     0.169 HD
BRANCH   8  11
HETATM   11  C   UNL     1     -35.393  42.189 -55.324  1.00  0.00     0.128 C 
BRANCH  11  12
HETATM   12  C   UNL     1     -36.019  40.940 -55.926  1.00  0.00     0.158 C 
HETATM   13  S   UNL     1     -37.456  41.346 -56.961  1.00  0.00    -0.077 SA
HETATM   14  C   UNL     1     -36.865  40.292 -58.233  1.00  0.00     0.168 C 
HETATM   15  N   UNL     1     -35.673  39.822 -58.053  1.00  0.00    -0.189 NA
HETATM   16  C   UNL     1     -35.078  40.244 -56.888  1.00  0.00     0.260 C 
HETATM   17  O   UNL     1     -33.894  40.056 -56.631  1.00  0.00    -0.270 OA
BRANCH  14  18
HETATM   18  N   UNL     1     -37.672  39.995 -59.309  1.00  0.00    -0.360 N 
HETATM   19  C   UNL     1     -37.290  40.213 -60.708  1.00  0.00     0.125 C 
HETATM   20  C   UNL     1     -36.734  38.911 -61.287  1.00  0.00     0.020 C 
HETATM   21  C   UNL     1     -37.742  37.768 -61.139  1.00  0.00     0.003 C 
HETATM   22  C   UNL     1     -38.226  37.640 -59.694  1.00  0.00     0.020 C 
HETATM   23  C   UNL     1     -38.727  38.982 -59.163  1.00  0.00     0.125 C 
ENDBRANCH  14  18
ENDBRANCH  11  12
ENDBRANCH   8  11
ENDBRANCH   4   7
BRANCH   1  24
HETATM   24  C   UNL     1     -32.270  39.253 -48.461  1.00  0.00     0.256 C 
HETATM   25  N   UNL     1     -31.103  39.872 -48.045  1.00  0.00    -0.323 N 
HETATM   26  H   UNL     1     -30.712  40.586 -48.641  1.00  0.00     0.169 HD
HETATM   27  O   UNL     1     -32.872  38.363 -47.872  1.00  0.00    -0.267 OA
BRANCH  25  28
HETATM   28  C   UNL     1     -30.439  39.702 -46.811  1.00  0.00     0.035 A 
HETATM   29  C   UNL     1     -30.008  38.472 -46.318  1.00  0.00     0.030 A 
HETATM   30  C   UNL     1     -29.430  38.376 -45.044  1.00  0.00     0.010 A 
HETATM   31  C   UNL     1     -29.247  39.513 -44.246  1.00  0.00    -0.054 A 
HETATM   32  C   UNL     1     -29.666  40.750 -44.756  1.00  0.00     0.010 A 
HETATM   33  C   UNL     1     -30.258  40.842 -46.020  1.00  0.00     0.030 A 
BRANCH  31  34
HETATM   34  C   UNL     1     -28.684  39.444 -42.835  1.00  0.00     0.014 C 
HETATM   35  C   UNL     1     -29.031  38.079 -42.225  1.00  0.00     0.015 C 
BRANCH  34  36
HETATM   36  C   UNL     1     -27.169  39.706 -42.702  1.00  0.00     0.004 C 
HETATM   37  C   UNL     1     -26.842  40.985 -41.943  1.00  0.00     0.006 C 
ENDBRANCH  34  36
ENDBRANCH  31  34
ENDBRANCH  25  28
ENDBRANCH   1  24
TORSDOF 8
ENDMDL
MODEL 5
REMARK VINA RESULT:      -8.0      4.229     11.197
REMARK  8 active torsions:
REMARK  status: ('A' for Active; 'I' for Inactive)
REMARK    1  A    between atoms: C_2  and  C_3 
REMARK    2  A    between atoms: C_3  and  C_4 
REMARK    3  A    between atoms: C_7  and  N_8 
REMARK       I    between atoms: N_8  and  C_9 
REMARK    4  A    between atoms: C_9  and  C_10 
REMARK    5  A    between atoms: C_13  and  N_14 
REMARK       I    between atoms: N_14  and  C_15 
REMARK    6  A    between atoms: C_15  and  C_16 
REMARK    7  A    between atoms: C_16  and  C_17 
REMARK    8  A    between atoms: C_19  and  N_20 
ROOT
HETATM    1  C   UNL     1     -45.152  60.116 -50.870  1.00  0.00     0.032 A 
HETATM    2  C   UNL     1     -44.628  58.832 -50.684  1.00  0.00     0.019 A 
HETATM    3  C   UNL     1     -44.137  58.104 -51.777  1.00  0.00     0.030 A 
HETATM    4  C   UNL     1     -44.173  58.638 -53.067  1.00  0.00     0.034 A 
HETATM    5  C   UNL     1     -44.742  59.902 -53.256  1.00  0.00     0.030 A 
HETATM    6  C   UNL     1     -45.228  60.635 -52.168  1.00  0.00     0.019 A 
ENDROOT
BRANCH   4   7
HETATM    7  N   UNL     1     -43.667  57.985 -54.210  1.00  0.00    -0.327 N 
HETATM    8  C   UNL     1     -42.498  58.271 -54.892  1.00  0.00     0.223 C 
HETATM    9  O   UNL     1     -41.702  59.164 -54.626  1.00  0.00    -0.273 OA
HETATM   10  H   UNL     1     -44.239  57.231 -54.571  1.00  0.00     0.169 HD
BRANCH   8  11
HETATM   11  C   UNL     1     -42.287  57.376 -56.097  1.00  0.00     0.128 C 
BRANCH  11  12
HETATM   12  C   UNL     1     -41.710  56.035 -55.665  1.00  0.00     0.158 C 
HETATM   13  S   UNL     1     -41.417  55.982 -53.873  1.00  0.00    -0.077 SA
HETATM   14  C   UNL     1     -42.184  54.406 -53.773  1.00  0.00     0.168 C 
HETATM   15  N   UNL     1     -42.767  54.005 -54.856  1.00  0.00    -0.189 NA
HETATM   16  C   UNL     1     -42.685  54.900 -55.896  1.00  0.00     0.260 C 
HETATM   17  O   UNL     1     -43.324  54.782 -56.936  1.00  0.00    -0.270 OA
BRANCH  14  18
HETATM   18  N   UNL     1     -42.107  53.678 -52.606  1.00  0.00    -0.360 N 
HETATM   19  C   UNL     1     -40.860  53.138 -52.055  1.00  0.00     0.125 C 
HETATM   20  C   UNL     1     -40.310  54.108 -51.007  1.00  0.00     0.020 C 
HETATM   21  C   UNL     1     -41.347  54.384 -49.915  1.00  0.00     0.003 C 
HETATM   22  C   UNL     1     -42.682  54.824 -50.518  1.00  0.00     0.020 C 
HETATM   23  C   UNL     1     -43.153  53.837 -51.586  1.00  0.00     0.125 C 
ENDBRANCH  14  18
ENDBRANCH  11  12
ENDBRANCH   8  11
ENDBRANCH   4   7
BRANCH   1  24
HETATM   24  C   UNL     1     -45.620  60.983 -49.745  1.00  0.00     0.256 C 
HETATM   25  N   UNL     1     -44.829  60.970 -48.609  1.00  0.00    -0.323 N 
HETATM   26  H   UNL     1     -44.033  60.350 -48.598  1.00  0.00     0.169 HD
HETATM   27  O   UNL     1     -46.626  61.661 -49.923  1.00  0.00    -0.267 OA
BRANCH  25  28
HETATM   28  C   UNL     1     -44.936  61.814 -47.482  1.00  0.00     0.035 A 
HETATM   29  C   UNL     1     -44.975  63.205 -47.549  1.00  0.00     0.030 A 
HETATM   30  C   UNL     1     -44.998  63.976 -46.378  1.00  0.00     0.010 A 
HETATM   31  C   UNL     1     -45.009  63.371 -45.115  1.00  0.00    -0.054 A 
HETATM   32  C   UNL     1     -44.989  61.970 -45.055  1.00  0.00     0.010 A 
HETATM   33  C   UNL     1     -44.949  61.203 -46.224  1.00  0.00     0.030 A 
BRANCH  31  34
HETATM   34  C   UNL     1     -44.968  64.169 -43.821  1.00  0.00     0.014 C 
HETATM   35  C   UNL     1     -46.385  64.659 -43.491  1.00  0.00     0.015 C 
BRANCH  34  36
HETATM   36  C   UNL     1     -44.372  63.439 -42.600  1.00  0.00     0.004 C 
HETATM   37  C   UNL     1     -42.884  63.701 -42.407  1.00  0.00     0.006 C 
ENDBRANCH  34  36
ENDBRANCH  31  34
ENDBRANCH  25  28
ENDBRANCH   1  24
TORSDOF 8
ENDMDL
MODEL 6
REMARK VINA RESULT:      -7.9      4.920     10.983
REMARK  8 active torsions:
REMARK  status: ('A' for Active; 'I' for Inactive)
REMARK    1  A    between atoms: C_2  and  C_3 
REMARK    2  A    between atoms: C_3  and  C_4 
REMARK    3  A    between atoms: C_7  and  N_8 
REMARK       I    between atoms: N_8  and  C_9 
REMARK    4  A    between atoms: C_9  and  C_10 
REMARK    5  A    between atoms: C_13  and  N_14 
REMARK       I    between atoms: N_14  and  C_15 
REMARK    6  A    between atoms: C_15  and  C_16 
REMARK    7  A    between atoms: C_16  and  C_17 
REMARK    8  A    between atoms: C_19  and  N_20 
ROOT
HETATM    1  C   UNL     1     -44.985  60.244 -50.047  1.00  0.00     0.032 A 
HETATM    2  C   UNL     1     -45.580  59.030 -50.405  1.00  0.00     0.019 A 
HETATM    3  C   UNL     1     -45.017  58.237 -51.416  1.00  0.00     0.030 A 
HETATM    4  C   UNL     1     -43.866  58.649 -52.089  1.00  0.00     0.034 A 
HETATM    5  C   UNL     1     -43.301  59.887 -51.762  1.00  0.00     0.030 A 
HETATM    6  C   UNL     1     -43.856  60.678 -50.751  1.00  0.00     0.019 A 
ENDROOT
BRANCH   4   7
HETATM    7  N   UNL     1     -43.219  57.894 -53.090  1.00  0.00    -0.327 N 
HETATM    8  C   UNL     1     -41.981  57.282 -53.012  1.00  0.00     0.223 C 
HETATM    9  O   UNL     1     -41.216  57.309 -52.054  1.00  0.00    -0.273 OA
HETATM   10  H   UNL     1     -43.722  57.806 -53.964  1.00  0.00     0.169 HD
BRANCH   8  11
HETATM   11  C   UNL     1     -41.592  56.576 -54.296  1.00  0.00     0.128 C 
BRANCH  11  12
HETATM   12  C   UNL     1     -42.822  56.334 -55.158  1.00  0.00     0.158 C 
HETATM   13  S   UNL     1     -42.867  57.455 -56.587  1.00  0.00    -0.077 SA
HETATM   14  C   UNL     1     -43.248  56.115 -57.654  1.00  0.00     0.168 C 
HETATM   15  N   UNL     1     -43.178  54.941 -57.115  1.00  0.00    -0.189 NA
HETATM   16  C   UNL     1     -42.808  54.958 -55.791  1.00  0.00     0.260 C 
HETATM   17  O   UNL     1     -42.512  53.948 -55.163  1.00  0.00    -0.270 OA
BRANCH  14  18
HETATM   18  N   UNL     1     -43.622  56.360 -58.957  1.00  0.00    -0.360 N 
HETATM   19  C   UNL     1     -43.610  55.349 -60.019  1.00  0.00     0.125 C 
HETATM   20  C   UNL     1     -45.010  54.750 -60.160  1.00  0.00     0.020 C 
HETATM   21  C   UNL     1     -46.053  55.841 -60.419  1.00  0.00     0.003 C 
HETATM   22  C   UNL     1     -45.963  56.951 -59.371  1.00  0.00     0.020 C 
HETATM   23  C   UNL     1     -44.533  57.476 -59.249  1.00  0.00     0.125 C 
ENDBRANCH  14  18
ENDBRANCH  11  12
ENDBRANCH   8  11
ENDBRANCH   4   7
BRANCH   1  24
HETATM   24  C   UNL     1     -45.481  61.104 -48.927  1.00  0.00     0.256 C 
HETATM   25  N   UNL     1     -44.642  61.203 -47.831  1.00  0.00    -0.323 N 
HETATM   26  H   UNL     1     -43.791  60.660 -47.840  1.00  0.00     0.169 HD
HETATM   27  O   UNL     1     -46.552  61.680 -49.078  1.00  0.00    -0.267 OA
BRANCH  25  28
HETATM   28  C   UNL     1     -44.776  62.073 -46.727  1.00  0.00     0.035 A 
HETATM   29  C   UNL     1     -45.023  63.440 -46.835  1.00  0.00     0.030 A 
HETATM   30  C   UNL     1     -45.060  64.252 -45.692  1.00  0.00     0.010 A 
HETATM   31  C   UNL     1     -44.877  63.708 -44.414  1.00  0.00    -0.054 A 
HETATM   32  C   UNL     1     -44.649  62.328 -44.311  1.00  0.00     0.010 A 
HETATM   33  C   UNL     1     -44.595  61.523 -45.454  1.00  0.00     0.030 A 
BRANCH  31  34
HETATM   34  C   UNL     1     -44.846  64.561 -43.155  1.00  0.00     0.014 C 
HETATM   35  C   UNL     1     -46.173  64.390 -42.403  1.00  0.00     0.015 C 
BRANCH  34  36
HETATM   36  C   UNL     1     -43.665  64.299 -42.197  1.00  0.00     0.004 C 
HETATM   37  C   UNL     1     -44.089  63.676 -40.873  1.00  0.00     0.006 C 
ENDBRANCH  34  36
ENDBRANCH  31  34
ENDBRANCH  25  28
ENDBRANCH   1  24
TORSDOF 8
ENDMDL
MODEL 7
REMARK VINA RESULT:      -7.9      4.311     11.958
REMARK  8 active torsions:
REMARK  status: ('A' for Active; 'I' for Inactive)
REMARK    1  A    between atoms: C_2  and  C_3 
REMARK    2  A    between atoms: C_3  and  C_4 
REMARK    3  A    between atoms: C_7  and  N_8 
REMARK       I    between atoms: N_8  and  C_9 
REMARK    4  A    between atoms: C_9  and  C_10 
REMARK    5  A    between atoms: C_13  and  N_14 
REMARK       I    between atoms: N_14  and  C_15 
REMARK    6  A    between atoms: C_15  and  C_16 
REMARK    7  A    between atoms: C_16  and  C_17 
REMARK    8  A    between atoms: C_19  and  N_20 
ROOT
HETATM    1  C   UNL     1     -45.197  59.729 -51.292  1.00  0.00     0.032 A 
HETATM    2  C   UNL     1     -44.730  58.459 -50.937  1.00  0.00     0.019 A 
HETATM    3  C   UNL     1     -44.245  57.584 -51.920  1.00  0.00     0.030 A 
HETATM    4  C   UNL     1     -44.232  57.956 -53.265  1.00  0.00     0.034 A 
HETATM    5  C   UNL     1     -44.744  59.208 -53.622  1.00  0.00     0.030 A 
HETATM    6  C   UNL     1     -45.224  60.086 -52.645  1.00  0.00     0.019 A 
ENDROOT
BRANCH   4   7
HETATM    7  N   UNL     1     -43.727  57.149 -54.306  1.00  0.00    -0.327 N 
HETATM    8  C   UNL     1     -42.413  56.768 -54.513  1.00  0.00     0.223 C 
HETATM    9  O   UNL     1     -41.448  57.088 -53.828  1.00  0.00    -0.273 OA
HETATM   10  H   UNL     1     -44.412  56.827 -54.980  1.00  0.00     0.169 HD
BRANCH   8  11
HETATM   11  C   UNL     1     -42.237  55.917 -55.755  1.00  0.00     0.128 C 
BRANCH  11  12
HETATM   12  C   UNL     1     -41.957  54.472 -55.369  1.00  0.00     0.158 C 
HETATM   13  S   UNL     1     -40.205  54.219 -54.958  1.00  0.00    -0.077 SA
HETATM   14  C   UNL     1     -40.651  53.333 -53.510  1.00  0.00     0.168 C 
HETATM   15  N   UNL     1     -41.911  53.353 -53.215  1.00  0.00    -0.189 NA
HETATM   16  C   UNL     1     -42.677  54.077 -54.097  1.00  0.00     0.260 C 
HETATM   17  O   UNL     1     -43.851  54.362 -53.890  1.00  0.00    -0.270 OA
BRANCH  14  18
HETATM   18  N   UNL     1     -39.687  52.656 -52.795  1.00  0.00    -0.360 N 
HETATM   19  C   UNL     1     -39.512  52.766 -51.343  1.00  0.00     0.125 C 
HETATM   20  C   UNL     1     -40.249  51.612 -50.659  1.00  0.00     0.020 C 
HETATM   21  C   UNL     1     -39.771  50.260 -51.194  1.00  0.00     0.003 C 
HETATM   22  C   UNL     1     -39.841  50.212 -52.721  1.00  0.00     0.020 C 
HETATM   23  C   UNL     1     -39.126  51.412 -53.340  1.00  0.00     0.125 C 
ENDBRANCH  14  18
ENDBRANCH  11  12
ENDBRANCH   8  11
ENDBRANCH   4   7
BRANCH   1  24
HETATM   24  C   UNL     1     -45.655  60.745 -50.294  1.00  0.00     0.256 C 
HETATM   25  N   UNL     1     -44.864  60.874 -49.165  1.00  0.00    -0.323 N 
HETATM   26  H   UNL     1     -44.076  60.251 -49.070  1.00  0.00     0.169 HD
HETATM   27  O   UNL     1     -46.651  61.406 -50.564  1.00  0.00    -0.267 OA
BRANCH  25  28
HETATM   28  C   UNL     1     -44.960  61.862 -48.162  1.00  0.00     0.035 A 
HETATM   29  C   UNL     1     -44.509  63.173 -48.310  1.00  0.00     0.030 A 
HETATM   30  C   UNL     1     -44.565  64.073 -47.236  1.00  0.00     0.010 A 
HETATM   31  C   UNL     1     -45.098  63.690 -46.000  1.00  0.00    -0.054 A 
HETATM   32  C   UNL     1     -45.569  62.376 -45.863  1.00  0.00     0.010 A 
HETATM   33  C   UNL     1     -45.496  61.473 -46.930  1.00  0.00     0.030 A 
BRANCH  31  34
HETATM   34  C   UNL     1     -45.119  64.614 -44.791  1.00  0.00     0.014 C 
HETATM   35  C   UNL     1     -46.370  64.314 -43.954  1.00  0.00     0.015 C 
BRANCH  34  36
HETATM   36  C   UNL     1     -43.866  64.570 -43.892  1.00  0.00     0.004 C 
HETATM   37  C   UNL     1     -43.895  63.439 -42.871  1.00  0.00     0.006 C 
ENDBRANCH  34  36
ENDBRANCH  31  34
ENDBRANCH  25  28
ENDBRANCH   1  24
TORSDOF 8
ENDMDL
MODEL 8
REMARK VINA RESULT:      -7.8      4.027     11.428
REMARK  8 active torsions:
REMARK  status: ('A' for Active; 'I' for Inactive)
REMARK    1  A    between atoms: C_2  and  C_3 
REMARK    2  A    between atoms: C_3  and  C_4 
REMARK    3  A    between atoms: C_7  and  N_8 
REMARK       I    between atoms: N_8  and  C_9 
REMARK    4  A    between atoms: C_9  and  C_10 
REMARK    5  A    between atoms: C_13  and  N_14 
REMARK       I    between atoms: N_14  and  C_15 
REMARK    6  A    between atoms: C_15  and  C_16 
REMARK    7  A    between atoms: C_16  and  C_17 
REMARK    8  A    between atoms: C_19  and  N_20 
ROOT
HETATM    1  C   UNL     1     -45.880  61.485 -50.628  1.00  0.00     0.032 A 
HETATM    2  C   UNL     1     -46.587  61.712 -51.814  1.00  0.00     0.019 A 
HETATM    3  C   UNL     1     -46.343  60.921 -52.946  1.00  0.00     0.030 A 
HETATM    4  C   UNL     1     -45.387  59.905 -52.915  1.00  0.00     0.034 A 
HETATM    5  C   UNL     1     -44.647  59.711 -51.743  1.00  0.00     0.030 A 
HETATM    6  C   UNL     1     -44.891  60.495 -50.610  1.00  0.00     0.019 A 
ENDROOT
BRANCH   4   7
HETATM    7  N   UNL     1     -45.109  59.044 -53.998  1.00  0.00    -0.327 N 
HETATM    8  C   UNL     1     -44.138  59.202 -54.970  1.00  0.00     0.223 C 
HETATM    9  O   UNL     1     -43.354  60.140 -55.068  1.00  0.00    -0.273 OA
HETATM   10  H   UNL     1     -45.703  58.227 -54.068  1.00  0.00     0.169 HD
BRANCH   8  11
HETATM   11  C   UNL     1     -44.148  58.088 -55.997  1.00  0.00     0.128 C 
BRANCH  11  12
HETATM   12  C   UNL     1     -42.971  57.151 -55.771  1.00  0.00     0.158 C 
HETATM   13  S   UNL     1     -43.017  56.409 -54.114  1.00  0.00    -0.077 SA
HETATM   14  C   UNL     1     -42.694  54.822 -54.792  1.00  0.00     0.168 C 
HETATM   15  N   UNL     1     -42.727  54.755 -56.084  1.00  0.00    -0.189 NA
HETATM   16  C   UNL     1     -43.017  55.952 -56.695  1.00  0.00     0.260 C 
HETATM   17  O   UNL     1     -43.270  56.051 -57.891  1.00  0.00    -0.270 OA
BRANCH  14  18
HETATM   18  N   UNL     1     -42.401  53.766 -53.957  1.00  0.00    -0.360 N 
HETATM   19  C   UNL     1     -41.536  52.642 -54.329  1.00  0.00     0.125 C 
HETATM   20  C   UNL     1     -40.118  52.908 -53.820  1.00  0.00     0.020 C 
HETATM   21  C   UNL     1     -40.113  53.161 -52.310  1.00  0.00     0.003 C 
HETATM   22  C   UNL     1     -41.116  54.250 -51.929  1.00  0.00     0.020 C 
HETATM   23  C   UNL     1     -42.499  53.947 -52.502  1.00  0.00     0.125 C 
ENDBRANCH  14  18
ENDBRANCH  11  12
ENDBRANCH   8  11
ENDBRANCH   4   7
BRANCH   1  24
HETATM   24  C   UNL     1     -46.140  62.234 -49.360  1.00  0.00     0.256 C 
HETATM   25  N   UNL     1     -45.200  62.060 -48.358  1.00  0.00    -0.323 N 
HETATM   26  H   UNL     1     -44.444  61.414 -48.530  1.00  0.00     0.169 HD
HETATM   27  O   UNL     1     -47.123  62.964 -49.316  1.00  0.00    -0.267 OA
BRANCH  25  28
HETATM   28  C   UNL     1     -45.104  62.773 -47.144  1.00  0.00     0.035 A 
HETATM   29  C   UNL     1     -44.964  64.157 -47.058  1.00  0.00     0.030 A 
HETATM   30  C   UNL     1     -44.791  64.782 -45.815  1.00  0.00     0.010 A 
HETATM   31  C   UNL     1     -44.781  64.039 -44.628  1.00  0.00    -0.054 A 
HETATM   32  C   UNL     1     -44.941  62.649 -44.719  1.00  0.00     0.010 A 
HETATM   33  C   UNL     1     -45.096  62.025 -45.962  1.00  0.00     0.030 A 
BRANCH  31  34
HETATM   34  C   UNL     1     -44.532  64.668 -43.266  1.00  0.00     0.014 C 
HETATM   35  C   UNL     1     -45.804  64.542 -42.417  1.00  0.00     0.015 C 
BRANCH  34  36
HETATM   36  C   UNL     1     -43.323  64.115 -42.481  1.00  0.00     0.004 C 
HETATM   37  C   UNL     1     -43.659  63.735 -41.045  1.00  0.00     0.006 C 
ENDBRANCH  34  36
ENDBRANCH  31  34
ENDBRANCH  25  28
ENDBRANCH   1  24
TORSDOF 8
ENDMDL
MODEL 9
REMARK VINA RESULT:      -7.8      1.588      1.999
REMARK  8 active torsions:
REMARK  status: ('A' for Active; 'I' for Inactive)
REMARK    1  A    between atoms: C_2  and  C_3 
REMARK    2  A    between atoms: C_3  and  C_4 
REMARK    3  A    between atoms: C_7  and  N_8 
REMARK       I    between atoms: N_8  and  C_9 
REMARK    4  A    between atoms: C_9  and  C_10 
REMARK    5  A    between atoms: C_13  and  N_14 
REMARK       I    between atoms: N_14  and  C_15 
REMARK    6  A    between atoms: C_15  and  C_16 
REMARK    7  A    between atoms: C_16  and  C_17 
REMARK    8  A    between atoms: C_19  and  N_20 
ROOT
HETATM    1  C   UNL     1     -44.219  58.211 -51.231  1.00  0.00     0.032 A 
HETATM    2  C   UNL     1     -45.476  58.623 -50.776  1.00  0.00     0.019 A 
HETATM    3  C   UNL     1     -45.850  59.972 -50.857  1.00  0.00     0.030 A 
HETATM    4  C   UNL     1     -44.974  60.927 -51.378  1.00  0.00     0.034 A 
HETATM    5  C   UNL     1     -43.700  60.519 -51.788  1.00  0.00     0.030 A 
HETATM    6  C   UNL     1     -43.325  59.174 -51.714  1.00  0.00     0.019 A 
ENDROOT
BRANCH   4   7
HETATM    7  N   UNL     1     -45.289  62.294 -51.527  1.00  0.00    -0.327 N 
HETATM    8  C   UNL     1     -46.066  62.875 -52.513  1.00  0.00     0.223 C 
HETATM    9  O   UNL     1     -46.605  62.294 -53.449  1.00  0.00    -0.273 OA
HETATM   10  H   UNL     1     -44.884  62.913 -50.834  1.00  0.00     0.169 HD
BRANCH   8  11
HETATM   11  C   UNL     1     -46.165  64.381 -52.372  1.00  0.00     0.128 C 
BRANCH  11  12
HETATM   12  C   UNL     1     -47.581  64.782 -51.984  1.00  0.00     0.158 C 
HETATM   13  S   UNL     1     -48.707  64.719 -53.408  1.00  0.00    -0.077 SA
HETATM   14  C   UNL     1     -49.900  63.856 -52.453  1.00  0.00     0.168 C 
HETATM   15  N   UNL     1     -49.500  63.471 -51.285  1.00  0.00    -0.189 NA
HETATM   16  C   UNL     1     -48.197  63.806 -51.004  1.00  0.00     0.260 C 
HETATM   17  O   UNL     1     -47.587  63.375 -50.033  1.00  0.00    -0.270 OA
BRANCH  14  18
HETATM   18  N   UNL     1     -51.169  63.662 -52.954  1.00  0.00    -0.360 N 
HETATM   19  C   UNL     1     -51.570  63.990 -54.325  1.00  0.00     0.125 C 
HETATM   20  C   UNL     1     -51.478  62.732 -55.191  1.00  0.00     0.020 C 
HETATM   21  C   UNL     1     -52.319  61.596 -54.603  1.00  0.00     0.003 C 
HETATM   22  C   UNL     1     -51.974  61.355 -53.133  1.00  0.00     0.020 C 
HETATM   23  C   UNL     1     -52.043  62.656 -52.334  1.00  0.00     0.125 C 
ENDBRANCH  14  18
ENDBRANCH  11  12
ENDBRANCH   8  11
ENDBRANCH   4   7
BRANCH   1  24
HETATM   24  C   UNL     1     -43.780  56.781 -51.251  1.00  0.00     0.256 C 
HETATM   25  N   UNL     1     -42.556  56.538 -51.850  1.00  0.00    -0.323 N 
HETATM   26  H   UNL     1     -42.075  57.319 -52.269  1.00  0.00     0.169 HD
HETATM   27  O   UNL     1     -44.502  55.952 -50.708  1.00  0.00    -0.267 OA
BRANCH  25  28
HETATM   28  C   UNL     1     -41.830  55.327 -51.851  1.00  0.00     0.035 A 
HETATM   29  C   UNL     1     -40.978  54.926 -50.824  1.00  0.00     0.030 A 
HETATM   30  C   UNL     1     -40.228  53.746 -50.938  1.00  0.00     0.010 A 
HETATM   31  C   UNL     1     -40.334  52.930 -52.070  1.00  0.00    -0.054 A 
HETATM   32  C   UNL     1     -41.208  53.329 -53.091  1.00  0.00     0.010 A 
HETATM   33  C   UNL     1     -41.942  54.514 -52.984  1.00  0.00     0.030 A 
BRANCH  31  34
HETATM   34  C   UNL     1     -39.491  51.678 -52.262  1.00  0.00     0.014 C 
HETATM   35  C   UNL     1     -39.795  50.692 -51.125  1.00  0.00     0.015 C 
BRANCH  34  36
HETATM   36  C   UNL     1     -39.645  50.968 -53.624  1.00  0.00     0.004 C 
HETATM   37  C   UNL     1     -39.479  49.456 -53.538  1.00  0.00     0.006 C 
ENDBRANCH  34  36
ENDBRANCH  31  34
ENDBRANCH  25  28
ENDBRANCH   1  24
TORSDOF 8
ENDMDL
MODEL 10
REMARK VINA RESULT:      -7.7      4.777      6.078
REMARK  8 active torsions:
REMARK  status: ('A' for Active; 'I' for Inactive)
REMARK    1  A    between atoms: C_2  and  C_3 
REMARK    2  A    between atoms: C_3  and  C_4 
REMARK    3  A    between atoms: C_7  and  N_8 
REMARK       I    between atoms: N_8  and  C_9 
REMARK    4  A    between atoms: C_9  and  C_10 
REMARK    5  A    between atoms: C_13  and  N_14 
REMARK       I    between atoms: N_14  and  C_15 
REMARK    6  A    between atoms: C_15  and  C_16 
REMARK    7  A    between atoms: C_16  and  C_17 
REMARK    8  A    between atoms: C_19  and  N_20 
ROOT
HETATM    1  C   UNL     1     -44.674  57.535 -57.671  1.00  0.00     0.032 A 
HETATM    2  C   UNL     1     -45.341  58.322 -56.727  1.00  0.00     0.019 A 
HETATM    3  C   UNL     1     -46.458  59.083 -57.102  1.00  0.00     0.030 A 
HETATM    4  C   UNL     1     -46.915  59.078 -58.421  1.00  0.00     0.034 A 
HETATM    5  C   UNL     1     -46.217  58.327 -59.373  1.00  0.00     0.030 A 
HETATM    6  C   UNL     1     -45.106  57.563 -59.002  1.00  0.00     0.019 A 
ENDROOT
BRANCH   4   7
HETATM    7  N   UNL     1     -48.051  59.786 -58.869  1.00  0.00    -0.327 N 
HETATM    8  C   UNL     1     -48.198  61.157 -58.976  1.00  0.00     0.223 C 
HETATM    9  O   UNL     1     -47.361  62.003 -58.678  1.00  0.00    -0.273 OA
HETATM   10  H   UNL     1     -48.847  59.215 -59.127  1.00  0.00     0.169 HD
BRANCH   8  11
HETATM   11  C   UNL     1     -49.572  61.564 -59.471  1.00  0.00     0.128 C 
BRANCH  11  12
HETATM   12  C   UNL     1     -50.649  60.761 -58.756  1.00  0.00     0.158 C 
HETATM   13  S   UNL     1     -50.643  61.081 -56.968  1.00  0.00    -0.077 SA
HETATM   14  C   UNL     1     -52.387  61.280 -56.976  1.00  0.00     0.168 C 
HETATM   15  N   UNL     1     -52.936  61.305 -58.148  1.00  0.00    -0.189 NA
HETATM   16  C   UNL     1     -52.041  61.177 -59.184  1.00  0.00     0.260 C 
HETATM   17  O   UNL     1     -52.342  61.359 -60.358  1.00  0.00    -0.270 OA
BRANCH  14  18
HETATM   18  N   UNL     1     -53.074  61.364 -55.785  1.00  0.00    -0.360 N 
HETATM   19  C   UNL     1     -52.455  61.193 -54.466  1.00  0.00     0.125 C 
HETATM   20  C   UNL     1     -52.107  62.568 -53.892  1.00  0.00     0.020 C 
HETATM   21  C   UNL     1     -53.343  63.470 -53.834  1.00  0.00     0.003 C 
HETATM   22  C   UNL     1     -54.047  63.531 -55.190  1.00  0.00     0.020 C 
HETATM   23  C   UNL     1     -54.327  62.129 -55.726  1.00  0.00     0.125 C 
ENDBRANCH  14  18
ENDBRANCH  11  12
ENDBRANCH   8  11
ENDBRANCH   4   7
BRANCH   1  24
HETATM   24  C   UNL     1     -43.527  56.637 -57.330  1.00  0.00     0.256 C 
HETATM   25  N   UNL     1     -43.333  56.400 -55.980  1.00  0.00    -0.323 N 
HETATM   26  H   UNL     1     -43.936  56.878 -55.327  1.00  0.00     0.169 HD
HETATM   27  O   UNL     1     -42.882  56.154 -58.253  1.00  0.00    -0.267 OA
BRANCH  25  28
HETATM   28  C   UNL     1     -42.450  55.467 -55.394  1.00  0.00     0.035 A 
HETATM   29  C   UNL     1     -41.115  55.734 -55.095  1.00  0.00     0.030 A 
HETATM   30  C   UNL     1     -40.281  54.726 -54.591  1.00  0.00     0.010 A 
HETATM   31  C   UNL     1     -40.771  53.437 -54.348  1.00  0.00    -0.054 A 
HETATM   32  C   UNL     1     -42.120  53.180 -54.632  1.00  0.00     0.010 A 
HETATM   33  C   UNL     1     -42.947  54.181 -55.152  1.00  0.00     0.030 A 
BRANCH  31  34
HETATM   34  C   UNL     1     -39.885  52.299 -53.863  1.00  0.00     0.014 C 
HETATM   35  C   UNL     1     -39.938  52.245 -52.330  1.00  0.00     0.015 C 
BRANCH  34  36
HETATM   36  C   UNL     1     -40.203  50.906 -54.446  1.00  0.00     0.004 C 
HETATM   37  C   UNL     1     -39.743  49.760 -53.554  1.00  0.00     0.006 C 
ENDBRANCH  34  36
ENDBRANCH  31  34
ENDBRANCH  25  28
ENDBRANCH   1  24
TORSDOF 8
ENDMDL
