MODEL 1
REMARK VINA RESULT:      -8.6      0.000      0.000
REMARK  7 active torsions:
REMARK  status: ('A' for Active; 'I' for Inactive)
REMARK    1  A    between atoms: C_8  and  C_9 
REMARK    2  A    between atoms: C_9  and  C_10 
REMARK       I    between atoms: C_10  and  N_11 
REMARK    3  A    between atoms: N_11  and  C_27 
REMARK    4  A    between atoms: N_11  and  C_12 
REMARK    5  A    between atoms: C_12  and  C_13 
REMARK    6  A    between atoms: C_12  and  C_22 
REMARK       I    between atoms: C_13  and  N_14 
REMARK    7  A    between atoms: N_14  and  C_15 
ROOT
HETATM    1  C   UNL     1     -43.211  56.529 -54.099  1.00  0.00     0.229 C 
HETATM    2  N   UNL     1     -42.977  57.887 -53.876  1.00  0.00    -0.299 N 
HETATM    3  O   UNL     1     -43.772  56.144 -55.132  1.00  0.00    -0.273 OA
ENDROOT
BRANCH   2   4
HETATM    4  C   UNL     1     -42.051  58.401 -52.922  1.00  0.00     0.041 A 
HETATM    5  C   UNL     1     -40.694  58.515 -53.263  1.00  0.00     0.069 A 
HETATM    6  C   UNL     1     -39.810  58.927 -52.288  1.00  0.00     0.107 A 
HETATM    7  C   UNL     1     -40.225  59.224 -51.012  1.00  0.00     0.105 A 
HETATM    8  O   UNL     1     -38.467  59.075 -52.444  1.00  0.00    -0.323 OA
HETATM    9  O   UNL     1     -39.195  59.596 -50.205  1.00  0.00    -0.323 OA
HETATM   10  C   UNL     1     -41.546  59.127 -50.639  1.00  0.00     0.042 A 
HETATM   11  C   UNL     1     -38.079  59.469 -51.112  1.00  0.00     0.352 A 
HETATM   12  C   UNL     1     -42.467  58.701 -51.606  1.00  0.00     0.032 A 
ENDBRANCH   2   4
BRANCH   2  13
HETATM   13  C   UNL     1     -43.517  58.875 -54.846  1.00  0.00     0.225 C 
BRANCH  13  14
HETATM   14  C   UNL     1     -42.641  58.962 -56.118  1.00  0.00     0.246 C 
HETATM   15  N   UNL     1     -43.060  58.263 -57.230  1.00  0.00    -0.354 N 
HETATM   16  H   UNL     1     -44.074  58.147 -57.226  1.00  0.00     0.162 HD
HETATM   17  O   UNL     1     -41.687  59.745 -56.149  1.00  0.00    -0.271 OA
BRANCH  15  18
HETATM   18  C   UNL     1     -42.515  58.467 -58.575  1.00  0.00     0.084 C 
HETATM   19  C   UNL     1     -41.930  57.213 -59.249  1.00  0.00     0.025 C 
HETATM   20  C   UNL     1     -42.995  56.175 -59.586  1.00  0.00     0.002 C 
HETATM   21  C   UNL     1     -44.092  56.773 -60.458  1.00  0.00     0.000 C 
HETATM   22  C   UNL     1     -44.691  58.027 -59.829  1.00  0.00     0.002 C 
HETATM   23  C   UNL     1     -43.615  59.058 -59.475  1.00  0.00     0.025 C 
ENDBRANCH  15  18
ENDBRANCH  13  14
BRANCH  13  24
HETATM   24  C   UNL     1     -43.927  60.179 -54.169  1.00  0.00     0.015 A 
HETATM   25  S   UNL     1     -45.473  60.225 -53.384  1.00  0.00    -0.104 SA
HETATM   26  C   UNL     1     -45.233  61.814 -52.816  1.00  0.00     0.050 A 
HETATM   27  C   UNL     1     -44.019  62.322 -53.209  1.00  0.00     0.008 A 
HETATM   28  C   UNL     1     -43.276  61.389 -53.991  1.00  0.00     0.017 A 
ENDBRANCH  13  24
ENDBRANCH   2  13
BRANCH   1  29
HETATM   29  C   UNL     1     -42.858  55.510 -53.015  1.00  0.00     0.144 C 
BRANCH  29  30
HETATM   30  C   UNL     1     -41.839  54.501 -53.467  1.00  0.00    -0.021 A 
HETATM   31  C   UNL     1     -41.117  53.546 -52.673  1.00  0.00    -0.001 A 
HETATM   32  C   UNL     1     -41.067  53.236 -51.297  1.00  0.00     0.014 A 
HETATM   33  C   UNL     1     -40.318  52.798 -53.540  1.00  0.00     0.042 A 
HETATM   34  C   UNL     1     -40.217  52.223 -50.839  1.00  0.00     0.001 A 
HETATM   35  C   UNL     1     -39.432  51.499 -51.732  1.00  0.00     0.002 A 
HETATM   36  C   UNL     1     -39.472  51.770 -53.103  1.00  0.00     0.030 A 
HETATM   37  N   UNL     1     -40.546  53.269 -54.810  1.00  0.00    -0.365 N 
HETATM   38  H   UNL     1     -40.107  52.903 -55.643  1.00  0.00     0.165 HD
HETATM   39  C   UNL     1     -41.456  54.289 -54.780  1.00  0.00     0.097 A 
ENDBRANCH  29  30
ENDBRANCH   1  29
TORSDOF 7
ENDMDL
MODEL 2
REMARK VINA RESULT:      -8.5      3.346      6.467
REMARK  7 active torsions:
REMARK  status: ('A' for Active; 'I' for Inactive)
REMARK    1  A    between atoms: C_8  and  C_9 
REMARK    2  A    between atoms: C_9  and  C_10 
REMARK       I    between atoms: C_10  and  N_11 
REMARK    3  A    between atoms: N_11  and  C_27 
REMARK    4  A    between atoms: N_11  and  C_12 
REMARK    5  A    between atoms: C_12  and  C_13 
REMARK    6  A    between atoms: C_12  and  C_22 
REMARK       I    between atoms: C_13  and  N_14 
REMARK    7  A    between atoms: N_14  and  C_15 
ROOT
HETATM    1  C   UNL     1     -44.536  57.973 -53.113  1.00  0.00     0.229 C 
HETATM    2  N   UNL     1     -43.839  58.201 -51.925  1.00  0.00    -0.299 N 
HETATM    3  O   UNL     1     -45.173  58.882 -53.659  1.00  0.00    -0.273 OA
ENDROOT
BRANCH   2   4
HETATM    4  C   UNL     1     -42.815  57.352 -51.415  1.00  0.00     0.041 A 
HETATM    5  C   UNL     1     -43.160  56.225 -50.653  1.00  0.00     0.069 A 
HETATM    6  C   UNL     1     -42.143  55.478 -50.096  1.00  0.00     0.107 A 
HETATM    7  C   UNL     1     -40.821  55.809 -50.270  1.00  0.00     0.105 A 
HETATM    8  O   UNL     1     -42.303  54.371 -49.321  1.00  0.00    -0.323 OA
HETATM    9  O   UNL     1     -39.983  54.953 -49.628  1.00  0.00    -0.323 OA
HETATM   10  C   UNL     1     -40.442  56.905 -51.013  1.00  0.00     0.042 A 
HETATM   11  C   UNL     1     -40.931  54.062 -49.002  1.00  0.00     0.352 A 
HETATM   12  C   UNL     1     -41.453  57.689 -51.582  1.00  0.00     0.032 A 
ENDBRANCH   2   4
BRANCH   2  13
HETATM   13  C   UNL     1     -43.968  59.525 -51.263  1.00  0.00     0.225 C 
BRANCH  13  14
HETATM   14  C   UNL     1     -45.149  59.552 -50.265  1.00  0.00     0.246 C 
HETATM   15  N   UNL     1     -45.007  60.321 -49.130  1.00  0.00    -0.354 N 
HETATM   16  H   UNL     1     -44.363  61.096 -49.293  1.00  0.00     0.162 HD
HETATM   17  O   UNL     1     -46.216  59.010 -50.568  1.00  0.00    -0.271 OA
BRANCH  15  18
HETATM   18  C   UNL     1     -46.118  60.682 -48.244  1.00  0.00     0.084 C 
HETATM   19  C   UNL     1     -45.954  60.261 -46.773  1.00  0.00     0.025 C 
HETATM   20  C   UNL     1     -44.837  61.022 -46.064  1.00  0.00     0.002 C 
HETATM   21  C   UNL     1     -45.051  62.528 -46.157  1.00  0.00     0.000 C 
HETATM   22  C   UNL     1     -45.229  62.984 -47.602  1.00  0.00     0.002 C 
HETATM   23  C   UNL     1     -46.338  62.204 -48.314  1.00  0.00     0.025 C 
ENDBRANCH  15  18
ENDBRANCH  13  14
BRANCH  13  24
HETATM   24  C   UNL     1     -43.843  60.677 -52.256  1.00  0.00     0.015 A 
HETATM   25  S   UNL     1     -45.129  61.841 -52.301  1.00  0.00    -0.104 SA
HETATM   26  C   UNL     1     -44.332  62.802 -53.462  1.00  0.00     0.050 A 
HETATM   27  C   UNL     1     -43.123  62.267 -53.830  1.00  0.00     0.008 A 
HETATM   28  C   UNL     1     -42.847  61.045 -53.146  1.00  0.00     0.017 A 
ENDBRANCH  13  24
ENDBRANCH   2  13
BRANCH   1  29
HETATM   29  C   UNL     1     -44.597  56.562 -53.698  1.00  0.00     0.144 C 
BRANCH  29  30
HETATM   30  C   UNL     1     -43.370  56.202 -54.490  1.00  0.00    -0.021 A 
HETATM   31  C   UNL     1     -42.456  55.114 -54.273  1.00  0.00    -0.001 A 
HETATM   32  C   UNL     1     -42.350  54.085 -53.312  1.00  0.00     0.014 A 
HETATM   33  C   UNL     1     -41.499  55.161 -55.288  1.00  0.00     0.042 A 
HETATM   34  C   UNL     1     -41.295  53.168 -53.385  1.00  0.00     0.001 A 
HETATM   35  C   UNL     1     -40.358  53.247 -54.410  1.00  0.00     0.002 A 
HETATM   36  C   UNL     1     -40.445  54.243 -55.387  1.00  0.00     0.030 A 
HETATM   37  N   UNL     1     -41.817  56.225 -56.097  1.00  0.00    -0.365 N 
HETATM   38  H   UNL     1     -41.299  56.491 -56.922  1.00  0.00     0.165 HD
HETATM   39  C   UNL     1     -42.937  56.856 -55.630  1.00  0.00     0.097 A 
ENDBRANCH  29  30
ENDBRANCH   1  29
TORSDOF 7
ENDMDL
MODEL 3
REMARK VINA RESULT:      -8.3      2.156      6.974
REMARK  7 active torsions:
REMARK  status: ('A' for Active; 'I' for Inactive)
REMARK    1  A    between atoms: C_8  and  C_9 
REMARK    2  A    between atoms: C_9  and  C_10 
REMARK       I    between atoms: C_10  and  N_11 
REMARK    3  A    between atoms: N_11  and  C_27 
REMARK    4  A    between atoms: N_11  and  C_12 
REMARK    5  A    between atoms: C_12  and  C_13 
REMARK    6  A    between atoms: C_12  and  C_22 
REMARK       I    between atoms: C_13  and  N_14 
REMARK    7  A    between atoms: N_14  and  C_15 
ROOT
HETATM    1  C   UNL     1     -42.673  57.779 -56.248  1.00  0.00     0.229 C 
HETATM    2  N   UNL     1     -42.421  58.160 -54.929  1.00  0.00    -0.299 N 
HETATM    3  O   UNL     1     -42.302  56.677 -56.672  1.00  0.00    -0.273 OA
ENDROOT
BRANCH   2   4
HETATM    4  C   UNL     1     -43.093  59.219 -54.252  1.00  0.00     0.041 A 
HETATM    5  C   UNL     1     -44.345  58.985 -53.663  1.00  0.00     0.069 A 
HETATM    6  C   UNL     1     -45.009  60.053 -53.098  1.00  0.00     0.107 A 
HETATM    7  C   UNL     1     -44.479  61.321 -53.101  1.00  0.00     0.105 A 
HETATM    8  O   UNL     1     -46.231  60.004 -52.502  1.00  0.00    -0.323 OA
HETATM    9  O   UNL     1     -45.299  62.228 -52.507  1.00  0.00    -0.323 OA
HETATM   10  C   UNL     1     -43.253  61.591 -53.667  1.00  0.00     0.042 A 
HETATM   11  C   UNL     1     -46.423  61.391 -52.158  1.00  0.00     0.352 A 
HETATM   12  C   UNL     1     -42.559  60.527 -54.257  1.00  0.00     0.032 A 
ENDBRANCH   2   4
BRANCH   2  13
HETATM   13  C   UNL     1     -41.598  57.268 -54.071  1.00  0.00     0.225 C 
BRANCH  13  14
HETATM   14  C   UNL     1     -42.281  55.897 -53.854  1.00  0.00     0.246 C 
HETATM   15  N   UNL     1     -41.485  54.773 -53.903  1.00  0.00    -0.354 N 
HETATM   16  H   UNL     1     -40.524  54.995 -53.638  1.00  0.00     0.162 HD
HETATM   17  O   UNL     1     -43.467  55.853 -53.514  1.00  0.00    -0.271 OA
BRANCH  15  18
HETATM   18  C   UNL     1     -41.911  53.449 -53.439  1.00  0.00     0.084 C 
HETATM   19  C   UNL     1     -41.257  52.255 -54.156  1.00  0.00     0.025 C 
HETATM   20  C   UNL     1     -39.766  52.135 -53.859  1.00  0.00     0.002 C 
HETATM   21  C   UNL     1     -39.508  52.049 -52.359  1.00  0.00     0.000 C 
HETATM   22  C   UNL     1     -40.151  53.212 -51.609  1.00  0.00     0.002 C 
HETATM   23  C   UNL     1     -41.644  53.340 -51.927  1.00  0.00     0.025 C 
ENDBRANCH  15  18
ENDBRANCH  13  14
BRANCH  13  24
HETATM   24  C   UNL     1     -41.049  57.995 -52.848  1.00  0.00     0.015 A 
HETATM   25  S   UNL     1     -41.777  57.647 -51.312  1.00  0.00    -0.104 SA
HETATM   26  C   UNL     1     -40.686  58.652 -50.472  1.00  0.00     0.050 A 
HETATM   27  C   UNL     1     -39.788  59.255 -51.317  1.00  0.00     0.008 A 
HETATM   28  C   UNL     1     -40.002  58.886 -52.678  1.00  0.00     0.017 A 
ENDBRANCH  13  24
ENDBRANCH   2  13
BRANCH   1  29
HETATM   29  C   UNL     1     -43.328  58.768 -57.212  1.00  0.00     0.144 C 
BRANCH  29  30
HETATM   30  C   UNL     1     -44.646  58.280 -57.748  1.00  0.00    -0.021 A 
HETATM   31  C   UNL     1     -44.886  57.390 -58.849  1.00  0.00    -0.001 A 
HETATM   32  C   UNL     1     -44.062  56.720 -59.781  1.00  0.00     0.014 A 
HETATM   33  C   UNL     1     -46.265  57.196 -58.941  1.00  0.00     0.042 A 
HETATM   34  C   UNL     1     -44.638  55.913 -60.768  1.00  0.00     0.001 A 
HETATM   35  C   UNL     1     -46.018  55.745 -60.831  1.00  0.00     0.002 A 
HETATM   36  C   UNL     1     -46.859  56.380 -59.913  1.00  0.00     0.030 A 
HETATM   37  N   UNL     1     -46.845  57.929 -57.934  1.00  0.00    -0.365 N 
HETATM   38  H   UNL     1     -47.838  57.967 -57.754  1.00  0.00     0.165 HD
HETATM   39  C   UNL     1     -45.885  58.583 -57.211  1.00  0.00     0.097 A 
ENDBRANCH  29  30
ENDBRANCH   1  29
TORSDOF 7
ENDMDL
MODEL 4
REMARK VINA RESULT:      -8.3      3.418      7.625
REMARK  7 active torsions:
REMARK  status: ('A' for Active; 'I' for Inactive)
REMARK    1  A    between atoms: C_8  and  C_9 
REMARK    2  A    between atoms: C_9  and  C_10 
REMARK       I    between atoms: C_10  and  N_11 
REMARK    3  A    between atoms: N_11  and  C_27 
REMARK    4  A    between atoms: N_11  and  C_12 
REMARK    5  A    between atoms: C_12  and  C_13 
REMARK    6  A    between atoms: C_12  and  C_22 
REMARK       I    between atoms: C_13  and  N_14 
REMARK    7  A    between atoms: N_14  and  C_15 
ROOT
HETATM    1  C   UNL     1     -45.226  61.097 -51.798  1.00  0.00     0.229 C 
HETATM    2  N   UNL     1     -44.433  59.988 -52.101  1.00  0.00    -0.299 N 
HETATM    3  O   UNL     1     -46.460  61.020 -51.825  1.00  0.00    -0.273 OA
ENDROOT
BRANCH   2   4
HETATM    4  C   UNL     1     -43.053  59.867 -51.765  1.00  0.00     0.041 A 
HETATM    5  C   UNL     1     -42.111  59.618 -52.775  1.00  0.00     0.069 A 
HETATM    6  C   UNL     1     -40.798  59.413 -52.404  1.00  0.00     0.107 A 
HETATM    7  C   UNL     1     -40.401  59.448 -51.089  1.00  0.00     0.105 A 
HETATM    8  O   UNL     1     -39.767  59.146 -53.250  1.00  0.00    -0.323 OA
HETATM    9  O   UNL     1     -39.071  59.208 -50.942  1.00  0.00    -0.323 OA
HETATM   10  C   UNL     1     -41.295  59.692 -50.071  1.00  0.00     0.042 A 
HETATM   11  C   UNL     1     -38.681  58.986 -52.314  1.00  0.00     0.352 A 
HETATM   12  C   UNL     1     -42.637  59.893 -50.415  1.00  0.00     0.032 A 
ENDBRANCH   2   4
BRANCH   2  13
HETATM   13  C   UNL     1     -45.094  58.742 -52.568  1.00  0.00     0.225 C 
BRANCH  13  14
HETATM   14  C   UNL     1     -44.930  57.592 -51.547  1.00  0.00     0.246 C 
HETATM   15  N   UNL     1     -44.073  56.565 -51.877  1.00  0.00    -0.354 N 
HETATM   16  H   UNL     1     -43.343  56.889 -52.513  1.00  0.00     0.162 HD
HETATM   17  O   UNL     1     -45.451  57.688 -50.432  1.00  0.00    -0.271 OA
BRANCH  15  18
HETATM   18  C   UNL     1     -43.590  55.565 -50.919  1.00  0.00     0.084 C 
HETATM   19  C   UNL     1     -43.522  54.122 -51.447  1.00  0.00     0.025 C 
HETATM   20  C   UNL     1     -42.459  53.939 -52.527  1.00  0.00     0.002 C 
HETATM   21  C   UNL     1     -41.087  54.379 -52.030  1.00  0.00     0.000 C 
HETATM   22  C   UNL     1     -41.115  55.805 -51.487  1.00  0.00     0.002 C 
HETATM   23  C   UNL     1     -42.197  55.987 -50.418  1.00  0.00     0.025 C 
ENDBRANCH  15  18
ENDBRANCH  13  14
BRANCH  13  24
HETATM   24  C   UNL     1     -44.789  58.446 -54.034  1.00  0.00     0.015 A 
HETATM   25  S   UNL     1     -45.020  59.730 -55.177  1.00  0.00    -0.104 SA
HETATM   26  C   UNL     1     -44.440  58.792 -56.477  1.00  0.00     0.050 A 
HETATM   27  C   UNL     1     -44.084  57.527 -56.078  1.00  0.00     0.008 A 
HETATM   28  C   UNL     1     -44.293  57.327 -54.681  1.00  0.00     0.017 A 
ENDBRANCH  13  24
ENDBRANCH   2  13
BRANCH   1  29
HETATM   29  C   UNL     1     -44.567  62.449 -51.525  1.00  0.00     0.144 C 
BRANCH  29  30
HETATM   30  C   UNL     1     -45.121  63.136 -50.307  1.00  0.00    -0.021 A 
HETATM   31  C   UNL     1     -45.118  62.678 -48.945  1.00  0.00    -0.001 A 
HETATM   32  C   UNL     1     -44.667  61.509 -48.294  1.00  0.00     0.014 A 
HETATM   33  C   UNL     1     -45.705  63.674 -48.165  1.00  0.00     0.042 A 
HETATM   34  C   UNL     1     -44.836  61.371 -46.911  1.00  0.00     0.001 A 
HETATM   35  C   UNL     1     -45.428  62.385 -46.165  1.00  0.00     0.002 A 
HETATM   36  C   UNL     1     -45.870  63.561 -46.778  1.00  0.00     0.030 A 
HETATM   37  N   UNL     1     -46.046  64.703 -49.009  1.00  0.00    -0.365 N 
HETATM   38  H   UNL     1     -46.480  65.566 -48.714  1.00  0.00     0.165 HD
HETATM   39  C   UNL     1     -45.700  64.393 -50.296  1.00  0.00     0.097 A 
ENDBRANCH  29  30
ENDBRANCH   1  29
TORSDOF 7
ENDMDL
MODEL 5
REMARK VINA RESULT:      -8.2      2.456      3.593
REMARK  7 active torsions:
REMARK  status: ('A' for Active; 'I' for Inactive)
REMARK    1  A    between atoms: C_8  and  C_9 
REMARK    2  A    between atoms: C_9  and  C_10 
REMARK       I    between atoms: C_10  and  N_11 
REMARK    3  A    between atoms: N_11  and  C_27 
REMARK    4  A    between atoms: N_11  and  C_12 
REMARK    5  A    between atoms: C_12  and  C_13 
REMARK    6  A    between atoms: C_12  and  C_22 
REMARK       I    between atoms: C_13  and  N_14 
REMARK    7  A    between atoms: N_14  and  C_15 
ROOT
HETATM    1  C   UNL     1     -42.143  58.738 -54.149  1.00  0.00     0.229 C 
HETATM    2  N   UNL     1     -43.338  59.294 -53.689  1.00  0.00    -0.299 N 
HETATM    3  O   UNL     1     -41.948  58.564 -55.359  1.00  0.00    -0.273 OA
ENDROOT
BRANCH   2   4
HETATM    4  C   UNL     1     -43.521  59.852 -52.391  1.00  0.00     0.041 A 
HETATM    5  C   UNL     1     -44.613  59.447 -51.607  1.00  0.00     0.069 A 
HETATM    6  C   UNL     1     -44.813  60.074 -50.396  1.00  0.00     0.107 A 
HETATM    7  C   UNL     1     -43.979  61.069 -49.947  1.00  0.00     0.105 A 
HETATM    8  O   UNL     1     -45.826  59.815 -49.525  1.00  0.00    -0.323 OA
HETATM    9  O   UNL     1     -44.362  61.562 -48.739  1.00  0.00    -0.323 OA
HETATM   10  C   UNL     1     -42.896  61.493 -50.684  1.00  0.00     0.042 A 
HETATM   11  C   UNL     1     -45.552  60.784 -48.492  1.00  0.00     0.352 A 
HETATM   12  C   UNL     1     -42.673  60.882 -51.925  1.00  0.00     0.032 A 
ENDBRANCH   2   4
BRANCH   2  13
HETATM   13  C   UNL     1     -44.422  59.570 -54.667  1.00  0.00     0.225 C 
BRANCH  13  14
HETATM   14  C   UNL     1     -44.701  58.345 -55.570  1.00  0.00     0.246 C 
HETATM   15  N   UNL     1     -44.382  58.453 -56.906  1.00  0.00    -0.354 N 
HETATM   16  H   UNL     1     -43.624  59.121 -57.048  1.00  0.00     0.162 HD
HETATM   17  O   UNL     1     -45.063  57.282 -55.059  1.00  0.00    -0.271 OA
BRANCH  15  18
HETATM   18  C   UNL     1     -44.313  57.312 -57.824  1.00  0.00     0.084 C 
HETATM   19  C   UNL     1     -44.981  57.522 -59.194  1.00  0.00     0.025 C 
HETATM   20  C   UNL     1     -44.253  58.552 -60.052  1.00  0.00     0.002 C 
HETATM   21  C   UNL     1     -42.787  58.178 -60.237  1.00  0.00     0.000 C 
HETATM   22  C   UNL     1     -42.090  57.950 -58.899  1.00  0.00     0.002 C 
HETATM   23  C   UNL     1     -42.836  56.929 -58.034  1.00  0.00     0.025 C 
ENDBRANCH  15  18
ENDBRANCH  13  14
BRANCH  13  24
HETATM   24  C   UNL     1     -44.256  60.930 -55.339  1.00  0.00     0.015 A 
HETATM   25  S   UNL     1     -45.698  61.788 -55.781  1.00  0.00    -0.104 SA
HETATM   26  C   UNL     1     -44.823  63.143 -56.335  1.00  0.00     0.050 A 
HETATM   27  C   UNL     1     -43.468  62.967 -56.206  1.00  0.00     0.008 A 
HETATM   28  C   UNL     1     -43.143  61.697 -55.645  1.00  0.00     0.017 A 
ENDBRANCH  13  24
ENDBRANCH   2  13
BRANCH   1  29
HETATM   29  C   UNL     1     -41.099  58.246 -53.147  1.00  0.00     0.144 C 
BRANCH  29  30
HETATM   30  C   UNL     1     -41.308  56.814 -52.737  1.00  0.00    -0.021 A 
HETATM   31  C   UNL     1     -40.975  55.621 -53.465  1.00  0.00    -0.001 A 
HETATM   32  C   UNL     1     -40.409  55.357 -54.731  1.00  0.00     0.014 A 
HETATM   33  C   UNL     1     -41.317  54.530 -52.663  1.00  0.00     0.042 A 
HETATM   34  C   UNL     1     -40.228  54.035 -55.153  1.00  0.00     0.001 A 
HETATM   35  C   UNL     1     -40.583  52.972 -54.328  1.00  0.00     0.002 A 
HETATM   36  C   UNL     1     -41.130  53.200 -53.062  1.00  0.00     0.030 A 
HETATM   37  N   UNL     1     -41.829  55.033 -51.491  1.00  0.00    -0.365 N 
HETATM   38  H   UNL     1     -42.149  54.468 -50.718  1.00  0.00     0.165 HD
HETATM   39  C   UNL     1     -41.828  56.400 -51.523  1.00  0.00     0.097 A 
ENDBRANCH  29  30
ENDBRANCH   1  29
TORSDOF 7
ENDMDL
MODEL 6
REMARK VINA RESULT:      -8.1     17.068     20.485
REMARK  7 active torsions:
REMARK  status: ('A' for Active; 'I' for Inactive)
REMARK    1  A    between atoms: C_8  and  C_9 
REMARK    2  A    between atoms: C_9  and  C_10 
REMARK       I    between atoms: C_10  and  N_11 
REMARK    3  A    between atoms: N_11  and  C_27 
REMARK    4  A    between atoms: N_11  and  C_12 
REMARK    5  A    between atoms: C_12  and  C_13 
REMARK    6  A    between atoms: C_12  and  C_22 
REMARK       I    between atoms: C_13  and  N_14 
REMARK    7  A    between atoms: N_14  and  C_15 
ROOT
HETATM    1  C   UNL     1     -35.460  37.996 -55.401  1.00  0.00     0.229 C 
HETATM    2  N   UNL     1     -34.406  38.669 -54.782  1.00  0.00    -0.299 N 
HETATM    3  O   UNL     1     -36.635  38.253 -55.110  1.00  0.00    -0.273 OA
ENDROOT
BRANCH   2   4
HETATM    4  C   UNL     1     -33.070  38.708 -55.278  1.00  0.00     0.041 A 
HETATM    5  C   UNL     1     -32.146  37.735 -54.866  1.00  0.00     0.069 A 
HETATM    6  C   UNL     1     -30.840  37.856 -55.291  1.00  0.00     0.107 A 
HETATM    7  C   UNL     1     -30.432  38.891 -56.097  1.00  0.00     0.105 A 
HETATM    8  O   UNL     1     -29.820  37.014 -54.973  1.00  0.00    -0.323 OA
HETATM    9  O   UNL     1     -29.105  38.831 -56.388  1.00  0.00    -0.323 OA
HETATM   10  C   UNL     1     -31.308  39.863 -56.525  1.00  0.00     0.042 A 
HETATM   11  C   UNL     1     -28.717  37.656 -55.645  1.00  0.00     0.352 A 
HETATM   12  C   UNL     1     -32.640  39.773 -56.101  1.00  0.00     0.032 A 
ENDBRANCH   2   4
BRANCH   2  13
HETATM   13  C   UNL     1     -34.712  39.621 -53.683  1.00  0.00     0.225 C 
BRANCH  13  14
HETATM   14  C   UNL     1     -35.254  40.964 -54.226  1.00  0.00     0.246 C 
HETATM   15  N   UNL     1     -35.614  41.015 -55.556  1.00  0.00    -0.354 N 
HETATM   16  H   UNL     1     -35.894  40.093 -55.893  1.00  0.00     0.162 HD
HETATM   17  O   UNL     1     -35.476  41.893 -53.445  1.00  0.00    -0.271 OA
BRANCH  15  18
HETATM   18  C   UNL     1     -36.401  42.100 -56.148  1.00  0.00     0.084 C 
HETATM   19  C   UNL     1     -36.096  42.410 -57.624  1.00  0.00     0.025 C 
HETATM   20  C   UNL     1     -36.517  41.282 -58.561  1.00  0.00     0.002 C 
HETATM   21  C   UNL     1     -37.994  40.947 -58.392  1.00  0.00     0.000 C 
HETATM   22  C   UNL     1     -38.340  40.644 -56.937  1.00  0.00     0.002 C 
HETATM   23  C   UNL     1     -37.898  41.771 -55.999  1.00  0.00     0.025 C 
ENDBRANCH  15  18
ENDBRANCH  13  14
BRANCH  13  24
HETATM   24  C   UNL     1     -33.601  39.669 -52.638  1.00  0.00     0.015 A 
HETATM   25  S   UNL     1     -33.550  38.395 -51.462  1.00  0.00    -0.104 SA
HETATM   26  C   UNL     1     -32.121  38.994 -50.751  1.00  0.00     0.050 A 
HETATM   27  C   UNL     1     -31.680  40.138 -51.368  1.00  0.00     0.008 A 
HETATM   28  C   UNL     1     -32.533  40.530 -52.443  1.00  0.00     0.017 A 
ENDBRANCH  13  24
ENDBRANCH   2  13
BRANCH   1  29
HETATM   29  C   UNL     1     -35.164  36.859 -56.379  1.00  0.00     0.144 C 
BRANCH  29  30
HETATM   30  C   UNL     1     -35.366  37.254 -57.816  1.00  0.00    -0.021 A 
HETATM   31  C   UNL     1     -36.601  37.401 -58.535  1.00  0.00    -0.001 A 
HETATM   32  C   UNL     1     -37.964  37.219 -58.213  1.00  0.00     0.014 A 
HETATM   33  C   UNL     1     -36.287  37.825 -59.827  1.00  0.00     0.042 A 
HETATM   34  C   UNL     1     -38.947  37.442 -59.184  1.00  0.00     0.001 A 
HETATM   35  C   UNL     1     -38.596  37.862 -60.464  1.00  0.00     0.002 A 
HETATM   36  C   UNL     1     -37.258  38.067 -60.809  1.00  0.00     0.030 A 
HETATM   37  N   UNL     1     -34.920  37.942 -59.896  1.00  0.00    -0.365 N 
HETATM   38  H   UNL     1     -34.412  38.243 -60.714  1.00  0.00     0.165 HD
HETATM   39  C   UNL     1     -34.356  37.603 -58.696  1.00  0.00     0.097 A 
ENDBRANCH  29  30
ENDBRANCH   1  29
TORSDOF 7
ENDMDL
MODEL 7
REMARK VINA RESULT:      -8.1      2.198      5.697
REMARK  7 active torsions:
REMARK  status: ('A' for Active; 'I' for Inactive)
REMARK    1  A    between atoms: C_8  and  C_9 
REMARK    2  A    between atoms: C_9  and  C_10 
REMARK       I    between atoms: C_10  and  N_11 
REMARK    3  A    between atoms: N_11  and  C_27 
REMARK    4  A    between atoms: N_11  and  C_12 
REMARK    5  A    between atoms: C_12  and  C_13 
REMARK    6  A    between atoms: C_12  and  C_22 
REMARK       I    between atoms: C_13  and  N_14 
REMARK    7  A    between atoms: N_14  and  C_15 
ROOT
HETATM    1  C   UNL     1     -43.105  56.668 -51.871  1.00  0.00     0.229 C 
HETATM    2  N   UNL     1     -42.967  57.714 -52.785  1.00  0.00    -0.299 N 
HETATM    3  O   UNL     1     -42.996  56.870 -50.655  1.00  0.00    -0.273 OA
ENDROOT
BRANCH   2   4
HETATM    4  C   UNL     1     -43.411  57.667 -54.138  1.00  0.00     0.041 A 
HETATM    5  C   UNL     1     -42.473  57.546 -55.175  1.00  0.00     0.069 A 
HETATM    6  C   UNL     1     -42.929  57.597 -56.475  1.00  0.00     0.107 A 
HETATM    7  C   UNL     1     -44.260  57.762 -56.771  1.00  0.00     0.105 A 
HETATM    8  O   UNL     1     -42.156  57.511 -57.592  1.00  0.00    -0.323 OA
HETATM    9  O   UNL     1     -44.493  57.800 -58.111  1.00  0.00    -0.323 OA
HETATM   10  C   UNL     1     -45.211  57.883 -55.783  1.00  0.00     0.042 A 
HETATM   11  C   UNL     1     -43.150  57.672 -58.624  1.00  0.00     0.352 A 
HETATM   12  C   UNL     1     -44.778  57.844 -54.452  1.00  0.00     0.032 A 
ENDBRANCH   2   4
BRANCH   2  13
HETATM   13  C   UNL     1     -42.573  59.056 -52.282  1.00  0.00     0.225 C 
BRANCH  13  14
HETATM   14  C   UNL     1     -43.225  60.189 -53.110  1.00  0.00     0.246 C 
HETATM   15  N   UNL     1     -44.426  60.695 -52.663  1.00  0.00    -0.354 N 
HETATM   16  H   UNL     1     -44.513  60.587 -51.651  1.00  0.00     0.162 HD
HETATM   17  O   UNL     1     -42.603  60.693 -54.049  1.00  0.00    -0.271 OA
BRANCH  15  18
HETATM   18  C   UNL     1     -45.021  61.941 -53.154  1.00  0.00     0.084 C 
HETATM   19  C   UNL     1     -46.497  61.846 -53.582  1.00  0.00     0.025 C 
HETATM   20  C   UNL     1     -47.435  61.590 -52.407  1.00  0.00     0.002 C 
HETATM   21  C   UNL     1     -47.271  62.655 -51.328  1.00  0.00     0.000 C 
HETATM   22  C   UNL     1     -45.817  62.788 -50.885  1.00  0.00     0.002 C 
HETATM   23  C   UNL     1     -44.878  63.025 -52.071  1.00  0.00     0.025 C 
ENDBRANCH  15  18
ENDBRANCH  13  14
BRANCH  13  24
HETATM   24  C   UNL     1     -41.077  59.147 -52.000  1.00  0.00     0.015 A 
HETATM   25  S   UNL     1     -40.587  59.623 -50.405  1.00  0.00    -0.104 SA
HETATM   26  C   UNL     1     -38.932  59.425 -50.762  1.00  0.00     0.050 A 
HETATM   27  C   UNL     1     -38.731  59.019 -52.057  1.00  0.00     0.008 A 
HETATM   28  C   UNL     1     -39.958  58.868 -52.769  1.00  0.00     0.017 A 
ENDBRANCH  13  24
ENDBRANCH   2  13
BRANCH   1  29
HETATM   29  C   UNL     1     -43.295  55.238 -52.377  1.00  0.00     0.144 C 
BRANCH  29  30
HETATM   30  C   UNL     1     -42.234  54.294 -51.882  1.00  0.00    -0.021 A 
HETATM   31  C   UNL     1     -41.382  53.429 -52.650  1.00  0.00    -0.001 A 
HETATM   32  C   UNL     1     -41.247  53.135 -54.024  1.00  0.00     0.014 A 
HETATM   33  C   UNL     1     -40.530  52.778 -51.757  1.00  0.00     0.042 A 
HETATM   34  C   UNL     1     -40.296  52.200 -54.448  1.00  0.00     0.001 A 
HETATM   35  C   UNL     1     -39.464  51.569 -53.529  1.00  0.00     0.002 A 
HETATM   36  C   UNL     1     -39.561  51.850 -52.164  1.00  0.00     0.030 A 
HETATM   37  N   UNL     1     -40.838  53.231 -50.497  1.00  0.00    -0.365 N 
HETATM   38  H   UNL     1     -40.370  52.937 -49.653  1.00  0.00     0.165 HD
HETATM   39  C   UNL     1     -41.858  54.141 -50.559  1.00  0.00     0.097 A 
ENDBRANCH  29  30
ENDBRANCH   1  29
TORSDOF 7
ENDMDL
MODEL 8
REMARK VINA RESULT:      -7.9      2.428      4.540
REMARK  7 active torsions:
REMARK  status: ('A' for Active; 'I' for Inactive)
REMARK    1  A    between atoms: C_8  and  C_9 
REMARK    2  A    between atoms: C_9  and  C_10 
REMARK       I    between atoms: C_10  and  N_11 
REMARK    3  A    between atoms: N_11  and  C_27 
REMARK    4  A    between atoms: N_11  and  C_12 
REMARK    5  A    between atoms: C_12  and  C_13 
REMARK    6  A    between atoms: C_12  and  C_22 
REMARK       I    between atoms: C_13  and  N_14 
REMARK    7  A    between atoms: N_14  and  C_15 
ROOT
HETATM    1  C   UNL     1     -43.064  55.918 -54.740  1.00  0.00     0.229 C 
HETATM    2  N   UNL     1     -43.375  57.278 -54.682  1.00  0.00    -0.299 N 
HETATM    3  O   UNL     1     -42.556  55.426 -55.756  1.00  0.00    -0.273 OA
ENDROOT
BRANCH   2   4
HETATM    4  C   UNL     1     -43.622  57.998 -53.478  1.00  0.00     0.041 A 
HETATM    5  C   UNL     1     -44.912  58.485 -53.212  1.00  0.00     0.069 A 
HETATM    6  C   UNL     1     -45.096  59.258 -52.084  1.00  0.00     0.107 A 
HETATM    7  C   UNL     1     -44.061  59.554 -51.231  1.00  0.00     0.105 A 
HETATM    8  O   UNL     1     -46.270  59.819 -51.689  1.00  0.00    -0.323 OA
HETATM    9  O   UNL     1     -44.453  60.338 -50.191  1.00  0.00    -0.323 OA
HETATM   10  C   UNL     1     -42.783  59.093 -51.456  1.00  0.00     0.042 A 
HETATM   11  C   UNL     1     -45.849  60.528 -50.506  1.00  0.00     0.352 A 
HETATM   12  C   UNL     1     -42.562  58.314 -52.599  1.00  0.00     0.032 A 
ENDBRANCH   2   4
BRANCH   2  13
HETATM   13  C   UNL     1     -43.192  58.106 -55.902  1.00  0.00     0.225 C 
BRANCH  13  14
HETATM   14  C   UNL     1     -42.584  59.488 -55.567  1.00  0.00     0.246 C 
HETATM   15  N   UNL     1     -43.414  60.585 -55.643  1.00  0.00    -0.354 N 
HETATM   16  H   UNL     1     -44.386  60.319 -55.477  1.00  0.00     0.162 HD
HETATM   17  O   UNL     1     -41.436  59.557 -55.118  1.00  0.00    -0.271 OA
BRANCH  15  18
HETATM   18  C   UNL     1     -43.083  61.901 -55.089  1.00  0.00     0.084 C 
HETATM   19  C   UNL     1     -43.307  63.094 -56.035  1.00  0.00     0.025 C 
HETATM   20  C   UNL     1     -44.783  63.336 -56.337  1.00  0.00     0.002 C 
HETATM   21  C   UNL     1     -45.584  63.528 -55.054  1.00  0.00     0.000 C 
HETATM   22  C   UNL     1     -45.378  62.370 -54.082  1.00  0.00     0.002 C 
HETATM   23  C   UNL     1     -43.894  62.118 -53.799  1.00  0.00     0.025 C 
ENDBRANCH  15  18
ENDBRANCH  13  14
BRANCH  13  24
HETATM   24  C   UNL     1     -44.415  58.065 -56.813  1.00  0.00     0.015 A 
HETATM   25  S   UNL     1     -44.192  57.486 -58.433  1.00  0.00    -0.104 SA
HETATM   26  C   UNL     1     -45.853  57.613 -58.798  1.00  0.00     0.050 A 
HETATM   27  C   UNL     1     -46.577  58.091 -57.734  1.00  0.00     0.008 A 
HETATM   28  C   UNL     1     -45.753  58.358 -56.601  1.00  0.00     0.017 A 
ENDBRANCH  13  24
ENDBRANCH   2  13
BRANCH   1  29
HETATM   29  C   UNL     1     -43.442  55.002 -53.576  1.00  0.00     0.144 C 
BRANCH  29  30
HETATM   30  C   UNL     1     -42.246  54.458 -52.845  1.00  0.00    -0.021 A 
HETATM   31  C   UNL     1     -41.400  53.357 -53.214  1.00  0.00    -0.001 A 
HETATM   32  C   UNL     1     -41.384  52.434 -54.282  1.00  0.00     0.014 A 
HETATM   33  C   UNL     1     -40.396  53.256 -52.250  1.00  0.00     0.042 A 
HETATM   34  C   UNL     1     -40.396  51.444 -54.335  1.00  0.00     0.001 A 
HETATM   35  C   UNL     1     -39.412  51.372 -53.354  1.00  0.00     0.002 A 
HETATM   36  C   UNL     1     -39.390  52.282 -52.294  1.00  0.00     0.030 A 
HETATM   37  N   UNL     1     -40.612  54.257 -51.333  1.00  0.00    -0.365 N 
HETATM   38  H   UNL     1     -40.028  54.430 -50.527  1.00  0.00     0.165 HD
HETATM   39  C   UNL     1     -41.717  54.985 -51.679  1.00  0.00     0.097 A 
ENDBRANCH  29  30
ENDBRANCH   1  29
TORSDOF 7
ENDMDL
MODEL 9
REMARK VINA RESULT:      -7.9      2.452      5.425
REMARK  7 active torsions:
REMARK  status: ('A' for Active; 'I' for Inactive)
REMARK    1  A    between atoms: C_8  and  C_9 
REMARK    2  A    between atoms: C_9  and  C_10 
REMARK       I    between atoms: C_10  and  N_11 
REMARK    3  A    between atoms: N_11  and  C_27 
REMARK    4  A    between atoms: N_11  and  C_12 
REMARK    5  A    between atoms: C_12  and  C_13 
REMARK    6  A    between atoms: C_12  and  C_22 
REMARK       I    between atoms: C_13  and  N_14 
REMARK    7  A    between atoms: N_14  and  C_15 
ROOT
HETATM    1  C   UNL     1     -44.134  57.487 -53.334  1.00  0.00     0.229 C 
HETATM    2  N   UNL     1     -43.584  58.729 -53.658  1.00  0.00    -0.299 N 
HETATM    3  O   UNL     1     -44.447  57.217 -52.167  1.00  0.00    -0.273 OA
ENDROOT
BRANCH   2   4
HETATM    4  C   UNL     1     -43.520  59.264 -54.977  1.00  0.00     0.041 A 
HETATM    5  C   UNL     1     -42.271  59.488 -55.577  1.00  0.00     0.069 A 
HETATM    6  C   UNL     1     -42.243  60.092 -56.816  1.00  0.00     0.107 A 
HETATM    7  C   UNL     1     -43.393  60.472 -57.464  1.00  0.00     0.105 A 
HETATM    8  O   UNL     1     -41.123  60.395 -57.527  1.00  0.00    -0.323 OA
HETATM    9  O   UNL     1     -43.143  61.062 -58.664  1.00  0.00    -0.323 OA
HETATM   10  C   UNL     1     -44.637  60.268 -56.911  1.00  0.00     0.042 A 
HETATM   11  C   UNL     1     -41.699  61.037 -58.683  1.00  0.00     0.352 A 
HETATM   12  C   UNL     1     -44.697  59.665 -55.648  1.00  0.00     0.032 A 
ENDBRANCH   2   4
BRANCH   2  13
HETATM   13  C   UNL     1     -43.273  59.682 -52.561  1.00  0.00     0.225 C 
BRANCH  13  14
HETATM   14  C   UNL     1     -43.760  61.112 -52.893  1.00  0.00     0.246 C 
HETATM   15  N   UNL     1     -45.098  61.389 -52.710  1.00  0.00    -0.354 N 
HETATM   16  H   UNL     1     -45.498  60.789 -51.988  1.00  0.00     0.162 HD
HETATM   17  O   UNL     1     -42.936  61.987 -53.175  1.00  0.00    -0.271 OA
BRANCH  15  18
HETATM   18  C   UNL     1     -45.657  62.743 -52.700  1.00  0.00     0.084 C 
HETATM   19  C   UNL     1     -45.861  63.387 -54.082  1.00  0.00     0.025 C 
HETATM   20  C   UNL     1     -46.948  62.694 -54.899  1.00  0.00     0.002 C 
HETATM   21  C   UNL     1     -48.269  62.658 -54.140  1.00  0.00     0.000 C 
HETATM   22  C   UNL     1     -48.107  62.037 -52.756  1.00  0.00     0.002 C 
HETATM   23  C   UNL     1     -47.001  62.723 -51.948  1.00  0.00     0.025 C 
ENDBRANCH  15  18
ENDBRANCH  13  14
BRANCH  13  24
HETATM   24  C   UNL     1     -41.849  59.514 -52.041  1.00  0.00     0.015 A 
HETATM   25  S   UNL     1     -41.522  60.024 -50.416  1.00  0.00    -0.104 SA
HETATM   26  C   UNL     1     -39.904  59.490 -50.483  1.00  0.00     0.050 A 
HETATM   27  C   UNL     1     -39.594  58.943 -51.703  1.00  0.00     0.008 A 
HETATM   28  C   UNL     1     -40.705  58.966 -52.598  1.00  0.00     0.017 A 
ENDBRANCH  13  24
ENDBRANCH   2  13
BRANCH   1  29
HETATM   29  C   UNL     1     -44.262  56.410 -54.410  1.00  0.00     0.144 C 
BRANCH  29  30
HETATM   30  C   UNL     1     -42.970  55.689 -54.677  1.00  0.00    -0.021 A 
HETATM   31  C   UNL     1     -42.266  54.774 -53.822  1.00  0.00    -0.001 A 
HETATM   32  C   UNL     1     -42.478  54.272 -52.519  1.00  0.00     0.014 A 
HETATM   33  C   UNL     1     -41.140  54.330 -54.517  1.00  0.00     0.042 A 
HETATM   34  C   UNL     1     -41.561  53.376 -51.958  1.00  0.00     0.001 A 
HETATM   35  C   UNL     1     -40.448  52.957 -52.680  1.00  0.00     0.002 A 
HETATM   36  C   UNL     1     -40.219  53.422 -53.978  1.00  0.00     0.030 A 
HETATM   37  N   UNL     1     -41.157  54.939 -55.748  1.00  0.00    -0.365 N 
HETATM   38  H   UNL     1     -40.464  54.793 -56.468  1.00  0.00     0.165 HD
HETATM   39  C   UNL     1     -42.249  55.756 -55.857  1.00  0.00     0.097 A 
ENDBRANCH  29  30
ENDBRANCH   1  29
TORSDOF 7
ENDMDL
MODEL 10
REMARK VINA RESULT:      -7.9      2.282      4.665
REMARK  7 active torsions:
REMARK  status: ('A' for Active; 'I' for Inactive)
REMARK    1  A    between atoms: C_8  and  C_9 
REMARK    2  A    between atoms: C_9  and  C_10 
REMARK       I    between atoms: C_10  and  N_11 
REMARK    3  A    between atoms: N_11  and  C_27 
REMARK    4  A    between atoms: N_11  and  C_12 
REMARK    5  A    between atoms: C_12  and  C_13 
REMARK    6  A    between atoms: C_12  and  C_22 
REMARK       I    between atoms: C_13  and  N_14 
REMARK    7  A    between atoms: N_14  and  C_15 
ROOT
HETATM    1  C   UNL     1     -42.456  58.438 -53.547  1.00  0.00     0.229 C 
HETATM    2  N   UNL     1     -43.144  58.631 -54.746  1.00  0.00    -0.299 N 
HETATM    3  O   UNL     1     -42.912  58.864 -52.478  1.00  0.00    -0.273 OA
ENDROOT
BRANCH   2   4
HETATM    4  C   UNL     1     -42.900  57.899 -55.944  1.00  0.00     0.041 A 
HETATM    5  C   UNL     1     -42.408  58.564 -57.077  1.00  0.00     0.069 A 
HETATM    6  C   UNL     1     -42.271  57.845 -58.246  1.00  0.00     0.107 A 
HETATM    7  C   UNL     1     -42.601  56.513 -58.321  1.00  0.00     0.105 A 
HETATM    8  O   UNL     1     -41.826  58.336 -59.434  1.00  0.00    -0.323 OA
HETATM    9  O   UNL     1     -42.405  55.999 -59.565  1.00  0.00    -0.323 OA
HETATM   10  C   UNL     1     -43.084  55.825 -57.231  1.00  0.00     0.042 A 
HETATM   11  C   UNL     1     -41.943  57.169 -60.273  1.00  0.00     0.352 A 
HETATM   12  C   UNL     1     -43.244  56.531 -56.032  1.00  0.00     0.032 A 
ENDBRANCH   2   4
BRANCH   2  13
HETATM   13  C   UNL     1     -44.379  59.458 -54.737  1.00  0.00     0.225 C 
BRANCH  13  14
HETATM   14  C   UNL     1     -45.546  58.747 -55.463  1.00  0.00     0.246 C 
HETATM   15  N   UNL     1     -46.028  59.329 -56.615  1.00  0.00    -0.354 N 
HETATM   16  H   UNL     1     -45.303  59.881 -57.076  1.00  0.00     0.162 HD
HETATM   17  O   UNL     1     -45.915  57.634 -55.079  1.00  0.00    -0.271 OA
BRANCH  15  18
HETATM   18  C   UNL     1     -46.915  58.650 -57.564  1.00  0.00     0.084 C 
HETATM   19  C   UNL     1     -47.936  59.552 -58.279  1.00  0.00     0.025 C 
HETATM   20  C   UNL     1     -47.278  60.536 -59.242  1.00  0.00     0.002 C 
HETATM   21  C   UNL     1     -46.413  59.810 -60.267  1.00  0.00     0.000 C 
HETATM   22  C   UNL     1     -45.394  58.894 -59.596  1.00  0.00     0.002 C 
HETATM   23  C   UNL     1     -46.058  57.922 -58.616  1.00  0.00     0.025 C 
ENDBRANCH  15  18
ENDBRANCH  13  14
BRANCH  13  24
HETATM   24  C   UNL     1     -44.098  60.914 -55.091  1.00  0.00     0.015 A 
HETATM   25  S   UNL     1     -44.294  62.099 -53.839  1.00  0.00    -0.104 SA
HETATM   26  C   UNL     1     -43.758  63.370 -54.839  1.00  0.00     0.050 A 
HETATM   27  C   UNL     1     -43.442  62.933 -56.101  1.00  0.00     0.008 A 
HETATM   28  C   UNL     1     -43.645  61.528 -56.248  1.00  0.00     0.017 A 
ENDBRANCH  13  24
ENDBRANCH   2  13
BRANCH   1  29
HETATM   29  C   UNL     1     -41.077  57.779 -53.561  1.00  0.00     0.144 C 
BRANCH  29  30
HETATM   30  C   UNL     1     -41.075  56.407 -52.945  1.00  0.00    -0.021 A 
HETATM   31  C   UNL     1     -40.746  55.153 -53.563  1.00  0.00    -0.001 A 
HETATM   32  C   UNL     1     -40.365  54.758 -54.864  1.00  0.00     0.014 A 
HETATM   33  C   UNL     1     -40.846  54.163 -52.584  1.00  0.00     0.042 A 
HETATM   34  C   UNL     1     -40.124  53.408 -55.142  1.00  0.00     0.001 A 
HETATM   35  C   UNL     1     -40.236  52.448 -54.141  1.00  0.00     0.002 A 
HETATM   36  C   UNL     1     -40.594  52.808 -52.840  1.00  0.00     0.030 A 
HETATM   37  N   UNL     1     -41.213  54.784 -51.415  1.00  0.00    -0.365 N 
HETATM   38  H   UNL     1     -41.349  54.310 -50.534  1.00  0.00     0.165 HD
HETATM   39  C   UNL     1     -41.352  56.130 -51.618  1.00  0.00     0.097 A 
ENDBRANCH  29  30
ENDBRANCH   1  29
TORSDOF 7
ENDMDL
