MODEL 1
REMARK VINA RESULT:      -8.8      0.000      0.000
REMARK  6 active torsions:
REMARK  status: ('A' for Active; 'I' for Inactive)
REMARK       I    between atoms: N_2  and  C_3 
REMARK    1  A    between atoms: N_2  and  C_15 
REMARK       I    between atoms: C_3  and  N_4 
REMARK    2  A    between atoms: N_4  and  C_5 
REMARK    3  A    between atoms: C_15  and  C_16 
REMARK    4  A    between atoms: C_16  and  C_17 
REMARK    5  A    between atoms: C_17  and  C_18 
REMARK    6  A    between atoms: C_22  and  C_23 
ROOT
HETATM    1  C   UNL     1     -43.756  57.312 -51.317  1.00  0.00     0.154 C 
HETATM    2  N   UNL     1     -42.416  56.780 -51.540  1.00  0.00    -0.338 N 
HETATM    3  C   UNL     1     -42.324  55.488 -52.063  1.00  0.00     0.322 C 
HETATM    4  N   UNL     1     -41.055  54.952 -52.076  1.00  0.00    -0.309 N 
HETATM    5  O   UNL     1     -43.324  54.900 -52.469  1.00  0.00    -0.247 OA
HETATM    6  H   UNL     1     -40.345  55.460 -51.580  1.00  0.00     0.170 HD
ENDROOT
BRANCH   2   7
HETATM    7  C   UNL     1     -41.317  57.595 -51.014  1.00  0.00     0.127 C 
BRANCH   7   8
HETATM    8  C   UNL     1     -40.629  58.497 -52.048  1.00  0.00     0.026 C 
BRANCH   8   9
HETATM    9  C   UNL     1     -41.524  59.543 -52.717  1.00  0.00     0.060 C 
BRANCH   9  10
HETATM   10  C   UNL     1     -41.787  59.296 -54.161  1.00  0.00     0.030 A 
HETATM   11  N   UNL     1     -41.848  60.321 -55.062  1.00  0.00    -0.282 N 
HETATM   12  H   UNL     1     -41.739  61.314 -54.886  1.00  0.00     0.189 HD
HETATM   13  N   UNL     1     -42.041  59.922 -56.323  1.00  0.00    -0.174 NA
HETATM   14  C   UNL     1     -42.166  58.585 -56.251  1.00  0.00     0.089 A 
HETATM   15  C   UNL     1     -42.027  58.158 -54.899  1.00  0.00     0.060 A 
BRANCH  14  16
HETATM   16  C   UNL     1     -42.392  57.770 -57.452  1.00  0.00    -0.006 A 
HETATM   17  C   UNL     1     -41.904  58.195 -58.699  1.00  0.00     0.014 A 
HETATM   18  C   UNL     1     -42.101  57.426 -59.848  1.00  0.00     0.001 A 
HETATM   19  C   UNL     1     -42.791  56.220 -59.768  1.00  0.00     0.000 A 
HETATM   20  C   UNL     1     -43.287  55.784 -58.541  1.00  0.00     0.001 A 
HETATM   21  C   UNL     1     -43.088  56.554 -57.389  1.00  0.00     0.014 A 
ENDBRANCH  14  16
ENDBRANCH   9  10
ENDBRANCH   8   9
ENDBRANCH   7   8
ENDBRANCH   2   7
BRANCH   4  22
HETATM   22  C   UNL     1     -40.651  53.697 -52.585  1.00  0.00     0.036 A 
HETATM   23  C   UNL     1     -40.330  52.597 -51.785  1.00  0.00     0.039 A 
HETATM   24  C   UNL     1     -39.938  51.415 -52.398  1.00  0.00    -0.024 A 
HETATM   25  C   UNL     1     -39.863  51.304 -53.776  1.00  0.00    -0.026 A 
HETATM   26  C   UNL     1     -39.520  50.134 -51.778  1.00  0.00     0.207 C 
HETATM   27  C   UNL     1     -39.389  49.945 -54.132  1.00  0.00     0.207 C 
HETATM   28  C   UNL     1     -40.178  52.374 -54.592  1.00  0.00     0.012 A 
HETATM   29  O   UNL     1     -39.407  49.210 -52.886  1.00  0.00    -0.382 OA
HETATM   30  C   UNL     1     -40.577  53.571 -53.989  1.00  0.00     0.030 A 
ENDBRANCH   4  22
TORSDOF 6
ENDMDL
MODEL 2
REMARK VINA RESULT:      -8.6      2.636      7.021
REMARK  6 active torsions:
REMARK  status: ('A' for Active; 'I' for Inactive)
REMARK       I    between atoms: N_2  and  C_3 
REMARK    1  A    between atoms: N_2  and  C_15 
REMARK       I    between atoms: C_3  and  N_4 
REMARK    2  A    between atoms: N_4  and  C_5 
REMARK    3  A    between atoms: C_15  and  C_16 
REMARK    4  A    between atoms: C_16  and  C_17 
REMARK    5  A    between atoms: C_17  and  C_18 
REMARK    6  A    between atoms: C_22  and  C_23 
ROOT
HETATM    1  C   UNL     1     -42.522  59.919 -51.961  1.00  0.00     0.154 C 
HETATM    2  N   UNL     1     -41.834  58.982 -52.843  1.00  0.00    -0.338 N 
HETATM    3  C   UNL     1     -42.483  58.635 -54.031  1.00  0.00     0.322 C 
HETATM    4  N   UNL     1     -41.896  57.608 -54.737  1.00  0.00    -0.309 N 
HETATM    5  O   UNL     1     -43.502  59.221 -54.387  1.00  0.00    -0.247 OA
HETATM    6  H   UNL     1     -41.160  57.105 -54.276  1.00  0.00     0.170 HD
ENDROOT
BRANCH   2   7
HETATM    7  C   UNL     1     -40.623  58.369 -52.292  1.00  0.00     0.127 C 
BRANCH   7   8
HETATM    8  C   UNL     1     -40.703  58.005 -50.802  1.00  0.00     0.026 C 
BRANCH   8   9
HETATM    9  C   UNL     1     -41.592  56.809 -50.458  1.00  0.00     0.060 C 
BRANCH   9  10
HETATM   10  C   UNL     1     -40.988  55.483 -50.762  1.00  0.00     0.030 A 
HETATM   11  N   UNL     1     -40.106  54.887 -49.908  1.00  0.00    -0.282 N 
HETATM   12  H   UNL     1     -39.760  55.238 -49.020  1.00  0.00     0.189 HD
HETATM   13  N   UNL     1     -39.697  53.678 -50.308  1.00  0.00    -0.174 NA
HETATM   14  C   UNL     1     -40.289  53.487 -51.500  1.00  0.00     0.089 A 
HETATM   15  C   UNL     1     -41.099  54.614 -51.825  1.00  0.00     0.060 A 
BRANCH  14  16
HETATM   16  C   UNL     1     -40.084  52.253 -52.269  1.00  0.00    -0.006 A 
HETATM   17  C   UNL     1     -39.686  51.072 -51.621  1.00  0.00     0.014 A 
HETATM   18  C   UNL     1     -39.497  49.888 -52.337  1.00  0.00     0.001 A 
HETATM   19  C   UNL     1     -39.702  49.866 -53.713  1.00  0.00     0.000 A 
HETATM   20  C   UNL     1     -40.094  51.028 -54.374  1.00  0.00     0.001 A 
HETATM   21  C   UNL     1     -40.284  52.215 -53.657  1.00  0.00     0.014 A 
ENDBRANCH  14  16
ENDBRANCH   9  10
ENDBRANCH   8   9
ENDBRANCH   7   8
ENDBRANCH   2   7
BRANCH   4  22
HETATM   22  C   UNL     1     -42.296  57.079 -55.986  1.00  0.00     0.036 A 
HETATM   23  C   UNL     1     -42.308  57.810 -57.176  1.00  0.00     0.039 A 
HETATM   24  C   UNL     1     -42.727  57.184 -58.342  1.00  0.00    -0.024 A 
HETATM   25  C   UNL     1     -43.130  55.860 -58.349  1.00  0.00    -0.026 A 
HETATM   26  C   UNL     1     -42.860  57.746 -59.709  1.00  0.00     0.207 C 
HETATM   27  C   UNL     1     -43.550  55.482 -59.720  1.00  0.00     0.207 C 
HETATM   28  C   UNL     1     -43.125  55.111 -57.187  1.00  0.00     0.012 A 
HETATM   29  O   UNL     1     -43.157  56.603 -60.547  1.00  0.00    -0.382 OA
HETATM   30  C   UNL     1     -42.701  55.727 -56.005  1.00  0.00     0.030 A 
ENDBRANCH   4  22
TORSDOF 6
ENDMDL
MODEL 3
REMARK VINA RESULT:      -8.4      1.500      2.131
REMARK  6 active torsions:
REMARK  status: ('A' for Active; 'I' for Inactive)
REMARK       I    between atoms: N_2  and  C_3 
REMARK    1  A    between atoms: N_2  and  C_15 
REMARK       I    between atoms: C_3  and  N_4 
REMARK    2  A    between atoms: N_4  and  C_5 
REMARK    3  A    between atoms: C_15  and  C_16 
REMARK    4  A    between atoms: C_16  and  C_17 
REMARK    5  A    between atoms: C_17  and  C_18 
REMARK    6  A    between atoms: C_22  and  C_23 
ROOT
HETATM    1  C   UNL     1     -43.718  57.133 -51.254  1.00  0.00     0.154 C 
HETATM    2  N   UNL     1     -42.415  56.603 -51.643  1.00  0.00    -0.338 N 
HETATM    3  C   UNL     1     -42.301  55.215 -51.752  1.00  0.00     0.322 C 
HETATM    4  N   UNL     1     -41.017  54.748 -51.929  1.00  0.00    -0.309 N 
HETATM    5  O   UNL     1     -43.293  54.494 -51.686  1.00  0.00    -0.247 OA
HETATM    6  H   UNL     1     -40.274  55.413 -51.813  1.00  0.00     0.170 HD
ENDROOT
BRANCH   2   7
HETATM    7  C   UNL     1     -41.326  57.582 -51.694  1.00  0.00     0.127 C 
BRANCH   7   8
HETATM    8  C   UNL     1     -40.784  57.874 -53.101  1.00  0.00     0.026 C 
BRANCH   8   9
HETATM    9  C   UNL     1     -41.777  58.511 -54.075  1.00  0.00     0.060 C 
BRANCH   9  10
HETATM   10  C   UNL     1     -42.178  57.634 -55.209  1.00  0.00     0.030 A 
HETATM   11  N   UNL     1     -41.900  56.297 -55.211  1.00  0.00    -0.282 N 
HETATM   12  H   UNL     1     -41.414  55.758 -54.500  1.00  0.00     0.189 HD
HETATM   13  N   UNL     1     -42.373  55.647 -56.279  1.00  0.00    -0.174 NA
HETATM   14  C   UNL     1     -42.941  56.597 -57.042  1.00  0.00     0.089 A 
HETATM   15  C   UNL     1     -42.821  57.866 -56.405  1.00  0.00     0.060 A 
BRANCH  14  16
HETATM   16  C   UNL     1     -43.583  56.270 -58.322  1.00  0.00    -0.006 A 
HETATM   17  C   UNL     1     -44.031  57.295 -59.172  1.00  0.00     0.014 A 
HETATM   18  C   UNL     1     -44.634  57.000 -60.397  1.00  0.00     0.001 A 
HETATM   19  C   UNL     1     -44.800  55.676 -60.790  1.00  0.00     0.000 A 
HETATM   20  C   UNL     1     -44.365  54.646 -59.959  1.00  0.00     0.001 A 
HETATM   21  C   UNL     1     -43.760  54.941 -58.732  1.00  0.00     0.014 A 
ENDBRANCH  14  16
ENDBRANCH   9  10
ENDBRANCH   8   9
ENDBRANCH   7   8
ENDBRANCH   2   7
BRANCH   4  22
HETATM   22  C   UNL     1     -40.602  53.410 -52.116  1.00  0.00     0.036 A 
HETATM   23  C   UNL     1     -40.531  52.782 -53.362  1.00  0.00     0.039 A 
HETATM   24  C   UNL     1     -40.115  51.459 -53.423  1.00  0.00    -0.024 A 
HETATM   25  C   UNL     1     -39.770  50.755 -52.282  1.00  0.00    -0.026 A 
HETATM   26  C   UNL     1     -39.989  50.572 -54.606  1.00  0.00     0.207 C 
HETATM   27  C   UNL     1     -39.401  49.368 -52.655  1.00  0.00     0.207 C 
HETATM   28  C   UNL     1     -39.827  51.351 -51.037  1.00  0.00     0.012 A 
HETATM   29  O   UNL     1     -39.342  49.379 -54.101  1.00  0.00    -0.382 OA
HETATM   30  C   UNL     1     -40.242  52.685 -50.960  1.00  0.00     0.030 A 
ENDBRANCH   4  22
TORSDOF 6
ENDMDL
MODEL 4
REMARK VINA RESULT:      -8.3      2.350      6.982
REMARK  6 active torsions:
REMARK  status: ('A' for Active; 'I' for Inactive)
REMARK       I    between atoms: N_2  and  C_3 
REMARK    1  A    between atoms: N_2  and  C_15 
REMARK       I    between atoms: C_3  and  N_4 
REMARK    2  A    between atoms: N_4  and  C_5 
REMARK    3  A    between atoms: C_15  and  C_16 
REMARK    4  A    between atoms: C_16  and  C_17 
REMARK    5  A    between atoms: C_17  and  C_18 
REMARK    6  A    between atoms: C_22  and  C_23 
ROOT
HETATM    1  C   UNL     1     -41.399  59.505 -51.424  1.00  0.00     0.154 C 
HETATM    2  N   UNL     1     -42.362  59.195 -52.475  1.00  0.00    -0.338 N 
HETATM    3  C   UNL     1     -41.857  58.997 -53.762  1.00  0.00     0.322 C 
HETATM    4  N   UNL     1     -42.807  58.900 -54.754  1.00  0.00    -0.309 N 
HETATM    5  O   UNL     1     -40.646  58.923 -53.959  1.00  0.00    -0.247 OA
HETATM    6  H   UNL     1     -43.751  59.128 -54.499  1.00  0.00     0.170 HD
ENDROOT
BRANCH   2   7
HETATM    7  C   UNL     1     -43.773  59.311 -52.093  1.00  0.00     0.127 C 
BRANCH   7   8
HETATM    8  C   UNL     1     -44.570  58.001 -52.161  1.00  0.00     0.026 C 
BRANCH   8   9
HETATM    9  C   UNL     1     -44.366  57.037 -50.990  1.00  0.00     0.060 C 
BRANCH   9  10
HETATM   10  C   UNL     1     -43.219  56.103 -51.153  1.00  0.00     0.030 A 
HETATM   11  N   UNL     1     -42.156  56.121 -50.295  1.00  0.00    -0.282 N 
HETATM   12  H   UNL     1     -42.008  56.728 -49.495  1.00  0.00     0.189 HD
HETATM   13  N   UNL     1     -41.237  55.184 -50.553  1.00  0.00    -0.174 NA
HETATM   14  C   UNL     1     -41.680  54.556 -51.656  1.00  0.00     0.089 A 
HETATM   15  C   UNL     1     -42.920  55.121 -52.071  1.00  0.00     0.060 A 
BRANCH  14  16
HETATM   16  C   UNL     1     -40.931  53.445 -52.258  1.00  0.00    -0.006 A 
HETATM   17  C   UNL     1     -40.975  53.230 -53.645  1.00  0.00     0.014 A 
HETATM   18  C   UNL     1     -40.259  52.185 -54.234  1.00  0.00     0.001 A 
HETATM   19  C   UNL     1     -39.490  51.337 -53.444  1.00  0.00     0.000 A 
HETATM   20  C   UNL     1     -39.437  51.532 -52.065  1.00  0.00     0.001 A 
HETATM   21  C   UNL     1     -40.152  52.580 -51.475  1.00  0.00     0.014 A 
ENDBRANCH  14  16
ENDBRANCH   9  10
ENDBRANCH   8   9
ENDBRANCH   7   8
ENDBRANCH   2   7
BRANCH   4  22
HETATM   22  C   UNL     1     -42.599  58.653 -56.130  1.00  0.00     0.036 A 
HETATM   23  C   UNL     1     -42.887  57.438 -56.758  1.00  0.00     0.039 A 
HETATM   24  C   UNL     1     -42.634  57.310 -58.117  1.00  0.00    -0.024 A 
HETATM   25  C   UNL     1     -42.107  58.354 -58.857  1.00  0.00    -0.026 A 
HETATM   26  C   UNL     1     -42.819  56.128 -58.995  1.00  0.00     0.207 C 
HETATM   27  C   UNL     1     -41.918  57.913 -60.260  1.00  0.00     0.207 C 
HETATM   28  C   UNL     1     -41.816  59.568 -58.264  1.00  0.00     0.012 A 
HETATM   29  O   UNL     1     -42.572  56.624 -60.332  1.00  0.00    -0.382 OA
HETATM   30  C   UNL     1     -42.069  59.714 -56.896  1.00  0.00     0.030 A 
ENDBRANCH   4  22
TORSDOF 6
ENDMDL
MODEL 5
REMARK VINA RESULT:      -7.9      3.485      4.533
REMARK  6 active torsions:
REMARK  status: ('A' for Active; 'I' for Inactive)
REMARK       I    between atoms: N_2  and  C_3 
REMARK    1  A    between atoms: N_2  and  C_15 
REMARK       I    between atoms: C_3  and  N_4 
REMARK    2  A    between atoms: N_4  and  C_5 
REMARK    3  A    between atoms: C_15  and  C_16 
REMARK    4  A    between atoms: C_16  and  C_17 
REMARK    5  A    between atoms: C_17  and  C_18 
REMARK    6  A    between atoms: C_22  and  C_23 
ROOT
HETATM    1  C   UNL     1     -44.486  56.929 -54.157  1.00  0.00     0.154 C 
HETATM    2  N   UNL     1     -43.280  56.241 -54.607  1.00  0.00    -0.338 N 
HETATM    3  C   UNL     1     -42.905  55.091 -53.907  1.00  0.00     0.322 C 
HETATM    4  N   UNL     1     -41.666  54.587 -54.235  1.00  0.00    -0.309 N 
HETATM    5  O   UNL     1     -43.650  54.596 -53.065  1.00  0.00    -0.247 OA
HETATM    6  H   UNL     1     -41.086  55.159 -54.821  1.00  0.00     0.170 HD
ENDROOT
BRANCH   2   7
HETATM    7  C   UNL     1     -42.496  56.944 -55.626  1.00  0.00     0.127 C 
BRANCH   7   8
HETATM    8  C   UNL     1     -42.662  56.405 -57.054  1.00  0.00     0.026 C 
BRANCH   8   9
HETATM    9  C   UNL     1     -42.898  57.459 -58.139  1.00  0.00     0.060 C 
BRANCH   9  10
HETATM   10  C   UNL     1     -44.293  57.510 -58.656  1.00  0.00     0.030 A 
HETATM   11  N   UNL     1     -45.367  57.507 -57.813  1.00  0.00    -0.282 N 
HETATM   12  H   UNL     1     -45.367  57.466 -56.799  1.00  0.00     0.189 HD
HETATM   13  N   UNL     1     -46.545  57.608 -58.438  1.00  0.00    -0.174 NA
HETATM   14  C   UNL     1     -46.244  57.625 -59.748  1.00  0.00     0.089 A 
HETATM   15  C   UNL     1     -44.832  57.547 -59.923  1.00  0.00     0.060 A 
BRANCH  14  16
HETATM   16  C   UNL     1     -47.290  57.729 -60.774  1.00  0.00    -0.006 A 
HETATM   17  C   UNL     1     -47.891  58.969 -61.050  1.00  0.00     0.014 A 
HETATM   18  C   UNL     1     -48.879  59.087 -62.030  1.00  0.00     0.001 A 
HETATM   19  C   UNL     1     -49.284  57.966 -62.747  1.00  0.00     0.000 A 
HETATM   20  C   UNL     1     -48.704  56.727 -62.485  1.00  0.00     0.001 A 
HETATM   21  C   UNL     1     -47.713  56.609 -61.504  1.00  0.00     0.014 A 
ENDBRANCH  14  16
ENDBRANCH   9  10
ENDBRANCH   8   9
ENDBRANCH   7   8
ENDBRANCH   2   7
BRANCH   4  22
HETATM   22  C   UNL     1     -41.048  53.419 -53.733  1.00  0.00     0.036 A 
HETATM   23  C   UNL     1     -40.892  52.241 -54.467  1.00  0.00     0.039 A 
HETATM   24  C   UNL     1     -40.274  51.153 -53.866  1.00  0.00    -0.024 A 
HETATM   25  C   UNL     1     -39.811  51.212 -52.563  1.00  0.00    -0.026 A 
HETATM   26  C   UNL     1     -40.022  49.798 -54.416  1.00  0.00     0.207 C 
HETATM   27  C   UNL     1     -39.232  49.900 -52.188  1.00  0.00     0.207 C 
HETATM   28  C   UNL     1     -39.949  52.365 -51.813  1.00  0.00     0.012 A 
HETATM   29  O   UNL     1     -39.190  49.149 -53.425  1.00  0.00    -0.382 OA
HETATM   30  C   UNL     1     -40.567  53.471 -52.407  1.00  0.00     0.030 A 
ENDBRANCH   4  22
TORSDOF 6
ENDMDL
MODEL 6
REMARK VINA RESULT:      -7.9      1.650      2.189
REMARK  6 active torsions:
REMARK  status: ('A' for Active; 'I' for Inactive)
REMARK       I    between atoms: N_2  and  C_3 
REMARK    1  A    between atoms: N_2  and  C_15 
REMARK       I    between atoms: C_3  and  N_4 
REMARK    2  A    between atoms: N_4  and  C_5 
REMARK    3  A    between atoms: C_15  and  C_16 
REMARK    4  A    between atoms: C_16  and  C_17 
REMARK    5  A    between atoms: C_17  and  C_18 
REMARK    6  A    between atoms: C_22  and  C_23 
ROOT
HETATM    1  C   UNL     1     -44.751  57.929 -53.500  1.00  0.00     0.154 C 
HETATM    2  N   UNL     1     -43.344  57.552 -53.413  1.00  0.00    -0.338 N 
HETATM    3  C   UNL     1     -43.045  56.189 -53.490  1.00  0.00     0.322 C 
HETATM    4  N   UNL     1     -41.737  55.862 -53.210  1.00  0.00    -0.309 N 
HETATM    5  O   UNL     1     -43.912  55.370 -53.786  1.00  0.00    -0.247 OA
HETATM    6  H   UNL     1     -41.160  56.592 -52.833  1.00  0.00     0.170 HD
ENDROOT
BRANCH   2   7
HETATM    7  C   UNL     1     -42.420  58.636 -53.066  1.00  0.00     0.127 C 
BRANCH   7   8
HETATM    8  C   UNL     1     -41.480  59.071 -54.199  1.00  0.00     0.026 C 
BRANCH   8   9
HETATM    9  C   UNL     1     -42.113  59.934 -55.293  1.00  0.00     0.060 C 
BRANCH   9  10
HETATM   10  C   UNL     1     -42.469  59.194 -56.534  1.00  0.00     0.030 A 
HETATM   11  N   UNL     1     -41.773  59.371 -57.696  1.00  0.00    -0.282 N 
HETATM   12  H   UNL     1     -40.984  59.987 -57.864  1.00  0.00     0.189 HD
HETATM   13  N   UNL     1     -42.190  58.593 -58.700  1.00  0.00    -0.174 NA
HETATM   14  C   UNL     1     -43.237  57.913 -58.202  1.00  0.00     0.089 A 
HETATM   15  C   UNL     1     -43.452  58.279 -56.842  1.00  0.00     0.060 A 
BRANCH  14  16
HETATM   16  C   UNL     1     -43.976  56.939 -59.017  1.00  0.00    -0.006 A 
HETATM   17  C   UNL     1     -45.184  57.303 -59.634  1.00  0.00     0.014 A 
HETATM   18  C   UNL     1     -45.893  56.392 -60.421  1.00  0.00     0.001 A 
HETATM   19  C   UNL     1     -45.405  55.101 -60.601  1.00  0.00     0.000 A 
HETATM   20  C   UNL     1     -44.210  54.720 -59.993  1.00  0.00     0.001 A 
HETATM   21  C   UNL     1     -43.499  55.633 -59.206  1.00  0.00     0.014 A 
ENDBRANCH  14  16
ENDBRANCH   9  10
ENDBRANCH   8   9
ENDBRANCH   7   8
ENDBRANCH   2   7
BRANCH   4  22
HETATM   22  C   UNL     1     -41.137  54.583 -53.255  1.00  0.00     0.036 A 
HETATM   23  C   UNL     1     -40.857  53.811 -52.125  1.00  0.00     0.039 A 
HETATM   24  C   UNL     1     -40.259  52.570 -52.292  1.00  0.00    -0.024 A 
HETATM   25  C   UNL     1     -39.937  52.085 -53.548  1.00  0.00    -0.026 A 
HETATM   26  C   UNL     1     -39.836  51.589 -51.262  1.00  0.00     0.207 C 
HETATM   27  C   UNL     1     -39.285  50.760 -53.409  1.00  0.00     0.207 C 
HETATM   28  C   UNL     1     -40.205  52.824 -54.684  1.00  0.00     0.012 A 
HETATM   29  O   UNL     1     -39.449  50.414 -52.013  1.00  0.00    -0.382 OA
HETATM   30  C   UNL     1     -40.811  54.076 -54.532  1.00  0.00     0.030 A 
ENDBRANCH   4  22
TORSDOF 6
ENDMDL
MODEL 7
REMARK VINA RESULT:      -7.9      3.002      6.224
REMARK  6 active torsions:
REMARK  status: ('A' for Active; 'I' for Inactive)
REMARK       I    between atoms: N_2  and  C_3 
REMARK    1  A    between atoms: N_2  and  C_15 
REMARK       I    between atoms: C_3  and  N_4 
REMARK    2  A    between atoms: N_4  and  C_5 
REMARK    3  A    between atoms: C_15  and  C_16 
REMARK    4  A    between atoms: C_16  and  C_17 
REMARK    5  A    between atoms: C_17  and  C_18 
REMARK    6  A    between atoms: C_22  and  C_23 
ROOT
HETATM    1  C   UNL     1     -40.610  51.972 -49.835  1.00  0.00     0.154 C 
HETATM    2  N   UNL     1     -40.458  53.158 -50.671  1.00  0.00    -0.338 N 
HETATM    3  C   UNL     1     -41.259  54.261 -50.362  1.00  0.00     0.322 C 
HETATM    4  N   UNL     1     -41.227  55.282 -51.285  1.00  0.00    -0.309 N 
HETATM    5  O   UNL     1     -41.932  54.282 -49.334  1.00  0.00    -0.247 OA
HETATM    6  H   UNL     1     -40.764  55.090 -52.155  1.00  0.00     0.170 HD
ENDROOT
BRANCH   2   7
HETATM    7  C   UNL     1     -39.613  52.991 -51.857  1.00  0.00     0.127 C 
BRANCH   7   8
HETATM    8  C   UNL     1     -40.239  52.154 -52.982  1.00  0.00     0.026 C 
BRANCH   8   9
HETATM    9  C   UNL     1     -40.230  52.796 -54.371  1.00  0.00     0.060 C 
BRANCH   9  10
HETATM   10  C   UNL     1     -41.171  53.938 -54.528  1.00  0.00     0.030 A 
HETATM   11  N   UNL     1     -42.515  53.743 -54.671  1.00  0.00    -0.282 N 
HETATM   12  H   UNL     1     -43.019  52.862 -54.696  1.00  0.00     0.189 HD
HETATM   13  N   UNL     1     -43.221  54.875 -54.750  1.00  0.00    -0.174 NA
HETATM   14  C   UNL     1     -42.307  55.860 -54.711  1.00  0.00     0.089 A 
HETATM   15  C   UNL     1     -41.001  55.304 -54.588  1.00  0.00     0.060 A 
BRANCH  14  16
HETATM   16  C   UNL     1     -42.700  57.274 -54.774  1.00  0.00    -0.006 A 
HETATM   17  C   UNL     1     -41.735  58.284 -54.633  1.00  0.00     0.014 A 
HETATM   18  C   UNL     1     -42.091  59.633 -54.701  1.00  0.00     0.001 A 
HETATM   19  C   UNL     1     -43.419  59.992 -54.908  1.00  0.00     0.000 A 
HETATM   20  C   UNL     1     -44.392  59.004 -55.046  1.00  0.00     0.001 A 
HETATM   21  C   UNL     1     -44.035  57.653 -54.979  1.00  0.00     0.014 A 
ENDBRANCH  14  16
ENDBRANCH   9  10
ENDBRANCH   8   9
ENDBRANCH   7   8
ENDBRANCH   2   7
BRANCH   4  22
HETATM   22  C   UNL     1     -41.889  56.530 -51.218  1.00  0.00     0.036 A 
HETATM   23  C   UNL     1     -43.273  56.685 -51.326  1.00  0.00     0.039 A 
HETATM   24  C   UNL     1     -43.811  57.963 -51.251  1.00  0.00    -0.024 A 
HETATM   25  C   UNL     1     -43.009  59.077 -51.073  1.00  0.00    -0.026 A 
HETATM   26  C   UNL     1     -45.227  58.389 -51.369  1.00  0.00     0.207 C 
HETATM   27  C   UNL     1     -43.857  60.294 -51.065  1.00  0.00     0.207 C 
HETATM   28  C   UNL     1     -41.638  58.953 -50.959  1.00  0.00     0.012 A 
HETATM   29  O   UNL     1     -45.215  59.797 -51.030  1.00  0.00    -0.382 OA
HETATM   30  C   UNL     1     -41.081  57.671 -51.029  1.00  0.00     0.030 A 
ENDBRANCH   4  22
TORSDOF 6
ENDMDL
MODEL 8
REMARK VINA RESULT:      -7.8     14.985     17.139
REMARK  6 active torsions:
REMARK  status: ('A' for Active; 'I' for Inactive)
REMARK       I    between atoms: N_2  and  C_3 
REMARK    1  A    between atoms: N_2  and  C_15 
REMARK       I    between atoms: C_3  and  N_4 
REMARK    2  A    between atoms: N_4  and  C_5 
REMARK    3  A    between atoms: C_15  and  C_16 
REMARK    4  A    between atoms: C_16  and  C_17 
REMARK    5  A    between atoms: C_17  and  C_18 
REMARK    6  A    between atoms: C_22  and  C_23 
ROOT
HETATM    1  C   UNL     1     -31.214  37.774 -53.481  1.00  0.00     0.154 C 
HETATM    2  N   UNL     1     -32.518  38.428 -53.484  1.00  0.00    -0.338 N 
HETATM    3  C   UNL     1     -32.986  38.908 -54.709  1.00  0.00     0.322 C 
HETATM    4  N   UNL     1     -34.121  39.685 -54.637  1.00  0.00    -0.309 N 
HETATM    5  O   UNL     1     -32.401  38.640 -55.756  1.00  0.00    -0.247 OA
HETATM    6  H   UNL     1     -34.421  39.962 -53.720  1.00  0.00     0.170 HD
ENDROOT
BRANCH   2   7
HETATM    7  C   UNL     1     -33.105  38.672 -52.163  1.00  0.00     0.127 C 
BRANCH   7   8
HETATM    8  C   UNL     1     -32.490  39.847 -51.389  1.00  0.00     0.026 C 
BRANCH   8   9
HETATM    9  C   UNL     1     -33.479  40.733 -50.629  1.00  0.00     0.060 C 
BRANCH   9  10
HETATM   10  C   UNL     1     -34.651  41.177 -51.431  1.00  0.00     0.030 A 
HETATM   11  N   UNL     1     -34.621  42.329 -52.164  1.00  0.00    -0.282 N 
HETATM   12  H   UNL     1     -33.859  42.994 -52.252  1.00  0.00     0.189 HD
HETATM   13  N   UNL     1     -35.737  42.555 -52.864  1.00  0.00    -0.174 NA
HETATM   14  C   UNL     1     -36.561  41.542 -52.544  1.00  0.00     0.089 A 
HETATM   15  C   UNL     1     -35.914  40.662 -51.628  1.00  0.00     0.060 A 
BRANCH  14  16
HETATM   16  C   UNL     1     -37.906  41.436 -53.122  1.00  0.00    -0.006 A 
HETATM   17  C   UNL     1     -39.035  41.386 -52.288  1.00  0.00     0.014 A 
HETATM   18  C   UNL     1     -40.322  41.297 -52.823  1.00  0.00     0.001 A 
HETATM   19  C   UNL     1     -40.500  41.252 -54.202  1.00  0.00     0.000 A 
HETATM   20  C   UNL     1     -39.392  41.295 -55.047  1.00  0.00     0.001 A 
HETATM   21  C   UNL     1     -38.103  41.387 -54.511  1.00  0.00     0.014 A 
ENDBRANCH  14  16
ENDBRANCH   9  10
ENDBRANCH   8   9
ENDBRANCH   7   8
ENDBRANCH   2   7
BRANCH   4  22
HETATM   22  C   UNL     1     -34.844  40.262 -55.706  1.00  0.00     0.036 A 
HETATM   23  C   UNL     1     -35.741  39.558 -56.513  1.00  0.00     0.039 A 
HETATM   24  C   UNL     1     -36.389  40.230 -57.540  1.00  0.00    -0.024 A 
HETATM   25  C   UNL     1     -36.167  41.575 -57.778  1.00  0.00    -0.026 A 
HETATM   26  C   UNL     1     -37.349  39.705 -58.541  1.00  0.00     0.207 C 
HETATM   27  C   UNL     1     -36.969  42.004 -58.949  1.00  0.00     0.207 C 
HETATM   28  C   UNL     1     -35.288  42.299 -56.994  1.00  0.00     0.012 A 
HETATM   29  O   UNL     1     -37.833  40.879 -59.236  1.00  0.00    -0.382 OA
HETATM   30  C   UNL     1     -34.630  41.636 -55.953  1.00  0.00     0.030 A 
ENDBRANCH   4  22
TORSDOF 6
ENDMDL
MODEL 9
REMARK VINA RESULT:      -7.7      2.822      3.757
REMARK  6 active torsions:
REMARK  status: ('A' for Active; 'I' for Inactive)
REMARK       I    between atoms: N_2  and  C_3 
REMARK    1  A    between atoms: N_2  and  C_15 
REMARK       I    between atoms: C_3  and  N_4 
REMARK    2  A    between atoms: N_4  and  C_5 
REMARK    3  A    between atoms: C_15  and  C_16 
REMARK    4  A    between atoms: C_16  and  C_17 
REMARK    5  A    between atoms: C_17  and  C_18 
REMARK    6  A    between atoms: C_22  and  C_23 
ROOT
HETATM    1  C   UNL     1     -43.100  58.007 -52.291  1.00  0.00     0.154 C 
HETATM    2  N   UNL     1     -42.137  57.186 -53.017  1.00  0.00    -0.338 N 
HETATM    3  C   UNL     1     -41.982  55.864 -52.594  1.00  0.00     0.322 C 
HETATM    4  N   UNL     1     -40.933  55.185 -53.173  1.00  0.00    -0.309 N 
HETATM    5  O   UNL     1     -42.742  55.376 -51.761  1.00  0.00    -0.247 OA
HETATM    6  H   UNL     1     -40.290  55.728 -53.720  1.00  0.00     0.170 HD
ENDROOT
BRANCH   2   7
HETATM    7  C   UNL     1     -41.306  57.900 -53.991  1.00  0.00     0.127 C 
BRANCH   7   8
HETATM    8  C   UNL     1     -41.870  59.251 -54.454  1.00  0.00     0.026 C 
BRANCH   8   9
HETATM    9  C   UNL     1     -42.621  59.236 -55.787  1.00  0.00     0.060 C 
BRANCH   9  10
HETATM   10  C   UNL     1     -42.202  60.298 -56.742  1.00  0.00     0.030 A 
HETATM   11  N   UNL     1     -42.504  61.612 -56.527  1.00  0.00    -0.282 N 
HETATM   12  H   UNL     1     -43.020  62.016 -55.752  1.00  0.00     0.189 HD
HETATM   13  N   UNL     1     -42.010  62.440 -57.454  1.00  0.00    -0.174 NA
HETATM   14  C   UNL     1     -41.402  61.640 -58.348  1.00  0.00     0.089 A 
HETATM   15  C   UNL     1     -41.518  60.280 -57.938  1.00  0.00     0.060 A 
BRANCH  14  16
HETATM   16  C   UNL     1     -40.728  62.187 -59.532  1.00  0.00    -0.006 A 
HETATM   17  C   UNL     1     -39.584  62.990 -59.389  1.00  0.00     0.014 A 
HETATM   18  C   UNL     1     -38.925  63.508 -60.505  1.00  0.00     0.001 A 
HETATM   19  C   UNL     1     -39.400  63.233 -61.784  1.00  0.00     0.000 A 
HETATM   20  C   UNL     1     -40.536  62.442 -61.946  1.00  0.00     0.001 A 
HETATM   21  C   UNL     1     -41.196  61.922 -60.827  1.00  0.00     0.014 A 
ENDBRANCH  14  16
ENDBRANCH   9  10
ENDBRANCH   8   9
ENDBRANCH   7   8
ENDBRANCH   2   7
BRANCH   4  22
HETATM   22  C   UNL     1     -40.564  53.834 -52.978  1.00  0.00     0.036 A 
HETATM   23  C   UNL     1     -40.543  52.876 -53.995  1.00  0.00     0.039 A 
HETATM   24  C   UNL     1     -40.170  51.576 -53.683  1.00  0.00    -0.024 A 
HETATM   25  C   UNL     1     -39.819  51.213 -52.395  1.00  0.00    -0.026 A 
HETATM   26  C   UNL     1     -40.101  50.386 -54.567  1.00  0.00     0.207 C 
HETATM   27  C   UNL     1     -39.502  49.764 -52.363  1.00  0.00     0.207 C 
HETATM   28  C   UNL     1     -39.827  52.139 -51.369  1.00  0.00     0.012 A 
HETATM   29  O   UNL     1     -39.479  49.362 -53.753  1.00  0.00    -0.382 OA
HETATM   30  C   UNL     1     -40.198  53.455 -51.669  1.00  0.00     0.030 A 
ENDBRANCH   4  22
TORSDOF 6
ENDMDL
MODEL 10
REMARK VINA RESULT:      -7.6      1.934      2.812
REMARK  6 active torsions:
REMARK  status: ('A' for Active; 'I' for Inactive)
REMARK       I    between atoms: N_2  and  C_3 
REMARK    1  A    between atoms: N_2  and  C_15 
REMARK       I    between atoms: C_3  and  N_4 
REMARK    2  A    between atoms: N_4  and  C_5 
REMARK    3  A    between atoms: C_15  and  C_16 
REMARK    4  A    between atoms: C_16  and  C_17 
REMARK    5  A    between atoms: C_17  and  C_18 
REMARK    6  A    between atoms: C_22  and  C_23 
ROOT
HETATM    1  C   UNL     1     -41.750  59.950 -50.914  1.00  0.00     0.154 C 
HETATM    2  N   UNL     1     -42.250  58.697 -51.469  1.00  0.00    -0.338 N 
HETATM    3  C   UNL     1     -41.441  57.568 -51.320  1.00  0.00     0.322 C 
HETATM    4  N   UNL     1     -41.854  56.457 -52.022  1.00  0.00    -0.309 N 
HETATM    5  O   UNL     1     -40.438  57.600 -50.610  1.00  0.00    -0.247 OA
HETATM    6  H   UNL     1     -42.595  56.592 -52.685  1.00  0.00     0.170 HD
ENDROOT
BRANCH   2   7
HETATM    7  C   UNL     1     -43.463  58.807 -52.284  1.00  0.00     0.127 C 
BRANCH   7   8
HETATM    8  C   UNL     1     -43.298  59.606 -53.585  1.00  0.00     0.026 C 
BRANCH   8   9
HETATM    9  C   UNL     1     -42.156  59.157 -54.499  1.00  0.00     0.060 C 
BRANCH   9  10
HETATM   10  C   UNL     1     -42.557  58.190 -55.557  1.00  0.00     0.030 A 
HETATM   11  N   UNL     1     -42.114  56.898 -55.548  1.00  0.00    -0.282 N 
HETATM   12  H   UNL     1     -41.495  56.453 -54.878  1.00  0.00     0.189 HD
HETATM   13  N   UNL     1     -42.609  56.150 -56.540  1.00  0.00    -0.174 NA
HETATM   14  C   UNL     1     -43.366  56.990 -57.266  1.00  0.00     0.089 A 
HETATM   15  C   UNL     1     -43.343  58.290 -56.683  1.00  0.00     0.060 A 
BRANCH  14  16
HETATM   16  C   UNL     1     -44.090  56.533 -58.460  1.00  0.00    -0.006 A 
HETATM   17  C   UNL     1     -45.158  57.287 -58.973  1.00  0.00     0.014 A 
HETATM   18  C   UNL     1     -45.848  56.872 -60.114  1.00  0.00     0.001 A 
HETATM   19  C   UNL     1     -45.483  55.694 -60.758  1.00  0.00     0.000 A 
HETATM   20  C   UNL     1     -44.429  54.930 -60.261  1.00  0.00     0.001 A 
HETATM   21  C   UNL     1     -43.736  55.347 -59.119  1.00  0.00     0.014 A 
ENDBRANCH  14  16
ENDBRANCH   9  10
ENDBRANCH   8   9
ENDBRANCH   7   8
ENDBRANCH   2   7
BRANCH   4  22
HETATM   22  C   UNL     1     -41.269  55.170 -52.027  1.00  0.00     0.036 A 
HETATM   23  C   UNL     1     -40.953  54.461 -53.189  1.00  0.00     0.039 A 
HETATM   24  C   UNL     1     -40.386  53.199 -53.070  1.00  0.00    -0.024 A 
HETATM   25  C   UNL     1     -40.129  52.635 -51.833  1.00  0.00    -0.026 A 
HETATM   26  C   UNL     1     -39.995  52.246 -54.137  1.00  0.00     0.207 C 
HETATM   27  C   UNL     1     -39.557  51.280 -52.022  1.00  0.00     0.207 C 
HETATM   28  C   UNL     1     -40.428  53.314 -50.667  1.00  0.00     0.012 A 
HETATM   29  O   UNL     1     -39.296  51.186 -53.443  1.00  0.00    -0.382 OA
HETATM   30  C   UNL     1     -40.997  54.588 -50.770  1.00  0.00     0.030 A 
ENDBRANCH   4  22
TORSDOF 6
ENDMDL
