MODEL 1
REMARK VINA RESULT:      -8.6      0.000      0.000
REMARK  5 active torsions:
REMARK  status: ('A' for Active; 'I' for Inactive)
REMARK    1  A    between atoms: C_9  and  N_10 
REMARK       I    between atoms: N_10  and  C_11 
REMARK    2  A    between atoms: C_11  and  C_12 
REMARK    3  A    between atoms: C_15  and  O_16 
REMARK    4  A    between atoms: O_16  and  C_17 
REMARK    5  A    between atoms: C_17  and  C_18 
ROOT
HETATM    1  C   UNL     1     -40.392  52.439 -53.309  1.00  0.00    -0.013 A 
HETATM    2  C   UNL     1     -39.939  52.072 -52.026  1.00  0.00     0.053 A 
HETATM    3  C   UNL     1     -39.877  53.022 -50.949  1.00  0.00     0.100 C 
HETATM    4  N   UNL     1     -39.817  53.790 -50.080  1.00  0.00    -0.191 NA
HETATM    5  C   UNL     1     -39.528  50.755 -51.778  1.00  0.00     0.023 A 
HETATM    6  C   UNL     1     -39.561  49.800 -52.795  1.00  0.00     0.002 A 
HETATM    7  C   UNL     1     -40.006  50.155 -54.065  1.00  0.00     0.001 A 
HETATM    8  C   UNL     1     -40.419  51.463 -54.322  1.00  0.00     0.011 A 
ENDROOT
BRANCH   1   9
HETATM    9  C   UNL     1     -40.834  53.851 -53.628  1.00  0.00     0.216 C 
BRANCH   9  10
HETATM   10  O   UNL     1     -42.256  53.918 -53.529  1.00  0.00    -0.347 OA
BRANCH  10  11
HETATM   11  C   UNL     1     -42.779  55.084 -53.046  1.00  0.00     0.069 A 
HETATM   12  C   UNL     1     -42.522  55.629 -51.790  1.00  0.00     0.038 A 
HETATM   13  C   UNL     1     -43.091  56.855 -51.430  1.00  0.00     0.020 A 
HETATM   14  C   UNL     1     -43.913  57.551 -52.326  1.00  0.00     0.032 A 
HETATM   15  C   UNL     1     -44.192  56.992 -53.578  1.00  0.00     0.020 A 
HETATM   16  C   UNL     1     -43.615  55.767 -53.934  1.00  0.00     0.038 A 
BRANCH  14  17
HETATM   17  C   UNL     1     -44.442  58.877 -51.897  1.00  0.00     0.256 C 
HETATM   18  N   UNL     1     -43.791  59.461 -50.821  1.00  0.00    -0.323 N 
HETATM   19  H   UNL     1     -43.019  58.946 -50.416  1.00  0.00     0.169 HD
HETATM   20  O   UNL     1     -45.430  59.323 -52.469  1.00  0.00    -0.267 OA
BRANCH  18  21
HETATM   21  C   UNL     1     -44.178  60.631 -50.132  1.00  0.00     0.035 A 
HETATM   22  C   UNL     1     -45.252  60.681 -49.239  1.00  0.00     0.039 A 
HETATM   23  C   UNL     1     -45.503  61.860 -48.554  1.00  0.00    -0.022 A 
HETATM   24  C   UNL     1     -46.540  62.102 -47.513  1.00  0.00     0.274 C 
HETATM   25  C   UNL     1     -44.717  62.995 -48.749  1.00  0.00    -0.025 A 
HETATM   26  N   UNL     1     -46.455  63.596 -47.220  1.00  0.00    -0.067 N 
HETATM   27  C   UNL     1     -46.622  63.945 -45.784  1.00  0.00     0.270 C 
HETATM   28  H   UNL     1     -47.216  64.030 -47.757  1.00  0.00     0.280 HD
HETATM   29  C   UNL     1     -45.157  64.095 -47.845  1.00  0.00     0.273 C 
HETATM   30  C   UNL     1     -43.663  62.978 -49.646  1.00  0.00     0.012 A 
HETATM   31  C   UNL     1     -43.401  61.789 -50.338  1.00  0.00     0.030 A 
ENDBRANCH  18  21
ENDBRANCH  14  17
ENDBRANCH  10  11
ENDBRANCH   9  10
ENDBRANCH   1   9
TORSDOF 5
ENDMDL
MODEL 2
REMARK VINA RESULT:      -8.5      2.116     10.662
REMARK  5 active torsions:
REMARK  status: ('A' for Active; 'I' for Inactive)
REMARK    1  A    between atoms: C_9  and  N_10 
REMARK       I    between atoms: N_10  and  C_11 
REMARK    2  A    between atoms: C_11  and  C_12 
REMARK    3  A    between atoms: C_15  and  O_16 
REMARK    4  A    between atoms: O_16  and  C_17 
REMARK    5  A    between atoms: C_17  and  C_18 
ROOT
HETATM    1  C   UNL     1     -45.532  62.176 -48.072  1.00  0.00    -0.013 A 
HETATM    2  C   UNL     1     -45.749  61.523 -46.842  1.00  0.00     0.053 A 
HETATM    3  C   UNL     1     -46.209  60.163 -46.783  1.00  0.00     0.100 C 
HETATM    4  N   UNL     1     -46.590  59.067 -46.731  1.00  0.00    -0.191 NA
HETATM    5  C   UNL     1     -45.521  62.204 -45.638  1.00  0.00     0.023 A 
HETATM    6  C   UNL     1     -45.082  63.528 -45.646  1.00  0.00     0.002 A 
HETATM    7  C   UNL     1     -44.868  64.180 -46.857  1.00  0.00     0.001 A 
HETATM    8  C   UNL     1     -45.090  63.511 -48.061  1.00  0.00     0.011 A 
ENDROOT
BRANCH   1   9
HETATM    9  C   UNL     1     -45.776  61.486 -49.398  1.00  0.00     0.216 C 
BRANCH   9  10
HETATM   10  O   UNL     1     -44.693  61.789 -50.276  1.00  0.00    -0.347 OA
BRANCH  10  11
HETATM   11  C   UNL     1     -43.840  60.762 -50.566  1.00  0.00     0.069 A 
HETATM   12  C   UNL     1     -42.463  60.766 -50.350  1.00  0.00     0.038 A 
HETATM   13  C   UNL     1     -41.705  59.632 -50.656  1.00  0.00     0.020 A 
HETATM   14  C   UNL     1     -42.316  58.481 -51.170  1.00  0.00     0.032 A 
HETATM   15  C   UNL     1     -43.694  58.485 -51.412  1.00  0.00     0.020 A 
HETATM   16  C   UNL     1     -44.449  59.622 -51.099  1.00  0.00     0.038 A 
BRANCH  14  17
HETATM   17  C   UNL     1     -41.456  57.290 -51.422  1.00  0.00     0.256 C 
HETATM   18  N   UNL     1     -41.774  56.552 -52.552  1.00  0.00    -0.323 N 
HETATM   19  H   UNL     1     -42.556  56.874 -53.107  1.00  0.00     0.169 HD
HETATM   20  O   UNL     1     -40.587  57.014 -50.602  1.00  0.00    -0.267 OA
BRANCH  18  21
HETATM   21  C   UNL     1     -41.218  55.311 -52.936  1.00  0.00     0.035 A 
HETATM   22  C   UNL     1     -40.799  54.338 -52.025  1.00  0.00     0.039 A 
HETATM   23  C   UNL     1     -40.338  53.121 -52.505  1.00  0.00    -0.022 A 
HETATM   24  C   UNL     1     -39.919  51.933 -51.711  1.00  0.00     0.274 C 
HETATM   25  C   UNL     1     -40.272  52.857 -53.872  1.00  0.00    -0.025 A 
HETATM   26  N   UNL     1     -39.374  50.950 -52.742  1.00  0.00    -0.067 N 
HETATM   27  C   UNL     1     -39.726  49.531 -52.474  1.00  0.00     0.270 C 
HETATM   28  H   UNL     1     -38.352  51.050 -52.712  1.00  0.00     0.280 HD
HETATM   29  C   UNL     1     -39.808  51.462 -54.111  1.00  0.00     0.273 C 
HETATM   30  C   UNL     1     -40.658  53.814 -54.794  1.00  0.00     0.012 A 
HETATM   31  C   UNL     1     -41.128  55.044 -54.317  1.00  0.00     0.030 A 
ENDBRANCH  18  21
ENDBRANCH  14  17
ENDBRANCH  10  11
ENDBRANCH   9  10
ENDBRANCH   1   9
TORSDOF 5
ENDMDL
MODEL 3
REMARK VINA RESULT:      -8.4      1.964     10.975
REMARK  5 active torsions:
REMARK  status: ('A' for Active; 'I' for Inactive)
REMARK    1  A    between atoms: C_9  and  N_10 
REMARK       I    between atoms: N_10  and  C_11 
REMARK    2  A    between atoms: C_11  and  C_12 
REMARK    3  A    between atoms: C_15  and  O_16 
REMARK    4  A    between atoms: O_16  and  C_17 
REMARK    5  A    between atoms: C_17  and  C_18 
ROOT
HETATM    1  C   UNL     1     -46.194  62.835 -48.371  1.00  0.00    -0.013 A 
HETATM    2  C   UNL     1     -47.281  63.561 -47.846  1.00  0.00     0.053 A 
HETATM    3  C   UNL     1     -48.356  64.019 -48.683  1.00  0.00     0.100 C 
HETATM    4  N   UNL     1     -49.221  64.399 -49.358  1.00  0.00    -0.191 NA
HETATM    5  C   UNL     1     -47.328  63.859 -46.477  1.00  0.00     0.023 A 
HETATM    6  C   UNL     1     -46.303  63.443 -45.627  1.00  0.00     0.002 A 
HETATM    7  C   UNL     1     -45.225  62.727 -46.139  1.00  0.00     0.001 A 
HETATM    8  C   UNL     1     -45.169  62.423 -47.500  1.00  0.00     0.011 A 
ENDROOT
BRANCH   1   9
HETATM    9  C   UNL     1     -46.093  62.500 -49.844  1.00  0.00     0.216 C 
BRANCH   9  10
HETATM   10  O   UNL     1     -46.402  61.118 -50.020  1.00  0.00    -0.347 OA
BRANCH  10  11
HETATM   11  C   UNL     1     -45.389  60.321 -50.476  1.00  0.00     0.069 A 
HETATM   12  C   UNL     1     -44.049  60.688 -50.572  1.00  0.00     0.038 A 
HETATM   13  C   UNL     1     -43.101  59.763 -51.020  1.00  0.00     0.020 A 
HETATM   14  C   UNL     1     -43.482  58.459 -51.364  1.00  0.00     0.032 A 
HETATM   15  C   UNL     1     -44.832  58.098 -51.292  1.00  0.00     0.020 A 
HETATM   16  C   UNL     1     -45.776  59.027 -50.839  1.00  0.00     0.038 A 
BRANCH  14  17
HETATM   17  C   UNL     1     -42.413  57.509 -51.781  1.00  0.00     0.256 C 
HETATM   18  N   UNL     1     -42.828  56.206 -52.012  1.00  0.00    -0.323 N 
HETATM   19  H   UNL     1     -43.811  56.006 -51.880  1.00  0.00     0.169 HD
HETATM   20  O   UNL     1     -41.257  57.915 -51.829  1.00  0.00    -0.267 OA
BRANCH  18  21
HETATM   21  C   UNL     1     -42.003  55.089 -52.272  1.00  0.00     0.035 A 
HETATM   22  C   UNL     1     -41.502  54.251 -51.273  1.00  0.00     0.039 A 
HETATM   23  C   UNL     1     -40.764  53.135 -51.638  1.00  0.00    -0.022 A 
HETATM   24  C   UNL     1     -40.208  52.082 -50.744  1.00  0.00     0.274 C 
HETATM   25  C   UNL     1     -40.503  52.843 -52.976  1.00  0.00    -0.025 A 
HETATM   26  N   UNL     1     -39.376  51.193 -51.662  1.00  0.00    -0.067 N 
HETATM   27  C   UNL     1     -39.471  49.742 -51.352  1.00  0.00     0.270 C 
HETATM   28  H   UNL     1     -38.402  51.496 -51.537  1.00  0.00     0.280 HD
HETATM   29  C   UNL     1     -39.753  51.560 -53.092  1.00  0.00     0.273 C 
HETATM   30  C   UNL     1     -40.967  53.671 -53.982  1.00  0.00     0.012 A 
HETATM   31  C   UNL     1     -41.717  54.798 -53.621  1.00  0.00     0.030 A 
ENDBRANCH  18  21
ENDBRANCH  14  17
ENDBRANCH  10  11
ENDBRANCH   9  10
ENDBRANCH   1   9
TORSDOF 5
ENDMDL
MODEL 4
REMARK VINA RESULT:      -8.3      5.873      8.663
REMARK  5 active torsions:
REMARK  status: ('A' for Active; 'I' for Inactive)
REMARK    1  A    between atoms: C_9  and  N_10 
REMARK       I    between atoms: N_10  and  C_11 
REMARK    2  A    between atoms: C_11  and  C_12 
REMARK    3  A    between atoms: C_15  and  O_16 
REMARK    4  A    between atoms: O_16  and  C_17 
REMARK    5  A    between atoms: C_17  and  C_18 
ROOT
HETATM    1  C   UNL     1     -40.281  53.237 -53.127  1.00  0.00    -0.013 A 
HETATM    2  C   UNL     1     -39.936  52.686 -51.877  1.00  0.00     0.053 A 
HETATM    3  C   UNL     1     -39.933  53.480 -50.679  1.00  0.00     0.100 C 
HETATM    4  N   UNL     1     -39.919  54.122 -49.711  1.00  0.00    -0.191 NA
HETATM    5  C   UNL     1     -39.578  51.334 -51.782  1.00  0.00     0.023 A 
HETATM    6  C   UNL     1     -39.558  50.526 -52.920  1.00  0.00     0.002 A 
HETATM    7  C   UNL     1     -39.896  51.063 -54.158  1.00  0.00     0.001 A 
HETATM    8  C   UNL     1     -40.256  52.408 -54.263  1.00  0.00     0.011 A 
ENDROOT
BRANCH   1   9
HETATM    9  C   UNL     1     -40.662  54.694 -53.282  1.00  0.00     0.216 C 
BRANCH   9  10
HETATM   10  O   UNL     1     -42.079  54.782 -53.427  1.00  0.00    -0.347 OA
BRANCH  10  11
HETATM   11  C   UNL     1     -42.539  55.341 -54.586  1.00  0.00     0.069 A 
HETATM   12  C   UNL     1     -42.389  54.801 -55.862  1.00  0.00     0.038 A 
HETATM   13  C   UNL     1     -42.943  55.454 -56.967  1.00  0.00     0.020 A 
HETATM   14  C   UNL     1     -43.660  56.647 -56.806  1.00  0.00     0.032 A 
HETATM   15  C   UNL     1     -43.788  57.204 -55.529  1.00  0.00     0.020 A 
HETATM   16  C   UNL     1     -43.236  56.543 -54.425  1.00  0.00     0.038 A 
BRANCH  14  17
HETATM   17  C   UNL     1     -44.269  57.262 -58.020  1.00  0.00     0.256 C 
HETATM   18  N   UNL     1     -45.641  57.101 -58.146  1.00  0.00    -0.323 N 
HETATM   19  H   UNL     1     -46.112  56.584 -57.415  1.00  0.00     0.169 HD
HETATM   20  O   UNL     1     -43.529  57.799 -58.836  1.00  0.00    -0.267 OA
BRANCH  18  21
HETATM   21  C   UNL     1     -46.434  57.453 -59.260  1.00  0.00     0.035 A 
HETATM   22  C   UNL     1     -46.786  58.768 -59.573  1.00  0.00     0.039 A 
HETATM   23  C   UNL     1     -47.505  59.015 -60.732  1.00  0.00    -0.022 A 
HETATM   24  C   UNL     1     -47.913  60.338 -61.283  1.00  0.00     0.274 C 
HETATM   25  C   UNL     1     -47.894  57.980 -61.581  1.00  0.00    -0.025 A 
HETATM   26  N   UNL     1     -48.795  60.004 -62.481  1.00  0.00    -0.067 N 
HETATM   27  C   UNL     1     -48.599  60.902 -63.650  1.00  0.00     0.270 C 
HETATM   28  H   UNL     1     -49.763  60.096 -62.150  1.00  0.00     0.280 HD
HETATM   29  C   UNL     1     -48.590  58.523 -62.781  1.00  0.00     0.273 C 
HETATM   30  C   UNL     1     -47.579  56.666 -61.280  1.00  0.00     0.012 A 
HETATM   31  C   UNL     1     -46.849  56.409 -60.112  1.00  0.00     0.030 A 
ENDBRANCH  18  21
ENDBRANCH  14  17
ENDBRANCH  10  11
ENDBRANCH   9  10
ENDBRANCH   1   9
TORSDOF 5
ENDMDL
MODEL 5
REMARK VINA RESULT:      -8.1      6.217      8.279
REMARK  5 active torsions:
REMARK  status: ('A' for Active; 'I' for Inactive)
REMARK    1  A    between atoms: C_9  and  N_10 
REMARK       I    between atoms: N_10  and  C_11 
REMARK    2  A    between atoms: C_11  and  C_12 
REMARK    3  A    between atoms: C_15  and  O_16 
REMARK    4  A    between atoms: O_16  and  C_17 
REMARK    5  A    between atoms: C_17  and  C_18 
ROOT
HETATM    1  C   UNL     1     -40.241  52.592 -52.634  1.00  0.00    -0.013 A 
HETATM    2  C   UNL     1     -40.095  51.851 -51.444  1.00  0.00     0.053 A 
HETATM    3  C   UNL     1     -40.284  52.455 -50.154  1.00  0.00     0.100 C 
HETATM    4  N   UNL     1     -40.426  52.942 -49.109  1.00  0.00    -0.191 NA
HETATM    5  C   UNL     1     -39.752  50.493 -51.502  1.00  0.00     0.023 A 
HETATM    6  C   UNL     1     -39.550  49.867 -52.732  1.00  0.00     0.002 A 
HETATM    7  C   UNL     1     -39.690  50.592 -53.911  1.00  0.00     0.001 A 
HETATM    8  C   UNL     1     -40.034  51.944 -53.865  1.00  0.00     0.011 A 
ENDROOT
BRANCH   1   9
HETATM    9  C   UNL     1     -40.598  54.063 -52.622  1.00  0.00     0.216 C 
BRANCH   9  10
HETATM   10  O   UNL     1     -41.970  54.203 -52.989  1.00  0.00    -0.347 OA
BRANCH  10  11
HETATM   11  C   UNL     1     -42.220  54.806 -54.189  1.00  0.00     0.069 A 
HETATM   12  C   UNL     1     -41.793  56.078 -54.563  1.00  0.00     0.038 A 
HETATM   13  C   UNL     1     -42.083  56.566 -55.841  1.00  0.00     0.020 A 
HETATM   14  C   UNL     1     -42.795  55.783 -56.760  1.00  0.00     0.032 A 
HETATM   15  C   UNL     1     -43.247  54.515 -56.376  1.00  0.00     0.020 A 
HETATM   16  C   UNL     1     -42.949  54.030 -55.097  1.00  0.00     0.038 A 
BRANCH  14  17
HETATM   17  C   UNL     1     -43.022  56.343 -58.122  1.00  0.00     0.256 C 
HETATM   18  N   UNL     1     -43.028  57.728 -58.205  1.00  0.00    -0.323 N 
HETATM   19  H   UNL     1     -42.881  58.241 -57.345  1.00  0.00     0.169 HD
HETATM   20  O   UNL     1     -43.246  55.566 -59.043  1.00  0.00    -0.267 OA
BRANCH  18  21
HETATM   21  C   UNL     1     -43.362  58.506 -59.335  1.00  0.00     0.035 A 
HETATM   22  C   UNL     1     -44.676  58.762 -59.734  1.00  0.00     0.039 A 
HETATM   23  C   UNL     1     -44.900  59.602 -60.815  1.00  0.00    -0.022 A 
HETATM   24  C   UNL     1     -46.211  60.061 -61.351  1.00  0.00     0.274 C 
HETATM   25  C   UNL     1     -43.843  60.182 -61.515  1.00  0.00    -0.025 A 
HETATM   26  N   UNL     1     -45.863  60.839 -62.616  1.00  0.00    -0.067 N 
HETATM   27  C   UNL     1     -46.685  62.059 -62.826  1.00  0.00     0.270 C 
HETATM   28  H   UNL     1     -46.025  60.190 -63.396  1.00  0.00     0.280 HD
HETATM   29  C   UNL     1     -44.359  61.088 -62.580  1.00  0.00     0.273 C 
HETATM   30  C   UNL     1     -42.533  59.923 -61.155  1.00  0.00     0.012 A 
HETATM   31  C   UNL     1     -42.299  59.079 -60.062  1.00  0.00     0.030 A 
ENDBRANCH  18  21
ENDBRANCH  14  17
ENDBRANCH  10  11
ENDBRANCH   9  10
ENDBRANCH   1   9
TORSDOF 5
ENDMDL
MODEL 6
REMARK VINA RESULT:      -8.0     18.420     20.996
REMARK  5 active torsions:
REMARK  status: ('A' for Active; 'I' for Inactive)
REMARK    1  A    between atoms: C_9  and  N_10 
REMARK       I    between atoms: N_10  and  C_11 
REMARK    2  A    between atoms: C_11  and  C_12 
REMARK    3  A    between atoms: C_15  and  O_16 
REMARK    4  A    between atoms: O_16  and  C_17 
REMARK    5  A    between atoms: C_17  and  C_18 
ROOT
HETATM    1  C   UNL     1     -36.972  41.419 -57.518  1.00  0.00    -0.013 A 
HETATM    2  C   UNL     1     -37.001  40.028 -57.740  1.00  0.00     0.053 A 
HETATM    3  C   UNL     1     -36.841  39.091 -56.662  1.00  0.00     0.100 C 
HETATM    4  N   UNL     1     -36.702  38.331 -55.795  1.00  0.00    -0.191 NA
HETATM    5  C   UNL     1     -37.183  39.529 -59.037  1.00  0.00     0.023 A 
HETATM    6  C   UNL     1     -37.333  40.401 -60.116  1.00  0.00     0.002 A 
HETATM    7  C   UNL     1     -37.304  41.776 -59.905  1.00  0.00     0.001 A 
HETATM    8  C   UNL     1     -37.126  42.283 -58.617  1.00  0.00     0.011 A 
ENDROOT
BRANCH   1   9
HETATM    9  C   UNL     1     -36.766  42.006 -56.138  1.00  0.00     0.216 C 
BRANCH   9  10
HETATM   10  O   UNL     1     -35.377  42.282 -55.962  1.00  0.00    -0.347 OA
BRANCH  10  11
HETATM   11  C   UNL     1     -34.729  41.558 -55.002  1.00  0.00     0.069 A 
HETATM   12  C   UNL     1     -33.541  40.853 -55.182  1.00  0.00     0.038 A 
HETATM   13  C   UNL     1     -32.956  40.181 -54.104  1.00  0.00     0.020 A 
HETATM   14  C   UNL     1     -33.548  40.216 -52.834  1.00  0.00     0.032 A 
HETATM   15  C   UNL     1     -34.755  40.902 -52.659  1.00  0.00     0.020 A 
HETATM   16  C   UNL     1     -35.333  41.577 -53.741  1.00  0.00     0.038 A 
BRANCH  14  17
HETATM   17  C   UNL     1     -32.843  39.524 -51.718  1.00  0.00     0.256 C 
HETATM   18  N   UNL     1     -33.360  39.752 -50.452  1.00  0.00    -0.323 N 
HETATM   19  H   UNL     1     -34.162  40.365 -50.387  1.00  0.00     0.169 HD
HETATM   20  O   UNL     1     -31.842  38.866 -51.980  1.00  0.00    -0.267 OA
BRANCH  18  21
HETATM   21  C   UNL     1     -32.799  39.341 -49.223  1.00  0.00     0.035 A 
HETATM   22  C   UNL     1     -31.689  39.954 -48.637  1.00  0.00     0.039 A 
HETATM   23  C   UNL     1     -31.262  39.523 -47.390  1.00  0.00    -0.022 A 
HETATM   24  C   UNL     1     -30.158  40.086 -46.564  1.00  0.00     0.274 C 
HETATM   25  C   UNL     1     -31.908  38.486 -46.719  1.00  0.00    -0.025 A 
HETATM   26  N   UNL     1     -30.042  39.140 -45.374  1.00  0.00    -0.067 N 
HETATM   27  C   UNL     1     -29.769  39.821 -44.081  1.00  0.00     0.270 C 
HETATM   28  H   UNL     1     -29.258  38.513 -45.590  1.00  0.00     0.280 HD
HETATM   29  C   UNL     1     -31.294  38.270 -45.379  1.00  0.00     0.273 C 
HETATM   30  C   UNL     1     -32.994  37.846 -47.290  1.00  0.00     0.012 A 
HETATM   31  C   UNL     1     -33.434  38.279 -48.548  1.00  0.00     0.030 A 
ENDBRANCH  18  21
ENDBRANCH  14  17
ENDBRANCH  10  11
ENDBRANCH   9  10
ENDBRANCH   1   9
TORSDOF 5
ENDMDL
MODEL 7
REMARK VINA RESULT:      -7.9      5.800      7.249
REMARK  5 active torsions:
REMARK  status: ('A' for Active; 'I' for Inactive)
REMARK    1  A    between atoms: C_9  and  N_10 
REMARK       I    between atoms: N_10  and  C_11 
REMARK    2  A    between atoms: C_11  and  C_12 
REMARK    3  A    between atoms: C_15  and  O_16 
REMARK    4  A    between atoms: O_16  and  C_17 
REMARK    5  A    between atoms: C_17  and  C_18 
ROOT
HETATM    1  C   UNL     1     -40.279  52.414 -52.886  1.00  0.00    -0.013 A 
HETATM    2  C   UNL     1     -40.056  51.797 -51.639  1.00  0.00     0.053 A 
HETATM    3  C   UNL     1     -40.235  52.510 -50.404  1.00  0.00     0.100 C 
HETATM    4  N   UNL     1     -40.367  53.087 -49.405  1.00  0.00    -0.191 NA
HETATM    5  C   UNL     1     -39.645  50.458 -51.583  1.00  0.00     0.023 A 
HETATM    6  C   UNL     1     -39.451  49.728 -52.756  1.00  0.00     0.002 A 
HETATM    7  C   UNL     1     -39.666  50.331 -53.992  1.00  0.00     0.001 A 
HETATM    8  C   UNL     1     -40.078  51.663 -54.058  1.00  0.00     0.011 A 
ENDROOT
BRANCH   1   9
HETATM    9  C   UNL     1     -40.711  53.860 -52.998  1.00  0.00     0.216 C 
BRANCH   9  10
HETATM   10  O   UNL     1     -40.311  54.359 -54.274  1.00  0.00    -0.347 OA
BRANCH  10  11
HETATM   11  C   UNL     1     -41.196  55.182 -54.911  1.00  0.00     0.069 A 
HETATM   12  C   UNL     1     -42.042  54.810 -55.954  1.00  0.00     0.038 A 
HETATM   13  C   UNL     1     -42.934  55.741 -56.496  1.00  0.00     0.020 A 
HETATM   14  C   UNL     1     -42.996  57.048 -55.994  1.00  0.00     0.032 A 
HETATM   15  C   UNL     1     -42.128  57.429 -54.964  1.00  0.00     0.020 A 
HETATM   16  C   UNL     1     -41.242  56.491 -54.422  1.00  0.00     0.038 A 
BRANCH  14  17
HETATM   17  C   UNL     1     -44.007  57.972 -56.582  1.00  0.00     0.256 C 
HETATM   18  N   UNL     1     -44.952  57.377 -57.404  1.00  0.00    -0.323 N 
HETATM   19  H   UNL     1     -44.880  56.377 -57.540  1.00  0.00     0.169 HD
HETATM   20  O   UNL     1     -43.901  59.172 -56.357  1.00  0.00    -0.267 OA
BRANCH  18  21
HETATM   21  C   UNL     1     -45.920  58.037 -58.194  1.00  0.00     0.035 A 
HETATM   22  C   UNL     1     -46.930  58.844 -57.664  1.00  0.00     0.039 A 
HETATM   23  C   UNL     1     -47.784  59.508 -58.530  1.00  0.00    -0.022 A 
HETATM   24  C   UNL     1     -48.868  60.467 -58.178  1.00  0.00     0.274 C 
HETATM   25  C   UNL     1     -47.665  59.377 -59.913  1.00  0.00    -0.025 A 
HETATM   26  N   UNL     1     -49.566  60.767 -59.500  1.00  0.00    -0.067 N 
HETATM   27  C   UNL     1     -49.980  62.186 -59.660  1.00  0.00     0.270 C 
HETATM   28  H   UNL     1     -50.404  60.174 -59.515  1.00  0.00     0.280 HD
HETATM   29  C   UNL     1     -48.657  60.245 -60.607  1.00  0.00     0.273 C 
HETATM   30  C   UNL     1     -46.689  58.563 -60.461  1.00  0.00     0.012 A 
HETATM   31  C   UNL     1     -45.819  57.892 -59.593  1.00  0.00     0.030 A 
ENDBRANCH  18  21
ENDBRANCH  14  17
ENDBRANCH  10  11
ENDBRANCH   9  10
ENDBRANCH   1   9
TORSDOF 5
ENDMDL
MODEL 8
REMARK VINA RESULT:      -7.8      6.162     10.397
REMARK  5 active torsions:
REMARK  status: ('A' for Active; 'I' for Inactive)
REMARK    1  A    between atoms: C_9  and  N_10 
REMARK       I    between atoms: N_10  and  C_11 
REMARK    2  A    between atoms: C_11  and  C_12 
REMARK    3  A    between atoms: C_15  and  O_16 
REMARK    4  A    between atoms: O_16  and  C_17 
REMARK    5  A    between atoms: C_17  and  C_18 
ROOT
HETATM    1  C   UNL     1     -42.260  61.556 -60.474  1.00  0.00    -0.013 A 
HETATM    2  C   UNL     1     -41.494  61.886 -59.338  1.00  0.00     0.053 A 
HETATM    3  C   UNL     1     -41.948  61.583 -58.009  1.00  0.00     0.100 C 
HETATM    4  N   UNL     1     -42.318  61.350 -56.933  1.00  0.00    -0.191 NA
HETATM    5  C   UNL     1     -40.258  62.531 -59.490  1.00  0.00     0.023 A 
HETATM    6  C   UNL     1     -39.780  62.853 -60.761  1.00  0.00     0.002 A 
HETATM    7  C   UNL     1     -40.532  62.532 -61.887  1.00  0.00     0.001 A 
HETATM    8  C   UNL     1     -41.762  61.887 -61.747  1.00  0.00     0.011 A 
ENDROOT
BRANCH   1   9
HETATM    9  C   UNL     1     -43.605  60.870 -60.360  1.00  0.00     0.216 C 
BRANCH   9  10
HETATM   10  O   UNL     1     -43.489  59.548 -60.885  1.00  0.00    -0.347 OA
BRANCH  10  11
HETATM   11  C   UNL     1     -43.301  58.546 -59.975  1.00  0.00     0.069 A 
HETATM   12  C   UNL     1     -42.487  57.429 -60.156  1.00  0.00     0.038 A 
HETATM   13  C   UNL     1     -42.348  56.492 -59.128  1.00  0.00     0.020 A 
HETATM   14  C   UNL     1     -43.012  56.667 -57.907  1.00  0.00     0.032 A 
HETATM   15  C   UNL     1     -43.850  57.775 -57.734  1.00  0.00     0.020 A 
HETATM   16  C   UNL     1     -43.981  58.713 -58.765  1.00  0.00     0.038 A 
BRANCH  14  17
HETATM   17  C   UNL     1     -42.777  55.658 -56.836  1.00  0.00     0.256 C 
HETATM   18  N   UNL     1     -41.746  55.951 -55.955  1.00  0.00    -0.323 N 
HETATM   19  H   UNL     1     -41.241  56.814 -56.110  1.00  0.00     0.169 HD
HETATM   20  O   UNL     1     -43.450  54.634 -56.841  1.00  0.00    -0.267 OA
BRANCH  18  21
HETATM   21  C   UNL     1     -41.225  55.105 -54.952  1.00  0.00     0.035 A 
HETATM   22  C   UNL     1     -41.288  55.396 -53.587  1.00  0.00     0.039 A 
HETATM   23  C   UNL     1     -40.815  54.463 -52.677  1.00  0.00    -0.022 A 
HETATM   24  C   UNL     1     -40.857  54.542 -51.190  1.00  0.00     0.274 C 
HETATM   25  C   UNL     1     -40.268  53.251 -53.097  1.00  0.00    -0.025 A 
HETATM   26  N   UNL     1     -40.074  53.323 -50.714  1.00  0.00    -0.067 N 
HETATM   27  C   UNL     1     -40.653  52.659 -49.516  1.00  0.00     0.270 C 
HETATM   28  H   UNL     1     -39.135  53.668 -50.481  1.00  0.00     0.280 HD
HETATM   29  C   UNL     1     -39.902  52.410 -51.923  1.00  0.00     0.273 C 
HETATM   30  C   UNL     1     -40.171  52.951 -54.444  1.00  0.00     0.012 A 
HETATM   31  C   UNL     1     -40.650  53.887 -55.369  1.00  0.00     0.030 A 
ENDBRANCH  18  21
ENDBRANCH  14  17
ENDBRANCH  10  11
ENDBRANCH   9  10
ENDBRANCH   1   9
TORSDOF 5
ENDMDL
MODEL 9
REMARK VINA RESULT:      -7.7      6.124      8.378
REMARK  5 active torsions:
REMARK  status: ('A' for Active; 'I' for Inactive)
REMARK    1  A    between atoms: C_9  and  N_10 
REMARK       I    between atoms: N_10  and  C_11 
REMARK    2  A    between atoms: C_11  and  C_12 
REMARK    3  A    between atoms: C_15  and  O_16 
REMARK    4  A    between atoms: O_16  and  C_17 
REMARK    5  A    between atoms: C_17  and  C_18 
ROOT
HETATM    1  C   UNL     1     -40.482  53.198 -52.956  1.00  0.00    -0.013 A 
HETATM    2  C   UNL     1     -39.975  52.568 -51.802  1.00  0.00     0.053 A 
HETATM    3  C   UNL     1     -39.944  53.238 -50.531  1.00  0.00     0.100 C 
HETATM    4  N   UNL     1     -39.907  53.779 -49.505  1.00  0.00    -0.191 NA
HETATM    5  C   UNL     1     -39.481  51.259 -51.879  1.00  0.00     0.023 A 
HETATM    6  C   UNL     1     -39.483  50.572 -53.094  1.00  0.00     0.002 A 
HETATM    7  C   UNL     1     -39.980  51.189 -54.238  1.00  0.00     0.001 A 
HETATM    8  C   UNL     1     -40.476  52.491 -54.172  1.00  0.00     0.011 A 
ENDROOT
BRANCH   1   9
HETATM    9  C   UNL     1     -41.015  54.615 -52.925  1.00  0.00     0.216 C 
BRANCH   9  10
HETATM   10  O   UNL     1     -42.307  54.629 -53.530  1.00  0.00    -0.347 OA
BRANCH  10  11
HETATM   11  C   UNL     1     -42.446  55.397 -54.653  1.00  0.00     0.069 A 
HETATM   12  C   UNL     1     -42.164  56.758 -54.744  1.00  0.00     0.038 A 
HETATM   13  C   UNL     1     -42.310  57.422 -55.966  1.00  0.00     0.020 A 
HETATM   14  C   UNL     1     -42.730  56.729 -57.109  1.00  0.00     0.032 A 
HETATM   15  C   UNL     1     -43.039  55.368 -57.012  1.00  0.00     0.020 A 
HETATM   16  C   UNL     1     -42.885  54.708 -55.787  1.00  0.00     0.038 A 
BRANCH  14  17
HETATM   17  C   UNL     1     -42.813  57.487 -58.390  1.00  0.00     0.256 C 
HETATM   18  N   UNL     1     -41.977  58.589 -58.488  1.00  0.00    -0.323 N 
HETATM   19  H   UNL     1     -41.386  58.790 -57.691  1.00  0.00     0.169 HD
HETATM   20  O   UNL     1     -43.637  57.132 -59.225  1.00  0.00    -0.267 OA
BRANCH  18  21
HETATM   21  C   UNL     1     -41.963  59.551 -59.521  1.00  0.00     0.035 A 
HETATM   22  C   UNL     1     -41.891  60.928 -59.293  1.00  0.00     0.039 A 
HETATM   23  C   UNL     1     -41.806  61.786 -60.379  1.00  0.00    -0.022 A 
HETATM   24  C   UNL     1     -41.646  63.267 -60.355  1.00  0.00     0.274 C 
HETATM   25  C   UNL     1     -41.805  61.305 -61.688  1.00  0.00    -0.025 A 
HETATM   26  N   UNL     1     -41.758  63.693 -61.815  1.00  0.00    -0.067 N 
HETATM   27  C   UNL     1     -40.823  64.782 -62.204  1.00  0.00     0.270 C 
HETATM   28  H   UNL     1     -42.722  64.024 -61.937  1.00  0.00     0.280 HD
HETATM   29  C   UNL     1     -41.637  62.426 -62.655  1.00  0.00     0.273 C 
HETATM   30  C   UNL     1     -41.901  59.948 -61.939  1.00  0.00     0.012 A 
HETATM   31  C   UNL     1     -41.983  59.074 -60.848  1.00  0.00     0.030 A 
ENDBRANCH  18  21
ENDBRANCH  14  17
ENDBRANCH  10  11
ENDBRANCH   9  10
ENDBRANCH   1   9
TORSDOF 5
ENDMDL
MODEL 10
REMARK VINA RESULT:      -7.6      1.915     10.412
REMARK  5 active torsions:
REMARK  status: ('A' for Active; 'I' for Inactive)
REMARK    1  A    between atoms: C_9  and  N_10 
REMARK       I    between atoms: N_10  and  C_11 
REMARK    2  A    between atoms: C_11  and  C_12 
REMARK    3  A    between atoms: C_15  and  O_16 
REMARK    4  A    between atoms: O_16  and  C_17 
REMARK    5  A    between atoms: C_17  and  C_18 
ROOT
HETATM    1  C   UNL     1     -46.251  62.678 -49.771  1.00  0.00    -0.013 A 
HETATM    2  C   UNL     1     -44.955  62.667 -49.217  1.00  0.00     0.053 A 
HETATM    3  C   UNL     1     -43.792  62.435 -50.028  1.00  0.00     0.100 C 
HETATM    4  N   UNL     1     -42.850  62.237 -50.679  1.00  0.00    -0.191 NA
HETATM    5  C   UNL     1     -44.779  62.879 -47.843  1.00  0.00     0.023 A 
HETATM    6  C   UNL     1     -45.880  63.100 -47.015  1.00  0.00     0.002 A 
HETATM    7  C   UNL     1     -47.163  63.110 -47.554  1.00  0.00     0.001 A 
HETATM    8  C   UNL     1     -47.349  62.902 -48.921  1.00  0.00     0.011 A 
ENDROOT
BRANCH   1   9
HETATM    9  C   UNL     1     -46.492  62.441 -51.247  1.00  0.00     0.216 C 
BRANCH   9  10
HETATM   10  O   UNL     1     -46.876  61.080 -51.434  1.00  0.00    -0.347 OA
BRANCH  10  11
HETATM   11  C   UNL     1     -45.882  60.209 -51.783  1.00  0.00     0.069 A 
HETATM   12  C   UNL     1     -45.077  60.310 -52.916  1.00  0.00     0.038 A 
HETATM   13  C   UNL     1     -44.064  59.372 -53.139  1.00  0.00     0.020 A 
HETATM   14  C   UNL     1     -43.840  58.332 -52.228  1.00  0.00     0.032 A 
HETATM   15  C   UNL     1     -44.665  58.215 -51.104  1.00  0.00     0.020 A 
HETATM   16  C   UNL     1     -45.674  59.160 -50.883  1.00  0.00     0.038 A 
BRANCH  14  17
HETATM   17  C   UNL     1     -42.709  57.400 -52.501  1.00  0.00     0.256 C 
HETATM   18  N   UNL     1     -43.065  56.079 -52.730  1.00  0.00    -0.323 N 
HETATM   19  H   UNL     1     -44.052  55.856 -52.691  1.00  0.00     0.169 HD
HETATM   20  O   UNL     1     -41.566  57.838 -52.445  1.00  0.00    -0.267 OA
BRANCH  18  21
HETATM   21  C   UNL     1     -42.191  54.979 -52.865  1.00  0.00     0.035 A 
HETATM   22  C   UNL     1     -41.605  54.320 -51.781  1.00  0.00     0.039 A 
HETATM   23  C   UNL     1     -40.820  53.201 -52.018  1.00  0.00    -0.022 A 
HETATM   24  C   UNL     1     -40.172  52.318 -51.010  1.00  0.00     0.274 C 
HETATM   25  C   UNL     1     -40.595  52.732 -53.311  1.00  0.00    -0.025 A 
HETATM   26  N   UNL     1     -39.327  51.348 -51.829  1.00  0.00    -0.067 N 
HETATM   27  C   UNL     1     -39.329  49.954 -51.312  1.00  0.00     0.270 C 
HETATM   28  H   UNL     1     -38.368  51.714 -51.794  1.00  0.00     0.280 HD
HETATM   29  C   UNL     1     -39.780  51.485 -53.278  1.00  0.00     0.273 C 
HETATM   30  C   UNL     1     -41.144  53.382 -54.403  1.00  0.00     0.012 A 
HETATM   31  C   UNL     1     -41.941  54.510 -54.171  1.00  0.00     0.030 A 
ENDBRANCH  18  21
ENDBRANCH  14  17
ENDBRANCH  10  11
ENDBRANCH   9  10
ENDBRANCH   1   9
TORSDOF 5
ENDMDL
