MODEL 1
REMARK VINA RESULT:      -7.4      0.000      0.000
REMARK  6 active torsions:
REMARK  status: ('A' for Active; 'I' for Inactive)
REMARK    1  A    between atoms: O_2  and  C_3 
REMARK    2  A    between atoms: C_3  and  C_4 
REMARK    3  A    between atoms: C_7  and  C_8 
REMARK    4  A    between atoms: C_8  and  O_9 
REMARK    5  A    between atoms: O_9  and  C_10 
REMARK    6  A    between atoms: C_11  and  C_12 
ROOT
HETATM    1  C   UNL     1     -41.862  53.432 -53.741  1.00  0.00     0.079 A 
HETATM    2  C   UNL     1     -41.818  53.699 -52.359  1.00  0.00    -0.002 A 
HETATM    3  C   UNL     1     -40.746  53.226 -51.589  1.00  0.00     0.014 A 
HETATM    4  C   UNL     1     -39.731  52.480 -52.183  1.00  0.00     0.001 A 
HETATM    5  C   UNL     1     -39.784  52.196 -53.546  1.00  0.00     0.003 A 
HETATM    6  C   UNL     1     -40.847  52.665 -54.322  1.00  0.00     0.037 A 
ENDROOT
BRANCH   1   7
HETATM    7  O   UNL     1     -42.936  53.946 -54.424  1.00  0.00    -0.346 OA
BRANCH   7   8
HETATM    8  C   UNL     1     -42.690  54.772 -55.566  1.00  0.00     0.214 C 
BRANCH   8   9
HETATM    9  C   UNL     1     -43.256  56.171 -55.436  1.00  0.00    -0.034 A 
HETATM   10  C   UNL     1     -42.606  57.254 -56.042  1.00  0.00     0.010 A 
HETATM   11  C   UNL     1     -43.103  58.550 -55.894  1.00  0.00     0.018 A 
HETATM   12  C   UNL     1     -44.262  58.782 -55.140  1.00  0.00     0.039 A 
HETATM   13  C   UNL     1     -44.937  57.699 -54.566  1.00  0.00     0.018 A 
HETATM   14  C   UNL     1     -44.442  56.403 -54.723  1.00  0.00     0.010 A 
BRANCH  12  15
HETATM   15  C   UNL     1     -44.721  60.187 -54.970  1.00  0.00     0.292 C 
HETATM   16  O   UNL     1     -44.369  61.104 -55.696  1.00  0.00    -0.259 OA
BRANCH  15  17
HETATM   17  O   UNL     1     -45.534  60.294 -53.889  1.00  0.00    -0.323 OA
HETATM   18  C   UNL     1     -45.193  61.368 -53.012  1.00  0.00     0.213 C 
ENDBRANCH  15  17
ENDBRANCH  12  15
ENDBRANCH   8   9
ENDBRANCH   7   8
ENDBRANCH   1   7
BRANCH   2  19
HETATM   19  C   UNL     1     -42.865  54.479 -51.694  1.00  0.00     0.032 C 
HETATM   20  C   UNL     1     -42.914  55.818 -51.633  1.00  0.00     0.045 A 
HETATM   21  C   UNL     1     -44.029  56.500 -50.886  1.00  0.00     0.257 A 
HETATM   22  C   UNL     1     -42.043  56.867 -52.168  1.00  0.00     0.006 A 
HETATM   23  O   UNL     1     -44.963  55.981 -50.304  1.00  0.00    -0.267 OA
HETATM   24  N   UNL     1     -43.764  57.854 -51.008  1.00  0.00    -0.322 N 
HETATM   25  C   UNL     1     -42.610  58.079 -51.753  1.00  0.00     0.046 A 
HETATM   26  H   UNL     1     -44.352  58.564 -50.600  1.00  0.00     0.169 HD
HETATM   27  C   UNL     1     -42.062  59.305 -52.070  1.00  0.00     0.030 A 
HETATM   28  C   UNL     1     -40.895  59.308 -52.837  1.00  0.00     0.002 A 
HETATM   29  C   UNL     1     -40.314  58.100 -53.265  1.00  0.00     0.001 A 
HETATM   30  C   UNL     1     -40.888  56.867 -52.930  1.00  0.00     0.015 A 
ENDBRANCH   2  19
TORSDOF 6
ENDMDL
MODEL 2
REMARK VINA RESULT:      -7.3      2.007      5.367
REMARK  6 active torsions:
REMARK  status: ('A' for Active; 'I' for Inactive)
REMARK    1  A    between atoms: O_2  and  C_3 
REMARK    2  A    between atoms: C_3  and  C_4 
REMARK    3  A    between atoms: C_7  and  C_8 
REMARK    4  A    between atoms: C_8  and  O_9 
REMARK    5  A    between atoms: O_9  and  C_10 
REMARK    6  A    between atoms: C_11  and  C_12 
ROOT
HETATM    1  C   UNL     1     -43.458  56.304 -56.090  1.00  0.00     0.079 A 
HETATM    2  C   UNL     1     -43.796  57.521 -55.466  1.00  0.00    -0.002 A 
HETATM    3  C   UNL     1     -43.611  58.732 -56.147  1.00  0.00     0.014 A 
HETATM    4  C   UNL     1     -43.080  58.739 -57.435  1.00  0.00     0.001 A 
HETATM    5  C   UNL     1     -42.725  57.538 -58.046  1.00  0.00     0.003 A 
HETATM    6  C   UNL     1     -42.908  56.326 -57.376  1.00  0.00     0.037 A 
ENDROOT
BRANCH   1   7
HETATM    7  O   UNL     1     -43.688  55.164 -55.361  1.00  0.00    -0.346 OA
BRANCH   7   8
HETATM    8  C   UNL     1     -42.571  54.352 -54.989  1.00  0.00     0.214 C 
BRANCH   8   9
HETATM    9  C   UNL     1     -42.216  54.446 -53.519  1.00  0.00    -0.034 A 
HETATM   10  C   UNL     1     -43.216  54.333 -52.544  1.00  0.00     0.010 A 
HETATM   11  C   UNL     1     -42.899  54.456 -51.189  1.00  0.00     0.018 A 
HETATM   12  C   UNL     1     -41.576  54.689 -50.790  1.00  0.00     0.039 A 
HETATM   13  C   UNL     1     -40.568  54.762 -51.758  1.00  0.00     0.018 A 
HETATM   14  C   UNL     1     -40.886  54.630 -53.111  1.00  0.00     0.010 A 
BRANCH  12  15
HETATM   15  C   UNL     1     -41.300  54.863 -49.338  1.00  0.00     0.292 C 
HETATM   16  O   UNL     1     -41.197  55.953 -48.797  1.00  0.00    -0.259 OA
BRANCH  15  17
HETATM   17  O   UNL     1     -41.141  53.657 -48.737  1.00  0.00    -0.323 OA
HETATM   18  C   UNL     1     -40.297  53.690 -47.585  1.00  0.00     0.213 C 
ENDBRANCH  15  17
ENDBRANCH  12  15
ENDBRANCH   8   9
ENDBRANCH   7   8
ENDBRANCH   1   7
BRANCH   2  19
HETATM   19  C   UNL     1     -44.356  57.560 -54.112  1.00  0.00     0.032 C 
HETATM   20  C   UNL     1     -43.664  57.824 -52.994  1.00  0.00     0.045 A 
HETATM   21  C   UNL     1     -44.353  57.798 -51.655  1.00  0.00     0.257 A 
HETATM   22  C   UNL     1     -42.258  58.153 -52.753  1.00  0.00     0.006 A 
HETATM   23  O   UNL     1     -45.526  57.572 -51.425  1.00  0.00    -0.267 OA
HETATM   24  N   UNL     1     -43.359  58.092 -50.737  1.00  0.00    -0.322 N 
HETATM   25  C   UNL     1     -42.134  58.301 -51.365  1.00  0.00     0.046 A 
HETATM   26  H   UNL     1     -43.530  58.143 -49.745  1.00  0.00     0.169 HD
HETATM   27  C   UNL     1     -40.939  58.617 -50.752  1.00  0.00     0.030 A 
HETATM   28  C   UNL     1     -39.823  58.791 -51.573  1.00  0.00     0.002 A 
HETATM   29  C   UNL     1     -39.929  58.648 -52.969  1.00  0.00     0.001 A 
HETATM   30  C   UNL     1     -41.153  58.327 -53.568  1.00  0.00     0.015 A 
ENDBRANCH   2  19
TORSDOF 6
ENDMDL
MODEL 3
REMARK VINA RESULT:      -7.3     16.543     18.830
REMARK  6 active torsions:
REMARK  status: ('A' for Active; 'I' for Inactive)
REMARK    1  A    between atoms: O_2  and  C_3 
REMARK    2  A    between atoms: C_3  and  C_4 
REMARK    3  A    between atoms: C_7  and  C_8 
REMARK    4  A    between atoms: C_8  and  O_9 
REMARK    5  A    between atoms: O_9  and  C_10 
REMARK    6  A    between atoms: C_11  and  C_12 
ROOT
HETATM    1  C   UNL     1     -34.381  40.831 -52.174  1.00  0.00     0.079 A 
HETATM    2  C   UNL     1     -33.345  39.936 -52.504  1.00  0.00    -0.002 A 
HETATM    3  C   UNL     1     -33.052  38.860 -51.654  1.00  0.00     0.014 A 
HETATM    4  C   UNL     1     -33.773  38.680 -50.476  1.00  0.00     0.001 A 
HETATM    5  C   UNL     1     -34.784  39.576 -50.137  1.00  0.00     0.003 A 
HETATM    6  C   UNL     1     -35.085  40.651 -50.979  1.00  0.00     0.037 A 
ENDROOT
BRANCH   1   7
HETATM    7  O   UNL     1     -34.615  41.845 -53.069  1.00  0.00    -0.346 OA
BRANCH   7   8
HETATM    8  C   UNL     1     -35.968  42.171 -53.398  1.00  0.00     0.214 C 
BRANCH   8   9
HETATM    9  C   UNL     1     -36.275  42.061 -54.877  1.00  0.00    -0.034 A 
HETATM   10  C   UNL     1     -37.538  41.629 -55.305  1.00  0.00     0.010 A 
HETATM   11  C   UNL     1     -37.814  41.491 -56.667  1.00  0.00     0.018 A 
HETATM   12  C   UNL     1     -36.831  41.787 -57.622  1.00  0.00     0.039 A 
HETATM   13  C   UNL     1     -35.583  42.257 -57.200  1.00  0.00     0.018 A 
HETATM   14  C   UNL     1     -35.312  42.402 -55.838  1.00  0.00     0.010 A 
BRANCH  12  15
HETATM   15  C   UNL     1     -37.159  41.574 -59.057  1.00  0.00     0.292 C 
HETATM   16  O   UNL     1     -37.129  42.462 -59.895  1.00  0.00    -0.259 OA
BRANCH  15  17
HETATM   17  O   UNL     1     -37.529  40.287 -59.274  1.00  0.00    -0.323 OA
HETATM   18  C   UNL     1     -37.024  39.736 -60.491  1.00  0.00     0.213 C 
ENDBRANCH  15  17
ENDBRANCH  12  15
ENDBRANCH   8   9
ENDBRANCH   7   8
ENDBRANCH   1   7
BRANCH   2  19
HETATM   19  C   UNL     1     -32.561  40.088 -53.733  1.00  0.00     0.032 C 
HETATM   20  C   UNL     1     -32.954  39.702 -54.956  1.00  0.00     0.045 A 
HETATM   21  C   UNL     1     -32.037  39.884 -56.136  1.00  0.00     0.257 A 
HETATM   22  C   UNL     1     -34.181  39.075 -55.450  1.00  0.00     0.006 A 
HETATM   23  O   UNL     1     -30.924  40.377 -56.146  1.00  0.00    -0.267 OA
HETATM   24  N   UNL     1     -32.737  39.370 -57.215  1.00  0.00    -0.322 N 
HETATM   25  C   UNL     1     -33.988  38.896 -56.827  1.00  0.00     0.046 A 
HETATM   26  H   UNL     1     -32.365  39.356 -58.151  1.00  0.00     0.169 HD
HETATM   27  C   UNL     1     -34.942  38.326 -57.645  1.00  0.00     0.030 A 
HETATM   28  C   UNL     1     -36.138  37.921 -57.052  1.00  0.00     0.002 A 
HETATM   29  C   UNL     1     -36.350  38.095 -55.671  1.00  0.00     0.001 A 
HETATM   30  C   UNL     1     -35.367  38.675 -54.860  1.00  0.00     0.015 A 
ENDBRANCH   2  19
TORSDOF 6
ENDMDL
MODEL 4
REMARK VINA RESULT:      -7.0      1.920      6.069
REMARK  6 active torsions:
REMARK  status: ('A' for Active; 'I' for Inactive)
REMARK    1  A    between atoms: O_2  and  C_3 
REMARK    2  A    between atoms: C_3  and  C_4 
REMARK    3  A    between atoms: C_7  and  C_8 
REMARK    4  A    between atoms: C_8  and  O_9 
REMARK    5  A    between atoms: O_9  and  C_10 
REMARK    6  A    between atoms: C_11  and  C_12 
ROOT
HETATM    1  C   UNL     1     -43.554  57.096 -56.056  1.00  0.00     0.079 A 
HETATM    2  C   UNL     1     -44.151  58.102 -55.271  1.00  0.00    -0.002 A 
HETATM    3  C   UNL     1     -44.361  59.378 -55.810  1.00  0.00     0.014 A 
HETATM    4  C   UNL     1     -43.968  59.662 -57.116  1.00  0.00     0.001 A 
HETATM    5  C   UNL     1     -43.357  58.675 -57.887  1.00  0.00     0.003 A 
HETATM    6  C   UNL     1     -43.146  57.398 -57.359  1.00  0.00     0.037 A 
ENDROOT
BRANCH   1   7
HETATM    7  O   UNL     1     -43.402  55.870 -55.458  1.00  0.00    -0.346 OA
BRANCH   7   8
HETATM    8  C   UNL     1     -42.244  55.092 -55.774  1.00  0.00     0.214 C 
BRANCH   8   9
HETATM    9  C   UNL     1     -41.658  54.366 -54.581  1.00  0.00    -0.034 A 
HETATM   10  C   UNL     1     -40.676  53.384 -54.766  1.00  0.00     0.010 A 
HETATM   11  C   UNL     1     -40.159  52.686 -53.672  1.00  0.00     0.018 A 
HETATM   12  C   UNL     1     -40.614  52.964 -52.376  1.00  0.00     0.039 A 
HETATM   13  C   UNL     1     -41.565  53.972 -52.183  1.00  0.00     0.018 A 
HETATM   14  C   UNL     1     -42.074  54.674 -53.277  1.00  0.00     0.010 A 
BRANCH  12  15
HETATM   15  C   UNL     1     -40.069  52.157 -51.251  1.00  0.00     0.292 C 
HETATM   16  O   UNL     1     -40.235  52.441 -50.075  1.00  0.00    -0.259 OA
BRANCH  15  17
HETATM   17  O   UNL     1     -39.342  51.113 -51.723  1.00  0.00    -0.323 OA
HETATM   18  C   UNL     1     -39.486  49.914 -50.961  1.00  0.00     0.213 C 
ENDBRANCH  15  17
ENDBRANCH  12  15
ENDBRANCH   8   9
ENDBRANCH   7   8
ENDBRANCH   1   7
BRANCH   2  19
HETATM   19  C   UNL     1     -44.578  57.847 -53.892  1.00  0.00     0.032 C 
HETATM   20  C   UNL     1     -43.784  57.893 -52.813  1.00  0.00     0.045 A 
HETATM   21  C   UNL     1     -44.341  57.574 -51.451  1.00  0.00     0.257 A 
HETATM   22  C   UNL     1     -42.362  58.200 -52.641  1.00  0.00     0.006 A 
HETATM   23  O   UNL     1     -45.485  57.276 -51.165  1.00  0.00    -0.267 OA
HETATM   24  N   UNL     1     -43.265  57.698 -50.588  1.00  0.00    -0.322 N 
HETATM   25  C   UNL     1     -42.107  58.063 -51.270  1.00  0.00     0.046 A 
HETATM   26  H   UNL     1     -43.340  57.539 -49.596  1.00  0.00     0.169 HD
HETATM   27  C   UNL     1     -40.860  58.275 -50.719  1.00  0.00     0.030 A 
HETATM   28  C   UNL     1     -39.829  58.642 -51.586  1.00  0.00     0.002 A 
HETATM   29  C   UNL     1     -40.068  58.787 -52.965  1.00  0.00     0.001 A 
HETATM   30  C   UNL     1     -41.343  58.566 -53.502  1.00  0.00     0.015 A 
ENDBRANCH   2  19
TORSDOF 6
ENDMDL
MODEL 5
REMARK VINA RESULT:      -6.8      2.663      5.192
REMARK  6 active torsions:
REMARK  status: ('A' for Active; 'I' for Inactive)
REMARK    1  A    between atoms: O_2  and  C_3 
REMARK    2  A    between atoms: C_3  and  C_4 
REMARK    3  A    between atoms: C_7  and  C_8 
REMARK    4  A    between atoms: C_8  and  O_9 
REMARK    5  A    between atoms: O_9  and  C_10 
REMARK    6  A    between atoms: C_11  and  C_12 
ROOT
HETATM    1  C   UNL     1     -41.697  57.048 -53.793  1.00  0.00     0.079 A 
HETATM    2  C   UNL     1     -42.459  56.206 -52.961  1.00  0.00    -0.002 A 
HETATM    3  C   UNL     1     -43.700  55.725 -53.400  1.00  0.00     0.014 A 
HETATM    4  C   UNL     1     -44.191  56.088 -54.652  1.00  0.00     0.001 A 
HETATM    5  C   UNL     1     -43.449  56.939 -55.468  1.00  0.00     0.003 A 
HETATM    6  C   UNL     1     -42.209  57.422 -55.040  1.00  0.00     0.037 A 
ENDROOT
BRANCH   1   7
HETATM    7  O   UNL     1     -40.486  57.460 -53.295  1.00  0.00    -0.346 OA
BRANCH   7   8
HETATM    8  C   UNL     1     -40.231  58.863 -53.183  1.00  0.00     0.214 C 
BRANCH   8   9
HETATM    9  C   UNL     1     -41.207  59.585 -52.278  1.00  0.00    -0.034 A 
HETATM   10  C   UNL     1     -42.213  60.392 -52.826  1.00  0.00     0.010 A 
HETATM   11  C   UNL     1     -43.092  61.089 -51.995  1.00  0.00     0.018 A 
HETATM   12  C   UNL     1     -42.982  60.986 -50.602  1.00  0.00     0.039 A 
HETATM   13  C   UNL     1     -42.005  60.149 -50.050  1.00  0.00     0.018 A 
HETATM   14  C   UNL     1     -41.132  59.447 -50.883  1.00  0.00     0.010 A 
BRANCH  12  15
HETATM   15  C   UNL     1     -43.910  61.788 -49.761  1.00  0.00     0.292 C 
HETATM   16  O   UNL     1     -43.896  63.009 -49.718  1.00  0.00    -0.259 OA
BRANCH  15  17
HETATM   17  O   UNL     1     -44.721  60.975 -49.039  1.00  0.00    -0.323 OA
HETATM   18  C   UNL     1     -44.806  61.320 -47.655  1.00  0.00     0.213 C 
ENDBRANCH  15  17
ENDBRANCH  12  15
ENDBRANCH   8   9
ENDBRANCH   7   8
ENDBRANCH   1   7
BRANCH   2  19
HETATM   19  C   UNL     1     -41.981  55.799 -51.636  1.00  0.00     0.032 C 
HETATM   20  C   UNL     1     -41.273  54.691 -51.374  1.00  0.00     0.045 A 
HETATM   21  C   UNL     1     -40.871  54.369 -49.959  1.00  0.00     0.257 A 
HETATM   22  C   UNL     1     -40.762  53.617 -52.227  1.00  0.00     0.006 A 
HETATM   23  O   UNL     1     -41.097  55.016 -48.954  1.00  0.00    -0.267 OA
HETATM   24  N   UNL     1     -40.182  53.170 -50.048  1.00  0.00    -0.322 N 
HETATM   25  C   UNL     1     -40.112  52.723 -51.365  1.00  0.00     0.046 A 
HETATM   26  H   UNL     1     -39.791  52.705 -49.245  1.00  0.00     0.169 HD
HETATM   27  C   UNL     1     -39.497  51.571 -51.811  1.00  0.00     0.030 A 
HETATM   28  C   UNL     1     -39.538  51.310 -53.182  1.00  0.00     0.002 A 
HETATM   29  C   UNL     1     -40.184  52.198 -54.062  1.00  0.00     0.001 A 
HETATM   30  C   UNL     1     -40.802  53.361 -53.586  1.00  0.00     0.015 A 
ENDBRANCH   2  19
TORSDOF 6
ENDMDL
MODEL 6
REMARK VINA RESULT:      -6.7      1.575      2.112
REMARK  6 active torsions:
REMARK  status: ('A' for Active; 'I' for Inactive)
REMARK    1  A    between atoms: O_2  and  C_3 
REMARK    2  A    between atoms: C_3  and  C_4 
REMARK    3  A    between atoms: C_7  and  C_8 
REMARK    4  A    between atoms: C_8  and  O_9 
REMARK    5  A    between atoms: O_9  and  C_10 
REMARK    6  A    between atoms: C_11  and  C_12 
ROOT
HETATM    1  C   UNL     1     -42.131  54.358 -52.973  1.00  0.00     0.079 A 
HETATM    2  C   UNL     1     -42.518  54.743 -51.675  1.00  0.00    -0.002 A 
HETATM    3  C   UNL     1     -41.857  54.210 -50.560  1.00  0.00     0.014 A 
HETATM    4  C   UNL     1     -40.826  53.288 -50.730  1.00  0.00     0.001 A 
HETATM    5  C   UNL     1     -40.457  52.889 -52.012  1.00  0.00     0.003 A 
HETATM    6  C   UNL     1     -41.108  53.417 -53.130  1.00  0.00     0.037 A 
ENDROOT
BRANCH   1   7
HETATM    7  O   UNL     1     -42.817  54.941 -54.009  1.00  0.00    -0.346 OA
BRANCH   7   8
HETATM    8  C   UNL     1     -42.111  55.820 -54.890  1.00  0.00     0.214 C 
BRANCH   8   9
HETATM    9  C   UNL     1     -42.413  57.285 -54.654  1.00  0.00    -0.034 A 
HETATM   10  C   UNL     1     -43.739  57.733 -54.600  1.00  0.00     0.010 A 
HETATM   11  C   UNL     1     -44.022  59.089 -54.419  1.00  0.00     0.018 A 
HETATM   12  C   UNL     1     -42.980  60.017 -54.285  1.00  0.00     0.039 A 
HETATM   13  C   UNL     1     -41.655  59.569 -54.297  1.00  0.00     0.018 A 
HETATM   14  C   UNL     1     -41.375  58.212 -54.470  1.00  0.00     0.010 A 
BRANCH  12  15
HETATM   15  C   UNL     1     -43.334  61.455 -54.145  1.00  0.00     0.292 C 
HETATM   16  O   UNL     1     -42.992  62.145 -53.197  1.00  0.00    -0.259 OA
BRANCH  15  17
HETATM   17  O   UNL     1     -44.110  61.856 -55.183  1.00  0.00    -0.323 OA
HETATM   18  C   UNL     1     -43.373  62.249 -56.342  1.00  0.00     0.213 C 
ENDBRANCH  15  17
ENDBRANCH  12  15
ENDBRANCH   8   9
ENDBRANCH   7   8
ENDBRANCH   1   7
BRANCH   2  19
HETATM   19  C   UNL     1     -43.597  55.710 -51.451  1.00  0.00     0.032 C 
HETATM   20  C   UNL     1     -43.427  57.010 -51.172  1.00  0.00     0.045 A 
HETATM   21  C   UNL     1     -44.622  57.893 -50.928  1.00  0.00     0.257 A 
HETATM   22  C   UNL     1     -42.233  57.845 -51.026  1.00  0.00     0.006 A 
HETATM   23  O   UNL     1     -45.798  57.582 -50.963  1.00  0.00    -0.267 OA
HETATM   24  N   UNL     1     -44.092  59.143 -50.655  1.00  0.00    -0.322 N 
HETATM   25  C   UNL     1     -42.701  59.127 -50.710  1.00  0.00     0.046 A 
HETATM   26  H   UNL     1     -44.666  59.946 -50.448  1.00  0.00     0.169 HD
HETATM   27  C   UNL     1     -41.857  60.198 -50.495  1.00  0.00     0.030 A 
HETATM   28  C   UNL     1     -40.485  59.965 -50.605  1.00  0.00     0.002 A 
HETATM   29  C   UNL     1     -39.997  58.684 -50.924  1.00  0.00     0.001 A 
HETATM   30  C   UNL     1     -40.873  57.613 -51.137  1.00  0.00     0.015 A 
ENDBRANCH   2  19
TORSDOF 6
ENDMDL
MODEL 7
REMARK VINA RESULT:      -6.7      2.123      6.394
REMARK  6 active torsions:
REMARK  status: ('A' for Active; 'I' for Inactive)
REMARK    1  A    between atoms: O_2  and  C_3 
REMARK    2  A    between atoms: C_3  and  C_4 
REMARK    3  A    between atoms: C_7  and  C_8 
REMARK    4  A    between atoms: C_8  and  O_9 
REMARK    5  A    between atoms: O_9  and  C_10 
REMARK    6  A    between atoms: C_11  and  C_12 
ROOT
HETATM    1  C   UNL     1     -43.894  59.683 -54.152  1.00  0.00     0.079 A 
HETATM    2  C   UNL     1     -43.377  60.207 -52.951  1.00  0.00    -0.002 A 
HETATM    3  C   UNL     1     -44.185  61.008 -52.132  1.00  0.00     0.014 A 
HETATM    4  C   UNL     1     -45.494  61.301 -52.509  1.00  0.00     0.001 A 
HETATM    5  C   UNL     1     -46.000  60.802 -53.707  1.00  0.00     0.003 A 
HETATM    6  C   UNL     1     -45.203  59.999 -54.529  1.00  0.00     0.037 A 
ENDROOT
BRANCH   1   7
HETATM    7  O   UNL     1     -43.043  58.893 -54.885  1.00  0.00    -0.346 OA
BRANCH   7   8
HETATM    8  C   UNL     1     -43.511  57.621 -55.342  1.00  0.00     0.214 C 
BRANCH   8   9
HETATM    9  C   UNL     1     -42.708  56.453 -54.809  1.00  0.00    -0.034 A 
HETATM   10  C   UNL     1     -43.345  55.247 -54.488  1.00  0.00     0.010 A 
HETATM   11  C   UNL     1     -42.615  54.179 -53.962  1.00  0.00     0.018 A 
HETATM   12  C   UNL     1     -41.234  54.301 -53.753  1.00  0.00     0.039 A 
HETATM   13  C   UNL     1     -40.587  55.489 -54.109  1.00  0.00     0.018 A 
HETATM   14  C   UNL     1     -41.318  56.552 -54.643  1.00  0.00     0.010 A 
BRANCH  12  15
HETATM   15  C   UNL     1     -40.512  53.153 -53.142  1.00  0.00     0.292 C 
HETATM   16  O   UNL     1     -40.503  52.922 -51.943  1.00  0.00    -0.259 OA
BRANCH  15  17
HETATM   17  O   UNL     1     -39.848  52.449 -54.093  1.00  0.00    -0.323 OA
HETATM   18  C   UNL     1     -40.222  51.072 -54.162  1.00  0.00     0.213 C 
ENDBRANCH  15  17
ENDBRANCH  12  15
ENDBRANCH   8   9
ENDBRANCH   7   8
ENDBRANCH   1   7
BRANCH   2  19
HETATM   19  C   UNL     1     -42.006  59.925 -52.517  1.00  0.00     0.032 C 
HETATM   20  C   UNL     1     -41.614  58.832 -51.847  1.00  0.00     0.045 A 
HETATM   21  C   UNL     1     -40.176  58.677 -51.427  1.00  0.00     0.257 A 
HETATM   22  C   UNL     1     -42.335  57.647 -51.375  1.00  0.00     0.006 A 
HETATM   23  O   UNL     1     -39.254  59.443 -51.634  1.00  0.00    -0.267 OA
HETATM   24  N   UNL     1     -40.129  57.468 -50.753  1.00  0.00    -0.322 N 
HETATM   25  C   UNL     1     -41.381  56.859 -50.718  1.00  0.00     0.046 A 
HETATM   26  H   UNL     1     -39.281  57.100 -50.352  1.00  0.00     0.169 HD
HETATM   27  C   UNL     1     -41.690  55.648 -50.133  1.00  0.00     0.030 A 
HETATM   28  C   UNL     1     -43.014  55.214 -50.216  1.00  0.00     0.002 A 
HETATM   29  C   UNL     1     -43.984  55.992 -50.874  1.00  0.00     0.001 A 
HETATM   30  C   UNL     1     -43.647  57.218 -51.460  1.00  0.00     0.015 A 
ENDBRANCH   2  19
TORSDOF 6
ENDMDL
MODEL 8
REMARK VINA RESULT:      -6.6     16.326     18.794
REMARK  6 active torsions:
REMARK  status: ('A' for Active; 'I' for Inactive)
REMARK    1  A    between atoms: O_2  and  C_3 
REMARK    2  A    between atoms: C_3  and  C_4 
REMARK    3  A    between atoms: C_7  and  C_8 
REMARK    4  A    between atoms: C_8  and  O_9 
REMARK    5  A    between atoms: O_9  and  C_10 
REMARK    6  A    between atoms: C_11  and  C_12 
ROOT
HETATM    1  C   UNL     1     -34.017  38.813 -52.256  1.00  0.00     0.079 A 
HETATM    2  C   UNL     1     -34.648  39.976 -51.774  1.00  0.00    -0.002 A 
HETATM    3  C   UNL     1     -33.909  40.930 -51.061  1.00  0.00     0.014 A 
HETATM    4  C   UNL     1     -32.554  40.725 -50.813  1.00  0.00     0.001 A 
HETATM    5  C   UNL     1     -31.932  39.565 -51.270  1.00  0.00     0.003 A 
HETATM    6  C   UNL     1     -32.660  38.609 -51.984  1.00  0.00     0.037 A 
ENDROOT
BRANCH   1   7
HETATM    7  O   UNL     1     -34.808  37.940 -52.960  1.00  0.00    -0.346 OA
BRANCH   7   8
HETATM    8  C   UNL     1     -34.242  37.250 -54.078  1.00  0.00     0.214 C 
BRANCH   8   9
HETATM    9  C   UNL     1     -34.743  37.750 -55.416  1.00  0.00    -0.034 A 
HETATM   10  C   UNL     1     -36.115  37.932 -55.632  1.00  0.00     0.010 A 
HETATM   11  C   UNL     1     -36.585  38.358 -56.877  1.00  0.00     0.018 A 
HETATM   12  C   UNL     1     -35.687  38.613 -57.923  1.00  0.00     0.039 A 
HETATM   13  C   UNL     1     -34.313  38.472 -57.699  1.00  0.00     0.018 A 
HETATM   14  C   UNL     1     -33.846  38.054 -56.452  1.00  0.00     0.010 A 
BRANCH  12  15
HETATM   15  C   UNL     1     -36.242  39.015 -59.243  1.00  0.00     0.292 C 
HETATM   16  O   UNL     1     -35.766  38.661 -60.311  1.00  0.00    -0.259 OA
BRANCH  15  17
HETATM   17  O   UNL     1     -37.302  39.846 -59.080  1.00  0.00    -0.323 OA
HETATM   18  C   UNL     1     -37.292  40.978 -59.952  1.00  0.00     0.213 C 
ENDBRANCH  15  17
ENDBRANCH  12  15
ENDBRANCH   8   9
ENDBRANCH   7   8
ENDBRANCH   1   7
BRANCH   2  19
HETATM   19  C   UNL     1     -36.072  40.230 -52.012  1.00  0.00     0.032 C 
HETATM   20  C   UNL     1     -36.589  40.764 -53.129  1.00  0.00     0.045 A 
HETATM   21  C   UNL     1     -38.071  41.008 -53.234  1.00  0.00     0.257 A 
HETATM   22  C   UNL     1     -35.983  41.217 -54.383  1.00  0.00     0.006 A 
HETATM   23  O   UNL     1     -38.927  40.761 -52.406  1.00  0.00    -0.267 OA
HETATM   24  N   UNL     1     -38.251  41.573 -54.486  1.00  0.00    -0.322 N 
HETATM   25  C   UNL     1     -37.041  41.699 -55.164  1.00  0.00     0.046 A 
HETATM   26  H   UNL     1     -39.156  41.847 -54.835  1.00  0.00     0.169 HD
HETATM   27  C   UNL     1     -36.859  42.216 -56.430  1.00  0.00     0.030 A 
HETATM   28  C   UNL     1     -35.555  42.246 -56.929  1.00  0.00     0.002 A 
HETATM   29  C   UNL     1     -34.480  41.764 -56.159  1.00  0.00     0.001 A 
HETATM   30  C   UNL     1     -34.691  41.244 -54.876  1.00  0.00     0.015 A 
ENDBRANCH   2  19
TORSDOF 6
ENDMDL
MODEL 9
REMARK VINA RESULT:      -6.6      2.338      4.938
REMARK  6 active torsions:
REMARK  status: ('A' for Active; 'I' for Inactive)
REMARK    1  A    between atoms: O_2  and  C_3 
REMARK    2  A    between atoms: C_3  and  C_4 
REMARK    3  A    between atoms: C_7  and  C_8 
REMARK    4  A    between atoms: C_8  and  O_9 
REMARK    5  A    between atoms: O_9  and  C_10 
REMARK    6  A    between atoms: C_11  and  C_12 
ROOT
HETATM    1  C   UNL     1     -41.430  56.097 -54.475  1.00  0.00     0.079 A 
HETATM    2  C   UNL     1     -41.987  54.999 -53.791  1.00  0.00    -0.002 A 
HETATM    3  C   UNL     1     -42.911  54.166 -54.437  1.00  0.00     0.014 A 
HETATM    4  C   UNL     1     -43.293  54.429 -55.751  1.00  0.00     0.001 A 
HETATM    5  C   UNL     1     -42.760  55.527 -56.422  1.00  0.00     0.003 A 
HETATM    6  C   UNL     1     -41.836  56.361 -55.787  1.00  0.00     0.037 A 
ENDROOT
BRANCH   1   7
HETATM    7  O   UNL     1     -40.520  56.849 -53.776  1.00  0.00    -0.346 OA
BRANCH   7   8
HETATM    8  C   UNL     1     -40.764  58.250 -53.620  1.00  0.00     0.214 C 
BRANCH   8   9
HETATM    9  C   UNL     1     -42.091  58.564 -52.962  1.00  0.00    -0.034 A 
HETATM   10  C   UNL     1     -43.129  59.140 -53.707  1.00  0.00     0.010 A 
HETATM   11  C   UNL     1     -44.342  59.466 -53.095  1.00  0.00     0.018 A 
HETATM   12  C   UNL     1     -44.536  59.215 -51.730  1.00  0.00     0.039 A 
HETATM   13  C   UNL     1     -43.517  58.604 -50.992  1.00  0.00     0.018 A 
HETATM   14  C   UNL     1     -42.308  58.272 -51.607  1.00  0.00     0.010 A 
BRANCH  12  15
HETATM   15  C   UNL     1     -45.827  59.627 -51.117  1.00  0.00     0.292 C 
HETATM   16  O   UNL     1     -46.576  58.855 -50.537  1.00  0.00    -0.259 OA
BRANCH  15  17
HETATM   17  O   UNL     1     -46.057  60.947 -51.333  1.00  0.00    -0.323 OA
HETATM   18  C   UNL     1     -47.182  61.210 -52.173  1.00  0.00     0.213 C 
ENDBRANCH  15  17
ENDBRANCH  12  15
ENDBRANCH   8   9
ENDBRANCH   7   8
ENDBRANCH   1   7
BRANCH   2  19
HETATM   19  C   UNL     1     -41.614  54.687 -52.408  1.00  0.00     0.032 C 
HETATM   20  C   UNL     1     -41.004  53.563 -52.004  1.00  0.00     0.045 A 
HETATM   21  C   UNL     1     -40.706  53.348 -50.544  1.00  0.00     0.257 A 
HETATM   22  C   UNL     1     -40.528  52.380 -52.725  1.00  0.00     0.006 A 
HETATM   23  O   UNL     1     -40.938  54.101 -49.617  1.00  0.00    -0.267 OA
HETATM   24  N   UNL     1     -40.103  52.102 -50.483  1.00  0.00    -0.322 N 
HETATM   25  C   UNL     1     -39.994  51.529 -51.748  1.00  0.00     0.046 A 
HETATM   26  H   UNL     1     -39.792  51.689 -49.618  1.00  0.00     0.169 HD
HETATM   27  C   UNL     1     -39.442  50.301 -52.049  1.00  0.00     0.030 A 
HETATM   28  C   UNL     1     -39.426  49.916 -53.391  1.00  0.00     0.002 A 
HETATM   29  C   UNL     1     -39.956  50.759 -54.386  1.00  0.00     0.001 A 
HETATM   30  C   UNL     1     -40.512  52.001 -54.055  1.00  0.00     0.015 A 
ENDBRANCH   2  19
TORSDOF 6
ENDMDL
MODEL 10
REMARK VINA RESULT:      -6.5     16.398     19.360
REMARK  6 active torsions:
REMARK  status: ('A' for Active; 'I' for Inactive)
REMARK    1  A    between atoms: O_2  and  C_3 
REMARK    2  A    between atoms: C_3  and  C_4 
REMARK    3  A    between atoms: C_7  and  C_8 
REMARK    4  A    between atoms: C_8  and  O_9 
REMARK    5  A    between atoms: O_9  and  C_10 
REMARK    6  A    between atoms: C_11  and  C_12 
ROOT
HETATM    1  C   UNL     1     -35.444  41.040 -56.577  1.00  0.00     0.079 A 
HETATM    2  C   UNL     1     -36.287  41.545 -55.569  1.00  0.00    -0.002 A 
HETATM    3  C   UNL     1     -37.678  41.429 -55.696  1.00  0.00     0.014 A 
HETATM    4  C   UNL     1     -38.232  40.830 -56.825  1.00  0.00     0.001 A 
HETATM    5  C   UNL     1     -37.400  40.350 -57.835  1.00  0.00     0.003 A 
HETATM    6  C   UNL     1     -36.012  40.458 -57.715  1.00  0.00     0.037 A 
ENDROOT
BRANCH   1   7
HETATM    7  O   UNL     1     -34.094  41.177 -56.365  1.00  0.00    -0.346 OA
BRANCH   7   8
HETATM    8  C   UNL     1     -33.285  39.999 -56.318  1.00  0.00     0.214 C 
BRANCH   8   9
HETATM    9  C   UNL     1     -32.875  39.600 -54.916  1.00  0.00    -0.034 A 
HETATM   10  C   UNL     1     -33.016  38.273 -54.490  1.00  0.00     0.010 A 
HETATM   11  C   UNL     1     -32.674  37.909 -53.185  1.00  0.00     0.018 A 
HETATM   12  C   UNL     1     -32.181  38.867 -52.289  1.00  0.00     0.039 A 
HETATM   13  C   UNL     1     -32.000  40.185 -52.723  1.00  0.00     0.018 A 
HETATM   14  C   UNL     1     -32.335  40.545 -54.030  1.00  0.00     0.010 A 
BRANCH  12  15
HETATM   15  C   UNL     1     -31.879  38.439 -50.897  1.00  0.00     0.292 C 
HETATM   16  O   UNL     1     -32.088  37.310 -50.479  1.00  0.00    -0.259 OA
BRANCH  15  17
HETATM   17  O   UNL     1     -31.392  39.478 -50.174  1.00  0.00    -0.323 OA
HETATM   18  C   UNL     1     -32.228  39.869 -49.084  1.00  0.00     0.213 C 
ENDBRANCH  15  17
ENDBRANCH  12  15
ENDBRANCH   8   9
ENDBRANCH   7   8
ENDBRANCH   1   7
BRANCH   2  19
HETATM   19  C   UNL     1     -35.747  42.183 -54.365  1.00  0.00     0.032 C 
HETATM   20  C   UNL     1     -35.560  41.577 -53.183  1.00  0.00     0.045 A 
HETATM   21  C   UNL     1     -35.029  42.357 -52.010  1.00  0.00     0.257 A 
HETATM   22  C   UNL     1     -35.787  40.204 -52.727  1.00  0.00     0.006 A 
HETATM   23  O   UNL     1     -34.708  43.529 -51.979  1.00  0.00    -0.267 OA
HETATM   24  N   UNL     1     -34.980  41.445 -50.968  1.00  0.00    -0.322 N 
HETATM   25  C   UNL     1     -35.419  40.187 -51.375  1.00  0.00     0.046 A 
HETATM   26  H   UNL     1     -34.661  41.689 -50.044  1.00  0.00     0.169 HD
HETATM   27  C   UNL     1     -35.496  39.052 -50.595  1.00  0.00     0.030 A 
HETATM   28  C   UNL     1     -35.962  37.885 -51.204  1.00  0.00     0.002 A 
HETATM   29  C   UNL     1     -36.334  37.883 -52.561  1.00  0.00     0.001 A 
HETATM   30  C   UNL     1     -36.248  39.049 -53.332  1.00  0.00     0.015 A 
ENDBRANCH   2  19
TORSDOF 6
ENDMDL
