MODEL 1
REMARK VINA RESULT:      -8.2      0.000      0.000
REMARK  5 active torsions:
REMARK  status: ('A' for Active; 'I' for Inactive)
REMARK       I    between atoms: C_2  and  N_3 
REMARK    1  A    between atoms: C_2  and  C_11 
REMARK    2  A    between atoms: N_3  and  C_4 
REMARK    3  A    between atoms: C_4  and  C_5 
REMARK    4  A    between atoms: C_5  and  C_6 
REMARK    5  A    between atoms: C_17  and  C_21 
ROOT
HETATM    1  C   UNL     1     -41.646  56.985 -53.576  1.00  0.00     0.059 A 
HETATM    2  C   UNL     1     -41.922  57.071 -52.218  1.00  0.00     0.106 A 
HETATM    3  N   UNL     1     -41.678  55.852 -51.644  1.00  0.00    -0.364 N 
HETATM    4  H   UNL     1     -41.791  55.636 -50.663  1.00  0.00     0.165 HD
HETATM    5  C   UNL     1     -41.235  54.959 -52.590  1.00  0.00     0.044 A 
HETATM    6  C   UNL     1     -40.856  53.616 -52.451  1.00  0.00     0.042 A 
HETATM    7  C   UNL     1     -40.434  52.919 -53.597  1.00  0.00    -0.021 A 
HETATM    8  C   UNL     1     -40.405  53.577 -54.832  1.00  0.00     0.013 A 
HETATM    9  C   UNL     1     -40.785  54.922 -54.950  1.00  0.00     0.016 A 
HETATM   10  C   UNL     1     -41.208  55.635 -53.809  1.00  0.00     0.008 A 
ENDROOT
BRANCH   1  11
HETATM   11  C   UNL     1     -41.751  58.055 -54.571  1.00  0.00     0.253 C 
HETATM   12  O   UNL     1     -41.142  59.116 -54.472  1.00  0.00    -0.268 OA
HETATM   13  N   UNL     1     -42.575  57.780 -55.643  1.00  0.00    -0.356 N 
HETATM   14  H   UNL     1     -42.838  56.815 -55.795  1.00  0.00     0.162 HD
BRANCH  13  15
HETATM   15  C   UNL     1     -42.669  58.686 -56.771  1.00  0.00     0.128 C 
BRANCH  15  16
HETATM   16  C   UNL     1     -42.091  58.092 -58.056  1.00  0.00     0.066 C 
BRANCH  16  17
HETATM   17  C   UNL     1     -43.062  57.177 -58.751  1.00  0.00    -0.016 A 
HETATM   18  C   UNL     1     -42.808  55.952 -59.335  1.00  0.00     0.015 A 
HETATM   19  C   UNL     1     -43.981  55.366 -59.895  1.00  0.00     0.008 A 
HETATM   20  C   UNL     1     -45.089  56.166 -59.724  1.00  0.00     0.050 A 
HETATM   21  S   UNL     1     -44.714  57.613 -58.894  1.00  0.00    -0.107 SA
ENDBRANCH  16  17
ENDBRANCH  15  16
ENDBRANCH  13  15
ENDBRANCH   1  11
BRANCH   7  22
HETATM   22  C   UNL     1     -40.020  51.531 -53.480  1.00  0.00     0.010 A 
HETATM   23  C   UNL     1     -39.945  50.504 -54.450  1.00  0.00     0.152 A 
HETATM   24  N   UNL     1     -39.496  49.349 -53.949  1.00  0.00    -0.187 NA
HETATM   25  N   UNL     1     -39.285  49.632 -52.654  1.00  0.00    -0.289 N 
HETATM   26  H   UNL     1     -38.934  48.895 -52.051  1.00  0.00     0.188 HD
HETATM   27  C   UNL     1     -39.579  50.923 -52.322  1.00  0.00     0.123 A 
ENDBRANCH   7  22
TORSDOF 5
ENDMDL
MODEL 2
REMARK VINA RESULT:      -7.8      1.550      2.200
REMARK  5 active torsions:
REMARK  status: ('A' for Active; 'I' for Inactive)
REMARK       I    between atoms: C_2  and  N_3 
REMARK    1  A    between atoms: C_2  and  C_11 
REMARK    2  A    between atoms: N_3  and  C_4 
REMARK    3  A    between atoms: C_4  and  C_5 
REMARK    4  A    between atoms: C_5  and  C_6 
REMARK    5  A    between atoms: C_17  and  C_21 
ROOT
HETATM    1  C   UNL     1     -41.431  57.041 -53.250  1.00  0.00     0.059 A 
HETATM    2  C   UNL     1     -41.720  57.052 -51.893  1.00  0.00     0.106 A 
HETATM    3  N   UNL     1     -41.532  55.790 -51.395  1.00  0.00    -0.364 N 
HETATM    4  H   UNL     1     -41.666  55.517 -50.432  1.00  0.00     0.165 HD
HETATM    5  C   UNL     1     -41.113  54.942 -52.392  1.00  0.00     0.044 A 
HETATM    6  C   UNL     1     -40.789  53.578 -52.336  1.00  0.00     0.042 A 
HETATM    7  C   UNL     1     -40.381  52.939 -53.520  1.00  0.00    -0.021 A 
HETATM    8  C   UNL     1     -40.310  53.672 -54.710  1.00  0.00     0.013 A 
HETATM    9  C   UNL     1     -40.635  55.036 -54.745  1.00  0.00     0.016 A 
HETATM   10  C   UNL     1     -41.044  55.692 -53.565  1.00  0.00     0.008 A 
ENDROOT
BRANCH   1  11
HETATM   11  C   UNL     1     -41.481  58.175 -54.177  1.00  0.00     0.253 C 
HETATM   12  O   UNL     1     -40.804  59.187 -54.024  1.00  0.00    -0.268 OA
HETATM   13  N   UNL     1     -42.337  58.020 -55.248  1.00  0.00    -0.356 N 
HETATM   14  H   UNL     1     -42.663  57.086 -55.453  1.00  0.00     0.162 HD
BRANCH  13  15
HETATM   15  C   UNL     1     -42.389  58.999 -56.316  1.00  0.00     0.128 C 
BRANCH  15  16
HETATM   16  C   UNL     1     -42.304  58.363 -57.705  1.00  0.00     0.066 C 
BRANCH  16  17
HETATM   17  C   UNL     1     -42.055  59.381 -58.785  1.00  0.00    -0.016 A 
HETATM   18  C   UNL     1     -41.692  60.705 -58.639  1.00  0.00     0.015 A 
HETATM   19  C   UNL     1     -41.539  61.366 -59.892  1.00  0.00     0.008 A 
HETATM   20  C   UNL     1     -41.794  60.525 -60.952  1.00  0.00     0.050 A 
HETATM   21  S   UNL     1     -42.216  58.951 -60.436  1.00  0.00    -0.107 SA
ENDBRANCH  16  17
ENDBRANCH  15  16
ENDBRANCH  13  15
ENDBRANCH   1  11
BRANCH   7  22
HETATM   22  C   UNL     1     -40.023  51.530 -53.487  1.00  0.00     0.010 A 
HETATM   23  C   UNL     1     -39.959  50.569 -54.523  1.00  0.00     0.152 A 
HETATM   24  N   UNL     1     -39.569  49.366 -54.092  1.00  0.00    -0.187 NA
HETATM   25  N   UNL     1     -39.384  49.553 -52.774  1.00  0.00    -0.289 N 
HETATM   26  H   UNL     1     -39.079  48.763 -52.215  1.00  0.00     0.188 HD
HETATM   27  C   UNL     1     -39.639  50.829 -52.363  1.00  0.00     0.123 A 
ENDBRANCH   7  22
TORSDOF 5
ENDMDL
MODEL 3
REMARK VINA RESULT:      -7.5     14.732     16.870
REMARK  5 active torsions:
REMARK  status: ('A' for Active; 'I' for Inactive)
REMARK       I    between atoms: C_2  and  N_3 
REMARK    1  A    between atoms: C_2  and  C_11 
REMARK    2  A    between atoms: N_3  and  C_4 
REMARK    3  A    between atoms: C_4  and  C_5 
REMARK    4  A    between atoms: C_5  and  C_6 
REMARK    5  A    between atoms: C_17  and  C_21 
ROOT
HETATM    1  C   UNL     1     -36.242  41.681 -52.997  1.00  0.00     0.059 A 
HETATM    2  C   UNL     1     -37.558  41.386 -52.672  1.00  0.00     0.106 A 
HETATM    3  N   UNL     1     -38.270  41.228 -53.832  1.00  0.00    -0.364 N 
HETATM    4  H   UNL     1     -39.254  41.001 -53.886  1.00  0.00     0.165 HD
HETATM    5  C   UNL     1     -37.451  41.400 -54.921  1.00  0.00     0.044 A 
HETATM    6  C   UNL     1     -37.745  41.316 -56.290  1.00  0.00     0.042 A 
HETATM    7  C   UNL     1     -36.707  41.540 -57.211  1.00  0.00    -0.021 A 
HETATM    8  C   UNL     1     -35.422  41.837 -56.744  1.00  0.00     0.013 A 
HETATM    9  C   UNL     1     -35.147  41.913 -55.370  1.00  0.00     0.016 A 
HETATM   10  C   UNL     1     -36.177  41.689 -54.434  1.00  0.00     0.008 A 
ENDROOT
BRANCH   1  11
HETATM   11  C   UNL     1     -35.130  41.911 -52.070  1.00  0.00     0.253 C 
HETATM   12  O   UNL     1     -34.743  43.035 -51.765  1.00  0.00    -0.268 OA
HETATM   13  N   UNL     1     -34.554  40.770 -51.551  1.00  0.00    -0.356 N 
HETATM   14  H   UNL     1     -35.070  39.905 -51.636  1.00  0.00     0.162 HD
BRANCH  13  15
HETATM   15  C   UNL     1     -33.537  40.845 -50.520  1.00  0.00     0.128 C 
BRANCH  15  16
HETATM   16  C   UNL     1     -32.365  39.896 -50.775  1.00  0.00     0.066 C 
BRANCH  16  17
HETATM   17  C   UNL     1     -32.243  39.516 -52.226  1.00  0.00    -0.016 A 
HETATM   18  C   UNL     1     -31.950  40.335 -53.298  1.00  0.00     0.015 A 
HETATM   19  C   UNL     1     -31.913  39.620 -54.531  1.00  0.00     0.008 A 
HETATM   20  C   UNL     1     -32.181  38.281 -54.358  1.00  0.00     0.050 A 
HETATM   21  S   UNL     1     -32.478  37.892 -52.720  1.00  0.00    -0.107 SA
ENDBRANCH  16  17
ENDBRANCH  15  16
ENDBRANCH  13  15
ENDBRANCH   1  11
BRANCH   7  22
HETATM   22  C   UNL     1     -36.980  41.444 -58.636  1.00  0.00     0.010 A 
HETATM   23  C   UNL     1     -37.128  40.314 -59.475  1.00  0.00     0.152 A 
HETATM   24  N   UNL     1     -37.392  40.640 -60.743  1.00  0.00    -0.187 NA
HETATM   25  N   UNL     1     -37.412  41.983 -60.722  1.00  0.00    -0.289 N 
HETATM   26  H   UNL     1     -37.598  42.475 -61.590  1.00  0.00     0.188 HD
HETATM   27  C   UNL     1     -37.175  42.512 -59.487  1.00  0.00     0.123 A 
ENDBRANCH   7  22
TORSDOF 5
ENDMDL
MODEL 4
REMARK VINA RESULT:      -7.4      1.939      2.582
REMARK  5 active torsions:
REMARK  status: ('A' for Active; 'I' for Inactive)
REMARK       I    between atoms: C_2  and  N_3 
REMARK    1  A    between atoms: C_2  and  C_11 
REMARK    2  A    between atoms: N_3  and  C_4 
REMARK    3  A    between atoms: C_4  and  C_5 
REMARK    4  A    between atoms: C_5  and  C_6 
REMARK    5  A    between atoms: C_17  and  C_21 
ROOT
HETATM    1  C   UNL     1     -41.597  56.454 -51.567  1.00  0.00     0.059 A 
HETATM    2  C   UNL     1     -41.268  56.393 -50.221  1.00  0.00     0.106 A 
HETATM    3  N   UNL     1     -40.769  55.147 -49.947  1.00  0.00    -0.364 N 
HETATM    4  H   UNL     1     -40.445  54.834 -49.043  1.00  0.00     0.165 HD
HETATM    5  C   UNL     1     -40.749  54.381 -51.088  1.00  0.00     0.044 A 
HETATM    6  C   UNL     1     -40.311  53.063 -51.278  1.00  0.00     0.042 A 
HETATM    7  C   UNL     1     -40.401  52.508 -52.567  1.00  0.00    -0.021 A 
HETATM    8  C   UNL     1     -40.921  53.277 -53.614  1.00  0.00     0.013 A 
HETATM    9  C   UNL     1     -41.352  54.595 -53.404  1.00  0.00     0.016 A 
HETATM   10  C   UNL     1     -41.265  55.167 -52.118  1.00  0.00     0.008 A 
ENDROOT
BRANCH   1  11
HETATM   11  C   UNL     1     -42.147  57.600 -52.295  1.00  0.00     0.253 C 
HETATM   12  O   UNL     1     -41.442  58.404 -52.899  1.00  0.00    -0.268 OA
HETATM   13  N   UNL     1     -43.523  57.708 -52.267  1.00  0.00    -0.356 N 
HETATM   14  H   UNL     1     -44.049  56.894 -51.979  1.00  0.00     0.162 HD
BRANCH  13  15
HETATM   15  C   UNL     1     -44.214  58.710 -53.053  1.00  0.00     0.128 C 
BRANCH  15  16
HETATM   16  C   UNL     1     -44.841  58.136 -54.325  1.00  0.00     0.066 C 
BRANCH  16  17
HETATM   17  C   UNL     1     -43.890  58.158 -55.491  1.00  0.00    -0.016 A 
HETATM   18  C   UNL     1     -43.442  57.090 -56.244  1.00  0.00     0.015 A 
HETATM   19  C   UNL     1     -42.547  57.495 -57.278  1.00  0.00     0.008 A 
HETATM   20  C   UNL     1     -42.340  58.856 -57.276  1.00  0.00     0.050 A 
HETATM   21  S   UNL     1     -43.218  59.638 -56.035  1.00  0.00    -0.107 SA
ENDBRANCH  16  17
ENDBRANCH  15  16
ENDBRANCH  13  15
ENDBRANCH   1  11
BRANCH   7  22
HETATM   22  C   UNL     1     -39.939  51.149 -52.796  1.00  0.00     0.010 A 
HETATM   23  C   UNL     1     -39.724  50.436 -53.999  1.00  0.00     0.152 A 
HETATM   24  N   UNL     1     -39.275  49.194 -53.794  1.00  0.00    -0.187 NA
HETATM   25  N   UNL     1     -39.203  49.107 -52.456  1.00  0.00    -0.289 N 
HETATM   26  H   UNL     1     -38.881  48.235 -52.048  1.00  0.00     0.188 HD
HETATM   27  C   UNL     1     -39.586  50.248 -51.813  1.00  0.00     0.123 A 
ENDBRANCH   7  22
TORSDOF 5
ENDMDL
MODEL 5
REMARK VINA RESULT:      -7.3      1.993      2.499
REMARK  5 active torsions:
REMARK  status: ('A' for Active; 'I' for Inactive)
REMARK       I    between atoms: C_2  and  N_3 
REMARK    1  A    between atoms: C_2  and  C_11 
REMARK    2  A    between atoms: N_3  and  C_4 
REMARK    3  A    between atoms: C_4  and  C_5 
REMARK    4  A    between atoms: C_5  and  C_6 
REMARK    5  A    between atoms: C_17  and  C_21 
ROOT
HETATM    1  C   UNL     1     -44.069  57.085 -54.718  1.00  0.00     0.059 A 
HETATM    2  C   UNL     1     -44.636  57.188 -53.456  1.00  0.00     0.106 A 
HETATM    3  N   UNL     1     -44.097  56.217 -52.654  1.00  0.00    -0.364 N 
HETATM    4  H   UNL     1     -44.329  56.070 -51.681  1.00  0.00     0.165 HD
HETATM    5  C   UNL     1     -43.176  55.477 -53.354  1.00  0.00     0.044 A 
HETATM    6  C   UNL     1     -42.378  54.403 -52.933  1.00  0.00     0.042 A 
HETATM    7  C   UNL     1     -41.504  53.815 -53.864  1.00  0.00    -0.021 A 
HETATM    8  C   UNL     1     -41.453  54.312 -55.171  1.00  0.00     0.013 A 
HETATM    9  C   UNL     1     -42.257  55.389 -55.572  1.00  0.00     0.016 A 
HETATM   10  C   UNL     1     -43.137  55.991 -54.649  1.00  0.00     0.008 A 
ENDROOT
BRANCH   1  11
HETATM   11  C   UNL     1     -44.338  57.931 -55.884  1.00  0.00     0.253 C 
HETATM   12  O   UNL     1     -43.529  58.750 -56.311  1.00  0.00    -0.268 OA
HETATM   13  N   UNL     1     -45.566  57.734 -56.480  1.00  0.00    -0.356 N 
HETATM   14  H   UNL     1     -46.069  56.888 -56.246  1.00  0.00     0.162 HD
BRANCH  13  15
HETATM   15  C   UNL     1     -45.915  58.400 -57.720  1.00  0.00     0.128 C 
BRANCH  15  16
HETATM   16  C   UNL     1     -45.840  57.471 -58.933  1.00  0.00     0.066 C 
BRANCH  16  17
HETATM   17  C   UNL     1     -44.429  57.274 -59.415  1.00  0.00    -0.016 A 
HETATM   18  C   UNL     1     -43.599  58.199 -60.017  1.00  0.00     0.015 A 
HETATM   19  C   UNL     1     -42.321  57.654 -60.335  1.00  0.00     0.008 A 
HETATM   20  C   UNL     1     -42.220  56.331 -59.968  1.00  0.00     0.050 A 
HETATM   21  S   UNL     1     -43.658  55.752 -59.248  1.00  0.00    -0.107 SA
ENDBRANCH  16  17
ENDBRANCH  15  16
ENDBRANCH  13  15
ENDBRANCH   1  11
BRANCH   7  22
HETATM   22  C   UNL     1     -40.654  52.710 -53.451  1.00  0.00     0.010 A 
HETATM   23  C   UNL     1     -40.059  52.419 -52.201  1.00  0.00     0.152 A 
HETATM   24  N   UNL     1     -39.350  51.287 -52.214  1.00  0.00    -0.187 NA
HETATM   25  N   UNL     1     -39.486  50.849 -53.477  1.00  0.00    -0.289 N 
HETATM   26  H   UNL     1     -39.026  49.984 -53.738  1.00  0.00     0.188 HD
HETATM   27  C   UNL     1     -40.258  51.662 -54.255  1.00  0.00     0.123 A 
ENDBRANCH   7  22
TORSDOF 5
ENDMDL
MODEL 6
REMARK VINA RESULT:      -7.2      4.133      5.216
REMARK  5 active torsions:
REMARK  status: ('A' for Active; 'I' for Inactive)
REMARK       I    between atoms: C_2  and  N_3 
REMARK    1  A    between atoms: C_2  and  C_11 
REMARK    2  A    between atoms: N_3  and  C_4 
REMARK    3  A    between atoms: C_4  and  C_5 
REMARK    4  A    between atoms: C_5  and  C_6 
REMARK    5  A    between atoms: C_17  and  C_21 
ROOT
HETATM    1  C   UNL     1     -41.497  56.469 -50.931  1.00  0.00     0.059 A 
HETATM    2  C   UNL     1     -41.445  56.051 -49.609  1.00  0.00     0.106 A 
HETATM    3  N   UNL     1     -41.110  54.723 -49.582  1.00  0.00    -0.364 N 
HETATM    4  H   UNL     1     -40.997  54.167 -48.745  1.00  0.00     0.165 HD
HETATM    5  C   UNL     1     -40.928  54.252 -50.859  1.00  0.00     0.044 A 
HETATM    6  C   UNL     1     -40.567  52.970 -51.302  1.00  0.00     0.042 A 
HETATM    7  C   UNL     1     -40.446  52.751 -52.685  1.00  0.00    -0.021 A 
HETATM    8  C   UNL     1     -40.687  53.805 -53.574  1.00  0.00     0.013 A 
HETATM    9  C   UNL     1     -41.044  55.080 -53.111  1.00  0.00     0.016 A 
HETATM   10  C   UNL     1     -41.166  55.316 -51.727  1.00  0.00     0.008 A 
ENDROOT
BRANCH   1  11
HETATM   11  C   UNL     1     -41.800  57.814 -51.425  1.00  0.00     0.253 C 
HETATM   12  O   UNL     1     -42.266  58.022 -52.541  1.00  0.00    -0.268 OA
HETATM   13  N   UNL     1     -41.537  58.838 -50.537  1.00  0.00    -0.356 N 
HETATM   14  H   UNL     1     -41.401  58.591 -49.566  1.00  0.00     0.162 HD
BRANCH  13  15
HETATM   15  C   UNL     1     -41.913  60.206 -50.835  1.00  0.00     0.128 C 
BRANCH  15  16
HETATM   16  C   UNL     1     -43.017  60.730 -49.915  1.00  0.00     0.066 C 
BRANCH  16  17
HETATM   17  C   UNL     1     -44.364  60.735 -50.584  1.00  0.00    -0.016 A 
HETATM   18  C   UNL     1     -45.137  59.651 -50.950  1.00  0.00     0.015 A 
HETATM   19  C   UNL     1     -46.364  60.042 -51.559  1.00  0.00     0.008 A 
HETATM   20  C   UNL     1     -46.485  61.411 -51.642  1.00  0.00     0.050 A 
HETATM   21  S   UNL     1     -45.126  62.216 -50.990  1.00  0.00    -0.107 SA
ENDBRANCH  16  17
ENDBRANCH  15  16
ENDBRANCH  13  15
ENDBRANCH   1  11
BRANCH   7  22
HETATM   22  C   UNL     1     -40.058  51.438 -53.172  1.00  0.00     0.010 A 
HETATM   23  C   UNL     1     -39.596  50.295 -52.478  1.00  0.00     0.152 A 
HETATM   24  N   UNL     1     -39.354  49.259 -53.287  1.00  0.00    -0.187 NA
HETATM   25  N   UNL     1     -39.658  49.737 -54.505  1.00  0.00    -0.289 N 
HETATM   26  H   UNL     1     -39.552  49.120 -55.303  1.00  0.00     0.188 HD
HETATM   27  C   UNL     1     -40.087  51.032 -54.490  1.00  0.00     0.123 A 
ENDBRANCH   7  22
TORSDOF 5
ENDMDL
MODEL 7
REMARK VINA RESULT:      -7.2     14.780     17.533
REMARK  5 active torsions:
REMARK  status: ('A' for Active; 'I' for Inactive)
REMARK       I    between atoms: C_2  and  N_3 
REMARK    1  A    between atoms: C_2  and  C_11 
REMARK    2  A    between atoms: N_3  and  C_4 
REMARK    3  A    between atoms: C_4  and  C_5 
REMARK    4  A    between atoms: C_5  and  C_6 
REMARK    5  A    between atoms: C_17  and  C_21 
ROOT
HETATM    1  C   UNL     1     -35.749  41.572 -53.073  1.00  0.00     0.059 A 
HETATM    2  C   UNL     1     -37.071  41.462 -52.665  1.00  0.00     0.106 A 
HETATM    3  N   UNL     1     -37.873  41.450 -53.776  1.00  0.00    -0.364 N 
HETATM    4  H   UNL     1     -38.880  41.372 -53.767  1.00  0.00     0.165 HD
HETATM    5  C   UNL     1     -37.110  41.539 -54.915  1.00  0.00     0.044 A 
HETATM    6  C   UNL     1     -37.502  41.548 -56.262  1.00  0.00     0.042 A 
HETATM    7  C   UNL     1     -36.504  41.650 -57.247  1.00  0.00    -0.021 A 
HETATM    8  C   UNL     1     -35.162  41.739 -56.863  1.00  0.00     0.013 A 
HETATM    9  C   UNL     1     -34.790  41.725 -55.511  1.00  0.00     0.016 A 
HETATM   10  C   UNL     1     -35.778  41.621 -54.511  1.00  0.00     0.008 A 
ENDROOT
BRANCH   1  11
HETATM   11  C   UNL     1     -34.558  41.605 -52.221  1.00  0.00     0.253 C 
HETATM   12  O   UNL     1     -34.529  42.190 -51.142  1.00  0.00    -0.268 OA
HETATM   13  N   UNL     1     -33.467  40.916 -52.711  1.00  0.00    -0.356 N 
HETATM   14  H   UNL     1     -33.629  40.257 -53.460  1.00  0.00     0.162 HD
BRANCH  13  15
HETATM   15  C   UNL     1     -32.267  40.747 -51.916  1.00  0.00     0.128 C 
BRANCH  15  16
HETATM   16  C   UNL     1     -31.941  39.277 -51.643  1.00  0.00     0.066 C 
BRANCH  16  17
HETATM   17  C   UNL     1     -32.109  38.915 -50.192  1.00  0.00    -0.016 A 
HETATM   18  C   UNL     1     -31.864  39.703 -49.085  1.00  0.00     0.015 A 
HETATM   19  C   UNL     1     -32.144  39.022 -47.864  1.00  0.00     0.008 A 
HETATM   20  C   UNL     1     -32.589  37.737 -48.081  1.00  0.00     0.050 A 
HETATM   21  S   UNL     1     -32.666  37.357 -49.746  1.00  0.00    -0.107 SA
ENDBRANCH  16  17
ENDBRANCH  15  16
ENDBRANCH  13  15
ENDBRANCH   1  11
BRANCH   7  22
HETATM   22  C   UNL     1     -36.881  41.645 -58.651  1.00  0.00     0.010 A 
HETATM   23  C   UNL     1     -37.223  42.707 -59.520  1.00  0.00     0.152 A 
HETATM   24  N   UNL     1     -37.498  42.295 -60.761  1.00  0.00    -0.187 NA
HETATM   25  N   UNL     1     -37.335  40.964 -60.690  1.00  0.00    -0.289 N 
HETATM   26  H   UNL     1     -37.492  40.415 -61.530  1.00  0.00     0.188 HD
HETATM   27  C   UNL     1     -36.964  40.525 -59.453  1.00  0.00     0.123 A 
ENDBRANCH   7  22
TORSDOF 5
ENDMDL
MODEL 8
REMARK VINA RESULT:      -7.1      2.674      4.983
REMARK  5 active torsions:
REMARK  status: ('A' for Active; 'I' for Inactive)
REMARK       I    between atoms: C_2  and  N_3 
REMARK    1  A    between atoms: C_2  and  C_11 
REMARK    2  A    between atoms: N_3  and  C_4 
REMARK    3  A    between atoms: C_4  and  C_5 
REMARK    4  A    between atoms: C_5  and  C_6 
REMARK    5  A    between atoms: C_17  and  C_21 
ROOT
HETATM    1  C   UNL     1     -42.253  56.863 -55.145  1.00  0.00     0.059 A 
HETATM    2  C   UNL     1     -42.371  56.550 -56.492  1.00  0.00     0.106 A 
HETATM    3  N   UNL     1     -41.934  55.266 -56.684  1.00  0.00    -0.364 N 
HETATM    4  H   UNL     1     -41.916  54.782 -57.571  1.00  0.00     0.165 HD
HETATM    5  C   UNL     1     -41.538  54.715 -55.489  1.00  0.00     0.044 A 
HETATM    6  C   UNL     1     -41.040  53.433 -55.211  1.00  0.00     0.042 A 
HETATM    7  C   UNL     1     -40.705  53.120 -53.882  1.00  0.00    -0.021 A 
HETATM    8  C   UNL     1     -40.876  54.084 -52.883  1.00  0.00     0.013 A 
HETATM    9  C   UNL     1     -41.378  55.359 -53.180  1.00  0.00     0.016 A 
HETATM   10  C   UNL     1     -41.720  55.688 -54.508  1.00  0.00     0.008 A 
ENDROOT
BRANCH   1  11
HETATM   11  C   UNL     1     -42.620  58.121 -54.492  1.00  0.00     0.253 C 
HETATM   12  O   UNL     1     -41.924  59.131 -54.557  1.00  0.00    -0.268 OA
HETATM   13  N   UNL     1     -43.816  58.098 -53.804  1.00  0.00    -0.356 N 
HETATM   14  H   UNL     1     -44.452  57.336 -53.998  1.00  0.00     0.162 HD
BRANCH  13  15
HETATM   15  C   UNL     1     -44.373  59.305 -53.224  1.00  0.00     0.128 C 
BRANCH  15  16
HETATM   16  C   UNL     1     -44.359  59.287 -51.694  1.00  0.00     0.066 C 
BRANCH  16  17
HETATM   17  C   UNL     1     -42.963  59.224 -51.137  1.00  0.00    -0.016 A 
HETATM   18  C   UNL     1     -42.171  58.108 -50.951  1.00  0.00     0.015 A 
HETATM   19  C   UNL     1     -40.897  58.435 -50.402  1.00  0.00     0.008 A 
HETATM   20  C   UNL     1     -40.761  59.788 -50.184  1.00  0.00     0.050 A 
HETATM   21  S   UNL     1     -42.162  60.655 -50.638  1.00  0.00    -0.107 SA
ENDBRANCH  16  17
ENDBRANCH  15  16
ENDBRANCH  13  15
ENDBRANCH   1  11
BRANCH   7  22
HETATM   22  C   UNL     1     -40.202  51.794 -53.563  1.00  0.00     0.010 A 
HETATM   23  C   UNL     1     -40.126  50.620 -54.349  1.00  0.00     0.152 A 
HETATM   24  N   UNL     1     -39.578  49.591 -53.696  1.00  0.00    -0.187 NA
HETATM   25  N   UNL     1     -39.303  50.104 -52.485  1.00  0.00    -0.289 N 
HETATM   26  H   UNL     1     -38.872  49.498 -51.794  1.00  0.00     0.188 HD
HETATM   27  C   UNL     1     -39.653  51.416 -52.355  1.00  0.00     0.123 A 
ENDBRANCH   7  22
TORSDOF 5
ENDMDL
MODEL 9
REMARK VINA RESULT:      -7.1      3.493      4.006
REMARK  5 active torsions:
REMARK  status: ('A' for Active; 'I' for Inactive)
REMARK       I    between atoms: C_2  and  N_3 
REMARK    1  A    between atoms: C_2  and  C_11 
REMARK    2  A    between atoms: N_3  and  C_4 
REMARK    3  A    between atoms: C_4  and  C_5 
REMARK    4  A    between atoms: C_5  and  C_6 
REMARK    5  A    between atoms: C_17  and  C_21 
ROOT
HETATM    1  C   UNL     1     -41.436  56.366 -50.889  1.00  0.00     0.059 A 
HETATM    2  C   UNL     1     -41.241  55.968 -49.574  1.00  0.00     0.106 A 
HETATM    3  N   UNL     1     -40.853  54.655 -49.566  1.00  0.00    -0.364 N 
HETATM    4  H   UNL     1     -40.639  54.115 -48.739  1.00  0.00     0.165 HD
HETATM    5  C   UNL     1     -40.776  54.173 -50.850  1.00  0.00     0.044 A 
HETATM    6  C   UNL     1     -40.410  52.900 -51.313  1.00  0.00     0.042 A 
HETATM    7  C   UNL     1     -40.415  52.667 -52.699  1.00  0.00    -0.021 A 
HETATM    8  C   UNL     1     -40.781  53.699 -53.571  1.00  0.00     0.013 A 
HETATM    9  C   UNL     1     -41.141  54.966 -53.089  1.00  0.00     0.016 A 
HETATM   10  C   UNL     1     -41.139  55.216 -51.701  1.00  0.00     0.008 A 
ENDROOT
BRANCH   1  11
HETATM   11  C   UNL     1     -41.837  57.692 -51.364  1.00  0.00     0.253 C 
HETATM   12  O   UNL     1     -41.141  58.365 -52.119  1.00  0.00    -0.268 OA
HETATM   13  N   UNL     1     -43.065  58.130 -50.914  1.00  0.00    -0.356 N 
HETATM   14  H   UNL     1     -43.689  57.442 -50.514  1.00  0.00     0.162 HD
BRANCH  13  15
HETATM   15  C   UNL     1     -43.652  59.360 -51.408  1.00  0.00     0.128 C 
BRANCH  15  16
HETATM   16  C   UNL     1     -44.598  59.131 -52.589  1.00  0.00     0.066 C 
BRANCH  16  17
HETATM   17  C   UNL     1     -44.311  60.059 -53.738  1.00  0.00    -0.016 A 
HETATM   18  C   UNL     1     -45.021  60.201 -54.915  1.00  0.00     0.015 A 
HETATM   19  C   UNL     1     -44.454  61.188 -55.773  1.00  0.00     0.008 A 
HETATM   20  C   UNL     1     -43.328  61.762 -55.225  1.00  0.00     0.050 A 
HETATM   21  S   UNL     1     -42.960  61.113 -53.687  1.00  0.00    -0.107 SA
ENDBRANCH  16  17
ENDBRANCH  15  16
ENDBRANCH  13  15
ENDBRANCH   1  11
BRANCH   7  22
HETATM   22  C   UNL     1     -40.024  51.362 -53.208  1.00  0.00     0.010 A 
HETATM   23  C   UNL     1     -39.598  50.196 -52.530  1.00  0.00     0.152 A 
HETATM   24  N   UNL     1     -39.340  49.180 -53.358  1.00  0.00    -0.187 NA
HETATM   25  N   UNL     1     -39.598  49.694 -54.572  1.00  0.00    -0.289 N 
HETATM   26  H   UNL     1     -39.472  49.097 -55.383  1.00  0.00     0.188 HD
HETATM   27  C   UNL     1     -40.013  50.993 -54.537  1.00  0.00     0.123 A 
ENDBRANCH   7  22
TORSDOF 5
ENDMDL
MODEL 10
REMARK VINA RESULT:      -6.9      2.413      2.910
REMARK  5 active torsions:
REMARK  status: ('A' for Active; 'I' for Inactive)
REMARK       I    between atoms: C_2  and  N_3 
REMARK    1  A    between atoms: C_2  and  C_11 
REMARK    2  A    between atoms: N_3  and  C_4 
REMARK    3  A    between atoms: C_4  and  C_5 
REMARK    4  A    between atoms: C_5  and  C_6 
REMARK    5  A    between atoms: C_17  and  C_21 
ROOT
HETATM    1  C   UNL     1     -43.244  56.229 -55.608  1.00  0.00     0.059 A 
HETATM    2  C   UNL     1     -44.232  56.503 -54.673  1.00  0.00     0.106 A 
HETATM    3  N   UNL     1     -44.016  55.724 -53.567  1.00  0.00    -0.364 N 
HETATM    4  H   UNL     1     -44.584  55.727 -52.731  1.00  0.00     0.165 HD
HETATM    5  C   UNL     1     -42.898  54.945 -53.743  1.00  0.00     0.044 A 
HETATM    6  C   UNL     1     -42.302  54.018 -52.876  1.00  0.00     0.042 A 
HETATM    7  C   UNL     1     -41.145  53.346 -53.309  1.00  0.00    -0.021 A 
HETATM    8  C   UNL     1     -40.626  53.616 -54.580  1.00  0.00     0.013 A 
HETATM    9  C   UNL     1     -41.236  54.548 -55.432  1.00  0.00     0.016 A 
HETATM   10  C   UNL     1     -42.395  55.233 -55.011  1.00  0.00     0.008 A 
ENDROOT
BRANCH   1  11
HETATM   11  C   UNL     1     -43.077  56.843 -56.927  1.00  0.00     0.253 C 
HETATM   12  O   UNL     1     -42.284  57.756 -57.139  1.00  0.00    -0.268 OA
HETATM   13  N   UNL     1     -43.868  56.312 -57.926  1.00  0.00    -0.356 N 
HETATM   14  H   UNL     1     -44.300  55.415 -57.752  1.00  0.00     0.162 HD
BRANCH  13  15
HETATM   15  C   UNL     1     -43.713  56.726 -59.307  1.00  0.00     0.128 C 
BRANCH  15  16
HETATM   16  C   UNL     1     -44.547  57.963 -59.651  1.00  0.00     0.066 C 
BRANCH  16  17
HETATM   17  C   UNL     1     -43.753  58.995 -60.405  1.00  0.00    -0.016 A 
HETATM   18  C   UNL     1     -42.380  59.120 -60.486  1.00  0.00     0.015 A 
HETATM   19  C   UNL     1     -41.985  60.221 -61.301  1.00  0.00     0.008 A 
HETATM   20  C   UNL     1     -43.069  60.900 -61.811  1.00  0.00     0.050 A 
HETATM   21  S   UNL     1     -44.551  60.214 -61.307  1.00  0.00    -0.107 SA
ENDBRANCH  16  17
ENDBRANCH  15  16
ENDBRANCH  13  15
ENDBRANCH   1  11
BRANCH   7  22
HETATM   22  C   UNL     1     -40.497  52.392 -52.425  1.00  0.00     0.010 A 
HETATM   23  C   UNL     1     -39.739  51.232 -52.712  1.00  0.00     0.152 A 
HETATM   24  N   UNL     1     -39.292  50.619 -51.612  1.00  0.00    -0.187 NA
HETATM   25  N   UNL     1     -39.764  51.385 -50.614  1.00  0.00    -0.289 N 
HETATM   26  H   UNL     1     -39.551  51.116 -49.659  1.00  0.00     0.188 HD
HETATM   27  C   UNL     1     -40.488  52.458 -51.046  1.00  0.00     0.123 A 
ENDBRANCH   7  22
TORSDOF 5
ENDMDL
