MODEL 1
REMARK VINA RESULT:      -7.5      0.000      0.000
REMARK  4 active torsions:
REMARK  status: ('A' for Active; 'I' for Inactive)
REMARK    1  A    between atoms: C_9  and  C_10 
REMARK    2  A    between atoms: C_19  and  C_20 
REMARK    3  A    between atoms: C_20  and  C_21 
REMARK    4  A    between atoms: C_21  and  O_22 
ROOT
HETATM    1  C   UNL     1     -40.547  53.893 -55.507  1.00  0.00     0.069 C 
HETATM    2  C   UNL     1     -40.403  53.579 -54.038  1.00  0.00     0.018 A 
HETATM    3  N   UNL     1     -40.808  54.582 -53.165  1.00  0.00    -0.343 N 
HETATM    4  C   UNL     1     -40.743  54.438 -51.822  1.00  0.00     0.146 A 
HETATM    5  N   UNL     1     -40.271  53.246 -51.316  1.00  0.00    -0.179 N 
HETATM    6  N   UNL     1     -40.290  53.220 -49.957  1.00  0.00    -0.167 NA
HETATM    7  C   UNL     1     -40.758  54.427 -49.611  1.00  0.00     0.066 A 
HETATM    8  C   UNL     1     -40.898  54.774 -48.173  1.00  0.00     0.073 C 
HETATM    9  C   UNL     1     -41.055  55.236 -50.745  1.00  0.00     0.046 A 
HETATM   10  C   UNL     1     -39.836  52.166 -52.100  1.00  0.00     0.278 A 
HETATM   11  O   UNL     1     -39.428  51.126 -51.596  1.00  0.00    -0.265 OA
HETATM   12  C   UNL     1     -39.924  52.394 -53.586  1.00  0.00     0.036 A 
HETATM   13  H   UNL     1     -41.185  55.432 -53.584  1.00  0.00     0.167 HD
ENDROOT
BRANCH   9  14
HETATM   14  C   UNL     1     -41.574  56.586 -50.835  1.00  0.00    -0.020 A 
HETATM   15  C   UNL     1     -42.903  56.812 -51.222  1.00  0.00     0.014 A 
HETATM   16  C   UNL     1     -43.398  58.114 -51.320  1.00  0.00     0.020 A 
HETATM   17  C   UNL     1     -42.564  59.194 -51.035  1.00  0.00     0.011 A 
HETATM   18 BR   UNL     1     -43.233  60.956 -51.172  1.00  0.00    -0.051 Br
HETATM   19  C   UNL     1     -41.242  58.983 -50.653  1.00  0.00     0.020 A 
HETATM   20  C   UNL     1     -40.747  57.680 -50.553  1.00  0.00     0.014 A 
ENDBRANCH   9  14
BRANCH  12  21
HETATM   21  C   UNL     1     -39.405  51.256 -54.433  1.00  0.00     0.072 C 
BRANCH  21  22
HETATM   22  C   UNL     1     -40.223  49.973 -54.282  1.00  0.00     0.169 C 
BRANCH  22  23
HETATM   23  O   UNL     1     -39.518  49.019 -53.492  1.00  0.00    -0.401 OA
HETATM   24  H   UNL     1     -38.603  49.338 -53.403  1.00  0.00     0.209 HD
ENDBRANCH  22  23
ENDBRANCH  21  22
ENDBRANCH  12  21
TORSDOF 4
ENDMDL
MODEL 2
REMARK VINA RESULT:      -7.4      5.890      7.713
REMARK  4 active torsions:
REMARK  status: ('A' for Active; 'I' for Inactive)
REMARK    1  A    between atoms: C_9  and  C_10 
REMARK    2  A    between atoms: C_19  and  C_20 
REMARK    3  A    between atoms: C_20  and  C_21 
REMARK    4  A    between atoms: C_21  and  O_22 
ROOT
HETATM    1  C   UNL     1     -44.331  54.226 -59.417  1.00  0.00     0.069 C 
HETATM    2  C   UNL     1     -44.000  55.433 -58.575  1.00  0.00     0.018 A 
HETATM    3  N   UNL     1     -43.244  55.184 -57.436  1.00  0.00    -0.343 N 
HETATM    4  C   UNL     1     -42.869  56.171 -56.591  1.00  0.00     0.146 A 
HETATM    5  N   UNL     1     -43.242  57.463 -56.890  1.00  0.00    -0.179 N 
HETATM    6  N   UNL     1     -42.772  58.359 -55.982  1.00  0.00    -0.167 NA
HETATM    7  C   UNL     1     -42.115  57.607 -55.087  1.00  0.00     0.066 A 
HETATM    8  C   UNL     1     -41.474  58.256 -53.915  1.00  0.00     0.073 C 
HETATM    9  C   UNL     1     -42.148  56.223 -55.420  1.00  0.00     0.046 A 
HETATM   10  C   UNL     1     -44.004  57.833 -58.010  1.00  0.00     0.278 A 
HETATM   11  O   UNL     1     -44.305  59.000 -58.230  1.00  0.00    -0.265 OA
HETATM   12  C   UNL     1     -44.399  56.686 -58.904  1.00  0.00     0.036 A 
HETATM   13  H   UNL     1     -42.959  54.219 -57.275  1.00  0.00     0.167 HD
ENDROOT
BRANCH   9  14
HETATM   14  C   UNL     1     -41.577  55.074 -54.745  1.00  0.00    -0.020 A 
HETATM   15  C   UNL     1     -42.062  54.672 -53.492  1.00  0.00     0.014 A 
HETATM   16  C   UNL     1     -41.503  53.572 -52.838  1.00  0.00     0.020 A 
HETATM   17  C   UNL     1     -40.455  52.873 -53.434  1.00  0.00     0.011 A 
HETATM   18 BR   UNL     1     -39.696  51.387 -52.548  1.00  0.00    -0.051 Br
HETATM   19  C   UNL     1     -39.962  53.263 -54.677  1.00  0.00     0.020 A 
HETATM   20  C   UNL     1     -40.523  54.363 -55.332  1.00  0.00     0.014 A 
ENDBRANCH   9  14
BRANCH  12  21
HETATM   21  C   UNL     1     -45.265  57.071 -60.081  1.00  0.00     0.072 C 
BRANCH  21  22
HETATM   22  C   UNL     1     -46.757  57.093 -59.746  1.00  0.00     0.169 C 
BRANCH  22  23
HETATM   23  O   UNL     1     -47.347  55.822 -60.001  1.00  0.00    -0.401 OA
HETATM   24  H   UNL     1     -48.310  55.954 -60.042  1.00  0.00     0.209 HD
ENDBRANCH  22  23
ENDBRANCH  21  22
ENDBRANCH  12  21
TORSDOF 4
ENDMDL
MODEL 3
REMARK VINA RESULT:      -6.9      4.402      6.841
REMARK  4 active torsions:
REMARK  status: ('A' for Active; 'I' for Inactive)
REMARK    1  A    between atoms: C_9  and  C_10 
REMARK    2  A    between atoms: C_19  and  C_20 
REMARK    3  A    between atoms: C_20  and  C_21 
REMARK    4  A    between atoms: C_21  and  O_22 
ROOT
HETATM    1  C   UNL     1     -42.125  58.108 -55.388  1.00  0.00     0.069 C 
HETATM    2  C   UNL     1     -41.969  57.874 -53.906  1.00  0.00     0.018 A 
HETATM    3  N   UNL     1     -41.556  56.600 -53.537  1.00  0.00    -0.343 N 
HETATM    4  C   UNL     1     -41.369  56.249 -52.244  1.00  0.00     0.146 A 
HETATM    5  N   UNL     1     -41.583  57.202 -51.272  1.00  0.00    -0.179 N 
HETATM    6  N   UNL     1     -41.326  56.731 -50.023  1.00  0.00    -0.167 NA
HETATM    7  C   UNL     1     -40.970  55.454 -50.220  1.00  0.00     0.066 A 
HETATM    8  C   UNL     1     -40.631  54.600 -49.052  1.00  0.00     0.073 C 
HETATM    9  C   UNL     1     -40.983  55.097 -51.598  1.00  0.00     0.046 A 
HETATM   10  C   UNL     1     -42.000  58.518 -51.527  1.00  0.00     0.278 A 
HETATM   11  O   UNL     1     -42.173  59.327 -50.622  1.00  0.00    -0.265 OA
HETATM   12  C   UNL     1     -42.202  58.841 -52.984  1.00  0.00     0.036 A 
HETATM   13  H   UNL     1     -41.373  55.939 -54.292  1.00  0.00     0.167 HD
ENDROOT
BRANCH   9  14
HETATM   14  C   UNL     1     -40.671  53.843 -52.254  1.00  0.00    -0.020 A 
HETATM   15  C   UNL     1     -39.827  52.908 -51.637  1.00  0.00     0.014 A 
HETATM   16  C   UNL     1     -39.517  51.706 -52.276  1.00  0.00     0.020 A 
HETATM   17  C   UNL     1     -40.049  51.435 -53.535  1.00  0.00     0.011 A 
HETATM   18 BR   UNL     1     -39.627  49.810 -54.401  1.00  0.00    -0.051 Br
HETATM   19  C   UNL     1     -40.887  52.356 -54.161  1.00  0.00     0.020 A 
HETATM   20  C   UNL     1     -41.197  53.559 -53.521  1.00  0.00     0.014 A 
ENDBRANCH   9  14
BRANCH  12  21
HETATM   21  C   UNL     1     -42.704  60.239 -53.259  1.00  0.00     0.072 C 
BRANCH  21  22
HETATM   22  C   UNL     1     -44.228  60.351 -53.208  1.00  0.00     0.169 C 
BRANCH  22  23
HETATM   23  O   UNL     1     -44.662  60.675 -51.890  1.00  0.00    -0.401 OA
HETATM   24  H   UNL     1     -43.901  61.059 -51.422  1.00  0.00     0.209 HD
ENDBRANCH  22  23
ENDBRANCH  21  22
ENDBRANCH  12  21
TORSDOF 4
ENDMDL
MODEL 4
REMARK VINA RESULT:      -6.8      3.075      4.500
REMARK  4 active torsions:
REMARK  status: ('A' for Active; 'I' for Inactive)
REMARK    1  A    between atoms: C_9  and  C_10 
REMARK    2  A    between atoms: C_19  and  C_20 
REMARK    3  A    between atoms: C_20  and  C_21 
REMARK    4  A    between atoms: C_21  and  O_22 
ROOT
HETATM    1  C   UNL     1     -39.867  50.880 -54.304  1.00  0.00     0.069 C 
HETATM    2  C   UNL     1     -40.174  52.105 -53.478  1.00  0.00     0.018 A 
HETATM    3  N   UNL     1     -40.820  53.137 -54.147  1.00  0.00    -0.343 N 
HETATM    4  C   UNL     1     -41.162  54.291 -53.532  1.00  0.00     0.146 A 
HETATM    5  N   UNL     1     -40.869  54.428 -52.192  1.00  0.00    -0.179 N 
HETATM    6  N   UNL     1     -41.297  55.617 -51.690  1.00  0.00    -0.167 NA
HETATM    7  C   UNL     1     -41.843  56.242 -52.742  1.00  0.00     0.066 A 
HETATM    8  C   UNL     1     -42.409  57.605 -52.572  1.00  0.00     0.073 C 
HETATM    9  C   UNL     1     -41.782  55.455 -53.927  1.00  0.00     0.046 A 
HETATM   10  C   UNL     1     -40.221  53.454 -51.416  1.00  0.00     0.278 A 
HETATM   11  O   UNL     1     -39.987  53.628 -50.225  1.00  0.00    -0.265 OA
HETATM   12  C   UNL     1     -39.856  52.198 -52.163  1.00  0.00     0.036 A 
HETATM   13  H   UNL     1     -41.050  52.977 -55.127  1.00  0.00     0.167 HD
ENDROOT
BRANCH   9  14
HETATM   14  C   UNL     1     -42.246  55.731 -55.272  1.00  0.00    -0.020 A 
HETATM   15  C   UNL     1     -42.889  54.736 -56.021  1.00  0.00     0.014 A 
HETATM   16  C   UNL     1     -43.324  55.000 -57.322  1.00  0.00     0.020 A 
HETATM   17  C   UNL     1     -43.114  56.260 -57.878  1.00  0.00     0.011 A 
HETATM   18 BR   UNL     1     -43.699  56.617 -59.639  1.00  0.00    -0.051 Br
HETATM   19  C   UNL     1     -42.474  57.258 -57.146  1.00  0.00     0.020 A 
HETATM   20  C   UNL     1     -42.040  56.993 -55.844  1.00  0.00     0.014 A 
ENDBRANCH   9  14
BRANCH  12  21
HETATM   21  C   UNL     1     -39.110  51.170 -51.346  1.00  0.00     0.072 C 
BRANCH  21  22
HETATM   22  C   UNL     1     -40.035  50.199 -50.612  1.00  0.00     0.169 C 
BRANCH  22  23
HETATM   23  O   UNL     1     -39.916  48.886 -51.153  1.00  0.00    -0.401 OA
HETATM   24  H   UNL     1     -40.796  48.626 -51.474  1.00  0.00     0.209 HD
ENDBRANCH  22  23
ENDBRANCH  21  22
ENDBRANCH  12  21
TORSDOF 4
ENDMDL
MODEL 5
REMARK VINA RESULT:      -6.6      1.899      3.548
REMARK  4 active torsions:
REMARK  status: ('A' for Active; 'I' for Inactive)
REMARK    1  A    between atoms: C_9  and  C_10 
REMARK    2  A    between atoms: C_19  and  C_20 
REMARK    3  A    between atoms: C_20  and  C_21 
REMARK    4  A    between atoms: C_21  and  O_22 
ROOT
HETATM    1  C   UNL     1     -39.958  53.500 -49.742  1.00  0.00     0.069 C 
HETATM    2  C   UNL     1     -40.272  53.427 -51.216  1.00  0.00     0.018 A 
HETATM    3  N   UNL     1     -41.013  54.485 -51.727  1.00  0.00    -0.343 N 
HETATM    4  C   UNL     1     -41.363  54.555 -53.032  1.00  0.00     0.146 A 
HETATM    5  N   UNL     1     -40.951  53.545 -53.873  1.00  0.00    -0.179 N 
HETATM    6  N   UNL     1     -41.338  53.755 -55.159  1.00  0.00    -0.167 NA
HETATM    7  C   UNL     1     -42.026  54.905 -55.112  1.00  0.00     0.066 A 
HETATM    8  C   UNL     1     -42.632  55.447 -56.356  1.00  0.00     0.073 C 
HETATM    9  C   UNL     1     -42.077  55.449 -53.798  1.00  0.00     0.046 A 
HETATM   10  C   UNL     1     -40.199  52.430 -53.469  1.00  0.00     0.278 A 
HETATM   11  O   UNL     1     -39.856  51.561 -54.262  1.00  0.00    -0.265 OA
HETATM   12  C   UNL     1     -39.852  52.406 -52.003  1.00  0.00     0.036 A 
HETATM   13  H   UNL     1     -41.265  55.228 -51.076  1.00  0.00     0.167 HD
ENDROOT
BRANCH   9  14
HETATM   14  C   UNL     1     -42.702  56.657 -53.297  1.00  0.00    -0.020 A 
HETATM   15  C   UNL     1     -42.132  57.912 -53.554  1.00  0.00     0.014 A 
HETATM   16  C   UNL     1     -42.729  59.074 -53.060  1.00  0.00     0.020 A 
HETATM   17  C   UNL     1     -43.896  58.983 -52.305  1.00  0.00     0.011 A 
HETATM   18 BR   UNL     1     -44.702  60.555 -51.633  1.00  0.00    -0.051 Br
HETATM   19  C   UNL     1     -44.472  57.742 -52.039  1.00  0.00     0.020 A 
HETATM   20  C   UNL     1     -43.874  56.580 -52.534  1.00  0.00     0.014 A 
ENDBRANCH   9  14
BRANCH  12  21
HETATM   21  C   UNL     1     -39.092  51.181 -51.553  1.00  0.00     0.072 C 
BRANCH  21  22
HETATM   22  C   UNL     1     -39.946  49.913 -51.544  1.00  0.00     0.169 C 
BRANCH  22  23
HETATM   23  O   UNL     1     -39.476  48.984 -52.517  1.00  0.00    -0.401 OA
HETATM   24  H   UNL     1     -39.980  49.143 -53.334  1.00  0.00     0.209 HD
ENDBRANCH  22  23
ENDBRANCH  21  22
ENDBRANCH  12  21
TORSDOF 4
ENDMDL
MODEL 6
REMARK VINA RESULT:      -6.6      5.591      7.434
REMARK  4 active torsions:
REMARK  status: ('A' for Active; 'I' for Inactive)
REMARK    1  A    between atoms: C_9  and  C_10 
REMARK    2  A    between atoms: C_19  and  C_20 
REMARK    3  A    between atoms: C_20  and  C_21 
REMARK    4  A    between atoms: C_21  and  O_22 
ROOT
HETATM    1  C   UNL     1     -43.112  55.792 -59.131  1.00  0.00     0.069 C 
HETATM    2  C   UNL     1     -42.861  56.672 -57.931  1.00  0.00     0.018 A 
HETATM    3  N   UNL     1     -42.290  56.043 -56.832  1.00  0.00    -0.343 N 
HETATM    4  C   UNL     1     -42.004  56.708 -55.690  1.00  0.00     0.146 A 
HETATM    5  N   UNL     1     -42.279  58.057 -55.634  1.00  0.00    -0.179 N 
HETATM    6  N   UNL     1     -41.912  58.609 -54.447  1.00  0.00    -0.167 NA
HETATM    7  C   UNL     1     -41.422  57.580 -53.742  1.00  0.00     0.066 A 
HETATM    8  C   UNL     1     -40.934  57.806 -52.358  1.00  0.00     0.073 C 
HETATM    9  C   UNL     1     -41.460  56.359 -54.475  1.00  0.00     0.046 A 
HETATM   10  C   UNL     1     -42.854  58.796 -56.680  1.00  0.00     0.278 A 
HETATM   11  O   UNL     1     -43.075  59.997 -56.577  1.00  0.00    -0.265 OA
HETATM   12  C   UNL     1     -43.159  57.995 -57.919  1.00  0.00     0.036 A 
HETATM   13  H   UNL     1     -42.069  55.053 -56.932  1.00  0.00     0.167 HD
ENDROOT
BRANCH   9  14
HETATM   14  C   UNL     1     -41.039  55.022 -54.108  1.00  0.00    -0.020 A 
HETATM   15  C   UNL     1     -40.292  54.241 -55.002  1.00  0.00     0.014 A 
HETATM   16  C   UNL     1     -39.897  52.948 -54.652  1.00  0.00     0.020 A 
HETATM   17  C   UNL     1     -40.251  52.431 -53.407  1.00  0.00     0.011 A 
HETATM   18 BR   UNL     1     -39.721  50.680 -52.935  1.00  0.00    -0.051 Br
HETATM   19  C   UNL     1     -40.995  53.195 -52.510  1.00  0.00     0.020 A 
HETATM   20  C   UNL     1     -41.389  54.489 -52.861  1.00  0.00     0.014 A 
ENDBRANCH   9  14
BRANCH  12  21
HETATM   21  C   UNL     1     -43.829  58.773 -59.027  1.00  0.00     0.072 C 
BRANCH  21  22
HETATM   22  C   UNL     1     -42.844  59.572 -59.880  1.00  0.00     0.169 C 
BRANCH  22  23
HETATM   23  O   UNL     1     -42.162  58.717 -60.794  1.00  0.00    -0.401 OA
HETATM   24  H   UNL     1     -42.216  59.132 -61.672  1.00  0.00     0.209 HD
ENDBRANCH  22  23
ENDBRANCH  21  22
ENDBRANCH  12  21
TORSDOF 4
ENDMDL
MODEL 7
REMARK VINA RESULT:      -6.6      2.364      4.351
REMARK  4 active torsions:
REMARK  status: ('A' for Active; 'I' for Inactive)
REMARK    1  A    between atoms: C_9  and  C_10 
REMARK    2  A    between atoms: C_19  and  C_20 
REMARK    3  A    between atoms: C_20  and  C_21 
REMARK    4  A    between atoms: C_21  and  O_22 
ROOT
HETATM    1  C   UNL     1     -40.997  54.925 -48.751  1.00  0.00     0.069 C 
HETATM    2  C   UNL     1     -41.657  55.078 -50.099  1.00  0.00     0.018 A 
HETATM    3  N   UNL     1     -42.311  56.285 -50.316  1.00  0.00    -0.343 N 
HETATM    4  C   UNL     1     -42.943  56.563 -51.479  1.00  0.00     0.146 A 
HETATM    5  N   UNL     1     -42.914  55.616 -52.479  1.00  0.00    -0.179 N 
HETATM    6  N   UNL     1     -43.553  56.035 -53.604  1.00  0.00    -0.167 NA
HETATM    7  C   UNL     1     -44.009  57.255 -53.288  1.00  0.00     0.066 A 
HETATM    8  C   UNL     1     -44.792  58.025 -54.288  1.00  0.00     0.073 C 
HETATM    9  C   UNL     1     -43.657  57.636 -51.962  1.00  0.00     0.046 A 
HETATM   10  C   UNL     1     -42.285  54.365 -52.374  1.00  0.00     0.278 A 
HETATM   11  O   UNL     1     -42.288  53.561 -53.298  1.00  0.00    -0.265 OA
HETATM   12  C   UNL     1     -41.611  54.113 -51.050  1.00  0.00     0.036 A 
HETATM   13  H   UNL     1     -42.275  56.970 -49.562  1.00  0.00     0.167 HD
ENDROOT
BRANCH   9  14
HETATM   14  C   UNL     1     -43.937  58.849 -51.220  1.00  0.00    -0.020 A 
HETATM   15  C   UNL     1     -42.925  59.793 -50.995  1.00  0.00     0.014 A 
HETATM   16  C   UNL     1     -43.192  60.956 -50.269  1.00  0.00     0.020 A 
HETATM   17  C   UNL     1     -44.472  61.175 -49.763  1.00  0.00     0.011 A 
HETATM   18 BR   UNL     1     -44.834  62.746 -48.777  1.00  0.00    -0.051 Br
HETATM   19  C   UNL     1     -45.486  60.243 -49.976  1.00  0.00     0.020 A 
HETATM   20  C   UNL     1     -45.218  59.081 -50.704  1.00  0.00     0.014 A 
ENDBRANCH   9  14
BRANCH  12  21
HETATM   21  C   UNL     1     -40.981  52.747 -50.911  1.00  0.00     0.072 C 
BRANCH  21  22
HETATM   22  C   UNL     1     -39.625  52.638 -51.608  1.00  0.00     0.169 C 
BRANCH  22  23
HETATM   23  O   UNL     1     -39.740  51.892 -52.817  1.00  0.00    -0.401 OA
HETATM   24  H   UNL     1     -39.722  52.530 -53.551  1.00  0.00     0.209 HD
ENDBRANCH  22  23
ENDBRANCH  21  22
ENDBRANCH  12  21
TORSDOF 4
ENDMDL
MODEL 8
REMARK VINA RESULT:      -6.4     14.396     15.948
REMARK  4 active torsions:
REMARK  status: ('A' for Active; 'I' for Inactive)
REMARK    1  A    between atoms: C_9  and  C_10 
REMARK    2  A    between atoms: C_19  and  C_20 
REMARK    3  A    between atoms: C_20  and  C_21 
REMARK    4  A    between atoms: C_21  and  O_22 
ROOT
HETATM    1  C   UNL     1     -32.208  39.260 -53.189  1.00  0.00     0.069 C 
HETATM    2  C   UNL     1     -33.566  39.530 -52.589  1.00  0.00     0.018 A 
HETATM    3  N   UNL     1     -34.535  39.988 -53.472  1.00  0.00    -0.343 N 
HETATM    4  C   UNL     1     -35.798  40.266 -53.076  1.00  0.00     0.146 A 
HETATM    5  N   UNL     1     -36.124  40.069 -51.752  1.00  0.00    -0.179 N 
HETATM    6  N   UNL     1     -37.429  40.352 -51.495  1.00  0.00    -0.167 NA
HETATM    7  C   UNL     1     -37.917  40.756 -52.676  1.00  0.00     0.066 A 
HETATM    8  C   UNL     1     -39.338  41.176 -52.776  1.00  0.00     0.073 C 
HETATM    9  C   UNL     1     -36.933  40.726 -53.705  1.00  0.00     0.046 A 
HETATM   10  C   UNL     1     -35.230  39.611 -50.771  1.00  0.00     0.278 A 
HETATM   11  O   UNL     1     -35.575  39.451 -49.607  1.00  0.00    -0.265 OA
HETATM   12  C   UNL     1     -33.838  39.331 -51.275  1.00  0.00     0.036 A 
HETATM   13  H   UNL     1     -34.259  40.083 -54.449  1.00  0.00     0.167 HD
ENDROOT
BRANCH   9  14
HETATM   14  C   UNL     1     -37.021  41.072 -55.109  1.00  0.00    -0.020 A 
HETATM   15  C   UNL     1     -37.884  40.369 -55.962  1.00  0.00     0.014 A 
HETATM   16  C   UNL     1     -37.959  40.695 -57.318  1.00  0.00     0.020 A 
HETATM   17  C   UNL     1     -37.167  41.723 -57.825  1.00  0.00     0.011 A 
HETATM   18 BR   UNL     1     -37.265  42.162 -59.660  1.00  0.00    -0.051 Br
HETATM   19  C   UNL     1     -36.303  42.428 -56.990  1.00  0.00     0.020 A 
HETATM   20  C   UNL     1     -36.230  42.102 -55.633  1.00  0.00     0.014 A 
ENDBRANCH   9  14
BRANCH  12  21
HETATM   21  C   UNL     1     -32.857  38.891 -50.213  1.00  0.00     0.072 C 
BRANCH  21  22
HETATM   22  C   UNL     1     -32.215  40.061 -49.467  1.00  0.00     0.169 C 
BRANCH  22  23
HETATM   23  O   UNL     1     -30.927  39.698 -48.979  1.00  0.00    -0.401 OA
HETATM   24  H   UNL     1     -31.058  39.247 -48.127  1.00  0.00     0.209 HD
ENDBRANCH  22  23
ENDBRANCH  21  22
ENDBRANCH  12  21
TORSDOF 4
ENDMDL
MODEL 9
REMARK VINA RESULT:      -6.4      2.215      3.622
REMARK  4 active torsions:
REMARK  status: ('A' for Active; 'I' for Inactive)
REMARK    1  A    between atoms: C_9  and  C_10 
REMARK    2  A    between atoms: C_19  and  C_20 
REMARK    3  A    between atoms: C_20  and  C_21 
REMARK    4  A    between atoms: C_21  and  O_22 
ROOT
HETATM    1  C   UNL     1     -40.901  53.072 -50.832  1.00  0.00     0.069 C 
HETATM    2  C   UNL     1     -41.000  53.761 -52.171  1.00  0.00     0.018 A 
HETATM    3  N   UNL     1     -41.667  54.980 -52.173  1.00  0.00    -0.343 N 
HETATM    4  C   UNL     1     -41.827  55.711 -53.300  1.00  0.00     0.146 A 
HETATM    5  N   UNL     1     -41.291  55.227 -54.473  1.00  0.00    -0.179 N 
HETATM    6  N   UNL     1     -41.491  56.073 -55.519  1.00  0.00    -0.167 NA
HETATM    7  C   UNL     1     -42.186  57.090 -54.991  1.00  0.00     0.066 A 
HETATM    8  C   UNL     1     -42.611  58.216 -55.861  1.00  0.00     0.073 C 
HETATM    9  C   UNL     1     -42.429  56.912 -53.599  1.00  0.00     0.046 A 
HETATM   10  C   UNL     1     -40.599  54.011 -54.590  1.00  0.00     0.278 A 
HETATM   11  O   UNL     1     -40.140  53.630 -55.660  1.00  0.00    -0.265 OA
HETATM   12  C   UNL     1     -40.465  53.240 -53.303  1.00  0.00     0.036 A 
HETATM   13  H   UNL     1     -42.014  55.316 -51.276  1.00  0.00     0.167 HD
ENDROOT
BRANCH   9  14
HETATM   14  C   UNL     1     -43.127  57.751 -52.645  1.00  0.00    -0.020 A 
HETATM   15  C   UNL     1     -44.437  57.441 -52.253  1.00  0.00     0.014 A 
HETATM   16  C   UNL     1     -45.114  58.257 -51.343  1.00  0.00     0.020 A 
HETATM   17  C   UNL     1     -44.482  59.386 -50.825  1.00  0.00     0.011 A 
HETATM   18 BR   UNL     1     -45.398  60.492 -49.597  1.00  0.00    -0.051 Br
HETATM   19  C   UNL     1     -43.182  59.706 -51.208  1.00  0.00     0.020 A 
HETATM   20  C   UNL     1     -42.505  58.889 -52.118  1.00  0.00     0.014 A 
ENDBRANCH   9  14
BRANCH  12  21
HETATM   21  C   UNL     1     -39.770  51.906 -53.434  1.00  0.00     0.072 C 
BRANCH  21  22
HETATM   22  C   UNL     1     -40.620  50.852 -54.144  1.00  0.00     0.169 C 
BRANCH  22  23
HETATM   23  O   UNL     1     -39.866  49.662 -54.362  1.00  0.00    -0.401 OA
HETATM   24  H   UNL     1     -40.492  48.972 -54.639  1.00  0.00     0.209 HD
ENDBRANCH  22  23
ENDBRANCH  21  22
ENDBRANCH  12  21
TORSDOF 4
ENDMDL
MODEL 10
REMARK VINA RESULT:      -6.4      4.653      6.841
REMARK  4 active torsions:
REMARK  status: ('A' for Active; 'I' for Inactive)
REMARK    1  A    between atoms: C_9  and  C_10 
REMARK    2  A    between atoms: C_19  and  C_20 
REMARK    3  A    between atoms: C_20  and  C_21 
REMARK    4  A    between atoms: C_21  and  O_22 
ROOT
HETATM    1  C   UNL     1     -42.850  57.382 -56.749  1.00  0.00     0.069 C 
HETATM    2  C   UNL     1     -42.668  57.468 -55.254  1.00  0.00     0.018 A 
HETATM    3  N   UNL     1     -42.117  56.345 -54.648  1.00  0.00    -0.343 N 
HETATM    4  C   UNL     1     -41.891  56.283 -53.316  1.00  0.00     0.146 A 
HETATM    5  N   UNL     1     -42.207  57.382 -52.549  1.00  0.00    -0.179 N 
HETATM    6  N   UNL     1     -41.899  57.202 -51.237  1.00  0.00    -0.167 NA
HETATM    7  C   UNL     1     -41.405  55.957 -51.184  1.00  0.00     0.066 A 
HETATM    8  C   UNL     1     -40.973  55.396 -49.878  1.00  0.00     0.073 C 
HETATM    9  C   UNL     1     -41.381  55.331 -52.463  1.00  0.00     0.046 A 
HETATM   10  C   UNL     1     -42.767  58.569 -53.050  1.00  0.00     0.278 A 
HETATM   11  O   UNL     1     -43.026  59.519 -52.322  1.00  0.00    -0.265 OA
HETATM   12  C   UNL     1     -43.004  58.570 -54.538  1.00  0.00     0.036 A 
HETATM   13  H   UNL     1     -41.865  55.570 -55.260  1.00  0.00     0.167 HD
ENDROOT
BRANCH   9  14
HETATM   14  C   UNL     1     -40.935  54.012 -52.863  1.00  0.00    -0.020 A 
HETATM   15  C   UNL     1     -41.349  53.461 -54.084  1.00  0.00     0.014 A 
HETATM   16  C   UNL     1     -40.928  52.184 -54.463  1.00  0.00     0.020 A 
HETATM   17  C   UNL     1     -40.093  51.454 -53.619  1.00  0.00     0.011 A 
HETATM   18 BR   UNL     1     -39.527  49.725 -54.129  1.00  0.00    -0.051 Br
HETATM   19  C   UNL     1     -39.676  51.988 -52.402  1.00  0.00     0.020 A 
HETATM   20  C   UNL     1     -40.097  53.266 -52.024  1.00  0.00     0.014 A 
ENDBRANCH   9  14
BRANCH  12  21
HETATM   21  C   UNL     1     -43.656  59.822 -55.074  1.00  0.00     0.072 C 
BRANCH  21  22
HETATM   22  C   UNL     1     -45.137  59.930 -54.711  1.00  0.00     0.169 C 
BRANCH  22  23
HETATM   23  O   UNL     1     -45.876  58.859 -55.293  1.00  0.00    -0.401 OA
HETATM   24  H   UNL     1     -46.775  59.190 -55.465  1.00  0.00     0.209 HD
ENDBRANCH  22  23
ENDBRANCH  21  22
ENDBRANCH  12  21
TORSDOF 4
ENDMDL
