MODEL 1
REMARK VINA RESULT:      -9.5      0.000      0.000
REMARK  6 active torsions:
REMARK  status: ('A' for Active; 'I' for Inactive)
REMARK    1  A    between atoms: C_4  and  C_5 
REMARK    2  A    between atoms: C_5  and  N_6 
REMARK    3  A    between atoms: C_14  and  C_15 
REMARK    4  A    between atoms: C_18  and  O_19 
REMARK    5  A    between atoms: O_19  and  C_20 
REMARK    6  A    between atoms: C_20  and  C_21 
ROOT
HETATM    1  N   UNL     1     -44.943  62.511 -48.158  1.00  0.00    -0.063 N 
HETATM    2  H   UNL     1     -44.291  61.916 -47.636  1.00  0.00     0.280 HD
HETATM    3  C   UNL     1     -45.944  61.548 -48.780  1.00  0.00     0.282 C 
HETATM    4  C   UNL     1     -45.265  60.693 -49.795  1.00  0.00     0.018 A 
HETATM    5  C   UNL     1     -44.039  60.971 -50.374  1.00  0.00    -0.023 A 
HETATM    6  C   UNL     1     -43.685  59.970 -51.335  1.00  0.00     0.073 A 
HETATM    7  C   UNL     1     -44.665  59.016 -51.462  1.00  0.00     0.088 A 
HETATM    8  N   UNL     1     -44.598  57.992 -52.334  1.00  0.00    -0.358 N 
HETATM    9  C   UNL     1     -43.341  57.667 -52.972  1.00  0.00     0.219 C 
HETATM   10  N   UNL     1     -42.453  58.803 -53.008  1.00  0.00    -0.332 N 
HETATM   11  C   UNL     1     -42.496  59.871 -52.157  1.00  0.00     0.256 C 
HETATM   12  O   UNL     1     -41.585  60.689 -52.104  1.00  0.00    -0.267 OA
HETATM   13  S   UNL     1     -45.974  59.275 -50.409  1.00  0.00    -0.074 SA
HETATM   14  C   UNL     1     -43.244  62.182 -49.986  1.00  0.00     0.068 C 
HETATM   15  C   UNL     1     -44.110  63.209 -49.228  1.00  0.00     0.240 C 
HETATM   16  H   UNL     1     -45.244  57.214 -52.240  1.00  0.00     0.162 HD
HETATM   17  H   UNL     1     -41.597  58.710 -53.535  1.00  0.00     0.165 HD
ENDROOT
BRANCH   9  18
HETATM   18  C   UNL     1     -42.731  56.436 -52.331  1.00  0.00    -0.016 A 
HETATM   19  C   UNL     1     -43.329  55.181 -52.549  1.00  0.00     0.014 A 
HETATM   20  C   UNL     1     -42.800  54.016 -51.980  1.00  0.00     0.037 A 
HETATM   21  C   UNL     1     -41.658  54.083 -51.186  1.00  0.00     0.069 A 
HETATM   22  C   UNL     1     -41.078  55.327 -50.933  1.00  0.00     0.037 A 
HETATM   23  C   UNL     1     -41.607  56.493 -51.494  1.00  0.00     0.014 A 
BRANCH  21  24
HETATM   24  O   UNL     1     -41.024  53.024 -50.598  1.00  0.00    -0.347 OA
BRANCH  24  25
HETATM   25  C   UNL     1     -39.689  52.753 -51.024  1.00  0.00     0.214 C 
BRANCH  25  26
HETATM   26  C   UNL     1     -39.737  51.708 -52.110  1.00  0.00    -0.034 A 
HETATM   27  C   UNL     1     -39.531  50.355 -51.804  1.00  0.00     0.009 A 
HETATM   28  C   UNL     1     -39.574  49.388 -52.811  1.00  0.00     0.001 A 
HETATM   29  C   UNL     1     -39.817  49.764 -54.131  1.00  0.00     0.000 A 
HETATM   30  C   UNL     1     -40.013  51.107 -54.447  1.00  0.00     0.001 A 
HETATM   31  C   UNL     1     -39.970  52.074 -53.443  1.00  0.00     0.009 A 
ENDBRANCH  25  26
ENDBRANCH  24  25
ENDBRANCH  21  24
ENDBRANCH   9  18
BRANCH   1  32
HETATM   32  C   UNL     1     -45.552  63.438 -47.137  1.00  0.00     0.273 C 
BRANCH  32  33
HETATM   33  C   UNL     1     -45.012  63.319 -45.738  1.00  0.00    -0.033 A 
HETATM   34  C   UNL     1     -44.730  64.471 -44.984  1.00  0.00     0.009 A 
HETATM   35  C   UNL     1     -44.197  64.366 -43.700  1.00  0.00     0.001 A 
HETATM   36  C   UNL     1     -43.944  63.112 -43.149  1.00  0.00     0.000 A 
HETATM   37  C   UNL     1     -44.232  61.961 -43.879  1.00  0.00     0.001 A 
HETATM   38  C   UNL     1     -44.765  62.062 -45.165  1.00  0.00     0.009 A 
ENDBRANCH  32  33
ENDBRANCH   1  32
TORSDOF 6
ENDMDL
MODEL 2
REMARK VINA RESULT:      -9.0      4.286      6.137
REMARK  6 active torsions:
REMARK  status: ('A' for Active; 'I' for Inactive)
REMARK    1  A    between atoms: C_4  and  C_5 
REMARK    2  A    between atoms: C_5  and  N_6 
REMARK    3  A    between atoms: C_14  and  C_15 
REMARK    4  A    between atoms: C_18  and  O_19 
REMARK    5  A    between atoms: O_19  and  C_20 
REMARK    6  A    between atoms: C_20  and  C_21 
ROOT
HETATM    1  N   UNL     1     -48.038  62.183 -54.223  1.00  0.00    -0.063 N 
HETATM    2  H   UNL     1     -48.227  61.231 -54.558  1.00  0.00     0.280 HD
HETATM    3  C   UNL     1     -46.582  62.445 -54.580  1.00  0.00     0.282 C 
HETATM    4  C   UNL     1     -45.694  61.547 -53.789  1.00  0.00     0.018 A 
HETATM    5  C   UNL     1     -46.069  60.869 -52.643  1.00  0.00    -0.023 A 
HETATM    6  C   UNL     1     -44.973  60.121 -52.105  1.00  0.00     0.073 A 
HETATM    7  C   UNL     1     -43.826  60.297 -52.840  1.00  0.00     0.088 A 
HETATM    8  N   UNL     1     -42.642  59.742 -52.518  1.00  0.00    -0.358 N 
HETATM    9  C   UNL     1     -42.588  58.673 -51.544  1.00  0.00     0.219 C 
HETATM   10  N   UNL     1     -43.721  58.705 -50.653  1.00  0.00    -0.332 N 
HETATM   11  C   UNL     1     -44.932  59.273 -50.930  1.00  0.00     0.256 C 
HETATM   12  O   UNL     1     -45.913  59.077 -50.222  1.00  0.00    -0.267 OA
HETATM   13  S   UNL     1     -44.061  61.301 -54.192  1.00  0.00    -0.074 SA
HETATM   14  C   UNL     1     -47.465  60.955 -52.101  1.00  0.00     0.068 C 
HETATM   15  C   UNL     1     -48.236  62.143 -52.711  1.00  0.00     0.240 C 
HETATM   16  H   UNL     1     -41.891  59.737 -53.201  1.00  0.00     0.162 HD
HETATM   17  H   UNL     1     -43.716  58.072 -49.867  1.00  0.00     0.165 HD
ENDROOT
BRANCH   9  18
HETATM   18  C   UNL     1     -42.397  57.339 -52.240  1.00  0.00    -0.016 A 
HETATM   19  C   UNL     1     -43.183  56.241 -51.847  1.00  0.00     0.014 A 
HETATM   20  C   UNL     1     -43.044  54.991 -52.462  1.00  0.00     0.037 A 
HETATM   21  C   UNL     1     -42.118  54.816 -53.488  1.00  0.00     0.069 A 
HETATM   22  C   UNL     1     -41.307  55.889 -53.862  1.00  0.00     0.037 A 
HETATM   23  C   UNL     1     -41.439  57.137 -53.246  1.00  0.00     0.014 A 
BRANCH  21  24
HETATM   24  O   UNL     1     -41.904  53.663 -54.189  1.00  0.00    -0.347 OA
BRANCH  24  25
HETATM   25  C   UNL     1     -40.548  53.329 -54.485  1.00  0.00     0.214 C 
BRANCH  25  26
HETATM   26  C   UNL     1     -40.182  52.087 -53.710  1.00  0.00    -0.034 A 
HETATM   27  C   UNL     1     -40.128  50.841 -54.349  1.00  0.00     0.009 A 
HETATM   28  C   UNL     1     -39.790  49.692 -53.632  1.00  0.00     0.001 A 
HETATM   29  C   UNL     1     -39.509  49.777 -52.268  1.00  0.00     0.000 A 
HETATM   30  C   UNL     1     -39.569  51.009 -51.621  1.00  0.00     0.001 A 
HETATM   31  C   UNL     1     -39.907  52.159 -52.337  1.00  0.00     0.009 A 
ENDBRANCH  25  26
ENDBRANCH  24  25
ENDBRANCH  21  24
ENDBRANCH   9  18
BRANCH   1  32
HETATM   32  C   UNL     1     -49.010  63.071 -54.958  1.00  0.00     0.273 C 
BRANCH  32  33
HETATM   33  C   UNL     1     -50.453  62.944 -54.550  1.00  0.00    -0.033 A 
HETATM   34  C   UNL     1     -51.133  61.725 -54.712  1.00  0.00     0.009 A 
HETATM   35  C   UNL     1     -52.479  61.612 -54.367  1.00  0.00     0.001 A 
HETATM   36  C   UNL     1     -53.162  62.711 -53.852  1.00  0.00     0.000 A 
HETATM   37  C   UNL     1     -52.498  63.922 -53.672  1.00  0.00     0.001 A 
HETATM   38  C   UNL     1     -51.150  64.039 -54.015  1.00  0.00     0.009 A 
ENDBRANCH  32  33
ENDBRANCH   1  32
TORSDOF 6
ENDMDL
MODEL 3
REMARK VINA RESULT:      -8.9      5.392     10.752
REMARK  6 active torsions:
REMARK  status: ('A' for Active; 'I' for Inactive)
REMARK    1  A    between atoms: C_4  and  C_5 
REMARK    2  A    between atoms: C_5  and  N_6 
REMARK    3  A    between atoms: C_14  and  C_15 
REMARK    4  A    between atoms: C_18  and  O_19 
REMARK    5  A    between atoms: O_19  and  C_20 
REMARK    6  A    between atoms: C_20  and  C_21 
ROOT
HETATM    1  N   UNL     1     -40.683  54.270 -51.621  1.00  0.00    -0.063 N 
HETATM    2  H   UNL     1     -39.993  54.618 -52.297  1.00  0.00     0.280 HD
HETATM    3  C   UNL     1     -41.863  53.811 -52.465  1.00  0.00     0.282 C 
HETATM    4  C   UNL     1     -42.496  54.982 -53.135  1.00  0.00     0.018 A 
HETATM    5  C   UNL     1     -42.316  56.302 -52.763  1.00  0.00    -0.023 A 
HETATM    6  C   UNL     1     -43.093  57.181 -53.585  1.00  0.00     0.073 A 
HETATM    7  C   UNL     1     -43.842  56.488 -54.505  1.00  0.00     0.088 A 
HETATM    8  N   UNL     1     -44.694  57.076 -55.366  1.00  0.00    -0.358 N 
HETATM    9  C   UNL     1     -44.635  58.505 -55.577  1.00  0.00     0.219 C 
HETATM   10  N   UNL     1     -44.044  59.186 -54.452  1.00  0.00    -0.332 N 
HETATM   11  C   UNL     1     -43.192  58.626 -53.543  1.00  0.00     0.256 C 
HETATM   12  O   UNL     1     -42.559  59.309 -52.746  1.00  0.00    -0.267 OA
HETATM   13  S   UNL     1     -43.586  54.808 -54.428  1.00  0.00    -0.074 SA
HETATM   14  C   UNL     1     -41.403  56.683 -51.634  1.00  0.00     0.068 C 
HETATM   15  C   UNL     1     -41.059  55.466 -50.752  1.00  0.00     0.240 C 
HETATM   16  H   UNL     1     -45.059  56.542 -56.149  1.00  0.00     0.162 HD
HETATM   17  H   UNL     1     -44.063  60.196 -54.453  1.00  0.00     0.165 HD
ENDROOT
BRANCH   9  18
HETATM   18  C   UNL     1     -43.959  58.812 -56.900  1.00  0.00    -0.016 A 
HETATM   19  C   UNL     1     -44.711  59.394 -57.936  1.00  0.00     0.014 A 
HETATM   20  C   UNL     1     -44.130  59.697 -59.173  1.00  0.00     0.037 A 
HETATM   21  C   UNL     1     -42.781  59.429 -59.395  1.00  0.00     0.069 A 
HETATM   22  C   UNL     1     -42.034  58.819 -58.386  1.00  0.00     0.037 A 
HETATM   23  C   UNL     1     -42.613  58.509 -57.153  1.00  0.00     0.014 A 
BRANCH  21  24
HETATM   24  O   UNL     1     -42.085  59.702 -60.539  1.00  0.00    -0.347 OA
BRANCH  24  25
HETATM   25  C   UNL     1     -42.327  60.966 -61.157  1.00  0.00     0.214 C 
BRANCH  25  26
HETATM   26  C   UNL     1     -41.173  61.883 -60.837  1.00  0.00    -0.034 A 
HETATM   27  C   UNL     1     -40.429  62.475 -61.868  1.00  0.00     0.009 A 
HETATM   28  C   UNL     1     -39.360  63.323 -61.571  1.00  0.00     0.001 A 
HETATM   29  C   UNL     1     -39.022  63.583 -60.244  1.00  0.00     0.000 A 
HETATM   30  C   UNL     1     -39.749  62.993 -59.212  1.00  0.00     0.001 A 
HETATM   31  C   UNL     1     -40.817  62.144 -59.507  1.00  0.00     0.009 A 
ENDBRANCH  25  26
ENDBRANCH  24  25
ENDBRANCH  21  24
ENDBRANCH   9  18
BRANCH   1  32
HETATM   32  C   UNL     1     -39.998  53.150 -50.881  1.00  0.00     0.273 C 
BRANCH  32  33
HETATM   33  C   UNL     1     -39.844  51.860 -51.640  1.00  0.00    -0.033 A 
HETATM   34  C   UNL     1     -39.838  50.631 -50.958  1.00  0.00     0.009 A 
HETATM   35  C   UNL     1     -39.661  49.435 -51.652  1.00  0.00     0.001 A 
HETATM   36  C   UNL     1     -39.494  49.449 -53.035  1.00  0.00     0.000 A 
HETATM   37  C   UNL     1     -39.512  50.658 -53.726  1.00  0.00     0.001 A 
HETATM   38  C   UNL     1     -39.689  51.857 -53.035  1.00  0.00     0.009 A 
ENDBRANCH  32  33
ENDBRANCH   1  32
TORSDOF 6
ENDMDL
MODEL 4
REMARK VINA RESULT:      -8.9      2.631     10.697
REMARK  6 active torsions:
REMARK  status: ('A' for Active; 'I' for Inactive)
REMARK    1  A    between atoms: C_4  and  C_5 
REMARK    2  A    between atoms: C_5  and  N_6 
REMARK    3  A    between atoms: C_14  and  C_15 
REMARK    4  A    between atoms: C_18  and  O_19 
REMARK    5  A    between atoms: O_19  and  C_20 
REMARK    6  A    between atoms: C_20  and  C_21 
ROOT
HETATM    1  N   UNL     1     -41.432  54.791 -54.562  1.00  0.00    -0.063 N 
HETATM    2  H   UNL     1     -42.027  54.587 -53.751  1.00  0.00     0.280 HD
HETATM    3  C   UNL     1     -40.603  55.998 -54.149  1.00  0.00     0.282 C 
HETATM    4  C   UNL     1     -41.486  57.187 -53.978  1.00  0.00     0.018 A 
HETATM    5  C   UNL     1     -42.769  57.301 -54.483  1.00  0.00    -0.023 A 
HETATM    6  C   UNL     1     -43.332  58.582 -54.174  1.00  0.00     0.073 A 
HETATM    7  C   UNL     1     -42.444  59.377 -53.491  1.00  0.00     0.088 A 
HETATM    8  N   UNL     1     -42.711  60.646 -53.126  1.00  0.00    -0.358 N 
HETATM    9  C   UNL     1     -44.071  61.137 -53.162  1.00  0.00     0.219 C 
HETATM   10  N   UNL     1     -44.883  60.389 -54.089  1.00  0.00    -0.332 N 
HETATM   11  C   UNL     1     -44.641  59.110 -54.503  1.00  0.00     0.256 C 
HETATM   12  O   UNL     1     -45.481  58.460 -55.116  1.00  0.00    -0.267 OA
HETATM   13  S   UNL     1     -40.970  58.592 -53.172  1.00  0.00    -0.074 SA
HETATM   14  C   UNL     1     -43.418  56.181 -55.241  1.00  0.00     0.068 C 
HETATM   15  C   UNL     1     -42.381  55.137 -55.704  1.00  0.00     0.240 C 
HETATM   16  H   UNL     1     -42.107  61.108 -52.453  1.00  0.00     0.162 HD
HETATM   17  H   UNL     1     -45.817  60.728 -54.272  1.00  0.00     0.165 HD
ENDROOT
BRANCH   9  18
HETATM   18  C   UNL     1     -44.644  61.197 -51.759  1.00  0.00    -0.016 A 
HETATM   19  C   UNL     1     -44.732  62.440 -51.106  1.00  0.00     0.014 A 
HETATM   20  C   UNL     1     -45.256  62.545 -49.813  1.00  0.00     0.037 A 
HETATM   21  C   UNL     1     -45.709  61.408 -49.147  1.00  0.00     0.069 A 
HETATM   22  C   UNL     1     -45.592  60.164 -49.771  1.00  0.00     0.037 A 
HETATM   23  C   UNL     1     -45.064  60.055 -51.060  1.00  0.00     0.014 A 
BRANCH  21  24
HETATM   24  O   UNL     1     -46.267  61.374 -47.901  1.00  0.00    -0.347 OA
BRANCH  24  25
HETATM   25  C   UNL     1     -45.569  60.635 -46.899  1.00  0.00     0.214 C 
BRANCH  25  26
HETATM   26  C   UNL     1     -45.135  61.591 -45.815  1.00  0.00    -0.034 A 
HETATM   27  C   UNL     1     -45.450  62.954 -45.902  1.00  0.00     0.009 A 
HETATM   28  C   UNL     1     -45.047  63.838 -44.899  1.00  0.00     0.001 A 
HETATM   29  C   UNL     1     -44.321  63.369 -43.805  1.00  0.00     0.000 A 
HETATM   30  C   UNL     1     -43.995  62.018 -43.714  1.00  0.00     0.001 A 
HETATM   31  C   UNL     1     -44.396  61.133 -44.715  1.00  0.00     0.009 A 
ENDBRANCH  25  26
ENDBRANCH  24  25
ENDBRANCH  21  24
ENDBRANCH   9  18
BRANCH   1  32
HETATM   32  C   UNL     1     -40.613  53.545 -54.786  1.00  0.00     0.273 C 
BRANCH  32  33
HETATM   33  C   UNL     1     -40.289  52.742 -53.556  1.00  0.00    -0.033 A 
HETATM   34  C   UNL     1     -39.758  51.446 -53.672  1.00  0.00     0.009 A 
HETATM   35  C   UNL     1     -39.488  50.685 -52.535  1.00  0.00     0.001 A 
HETATM   36  C   UNL     1     -39.738  51.209 -51.269  1.00  0.00     0.000 A 
HETATM   37  C   UNL     1     -40.250  52.497 -51.138  1.00  0.00     0.001 A 
HETATM   38  C   UNL     1     -40.522  53.262 -52.273  1.00  0.00     0.009 A 
ENDBRANCH  32  33
ENDBRANCH   1  32
TORSDOF 6
ENDMDL
MODEL 5
REMARK VINA RESULT:      -8.8      1.194      1.709
REMARK  6 active torsions:
REMARK  status: ('A' for Active; 'I' for Inactive)
REMARK    1  A    between atoms: C_4  and  C_5 
REMARK    2  A    between atoms: C_5  and  N_6 
REMARK    3  A    between atoms: C_14  and  C_15 
REMARK    4  A    between atoms: C_18  and  O_19 
REMARK    5  A    between atoms: O_19  and  C_20 
REMARK    6  A    between atoms: C_20  and  C_21 
ROOT
HETATM    1  N   UNL     1     -45.173  62.769 -48.564  1.00  0.00    -0.063 N 
HETATM    2  H   UNL     1     -44.556  62.037 -48.193  1.00  0.00     0.280 HD
HETATM    3  C   UNL     1     -46.252  62.022 -49.335  1.00  0.00     0.282 C 
HETATM    4  C   UNL     1     -45.654  61.346 -50.521  1.00  0.00     0.018 A 
HETATM    5  C   UNL     1     -44.422  61.651 -51.071  1.00  0.00    -0.023 A 
HETATM    6  C   UNL     1     -44.159  60.844 -52.225  1.00  0.00     0.073 A 
HETATM    7  C   UNL     1     -45.208  60.004 -52.509  1.00  0.00     0.088 A 
HETATM    8  N   UNL     1     -45.232  59.177 -53.571  1.00  0.00    -0.358 N 
HETATM    9  C   UNL     1     -44.013  58.903 -54.301  1.00  0.00     0.219 C 
HETATM   10  N   UNL     1     -43.045  59.959 -54.137  1.00  0.00    -0.332 N 
HETATM   11  C   UNL     1     -42.995  60.833 -53.088  1.00  0.00     0.256 C 
HETATM   12  O   UNL     1     -42.026  61.560 -52.900  1.00  0.00    -0.267 OA
HETATM   13  S   UNL     1     -46.476  60.134 -51.385  1.00  0.00    -0.074 SA
HETATM   14  C   UNL     1     -43.534  62.702 -50.474  1.00  0.00     0.068 C 
HETATM   15  C   UNL     1     -44.309  63.610 -49.498  1.00  0.00     0.240 C 
HETATM   16  H   UNL     1     -45.931  58.441 -53.614  1.00  0.00     0.162 HD
HETATM   17  H   UNL     1     -42.207  59.917 -54.699  1.00  0.00     0.165 HD
ENDROOT
BRANCH   9  18
HETATM   18  C   UNL     1     -43.483  57.528 -53.940  1.00  0.00    -0.016 A 
HETATM   19  C   UNL     1     -44.049  56.393 -54.549  1.00  0.00     0.014 A 
HETATM   20  C   UNL     1     -43.592  55.105 -54.250  1.00  0.00     0.037 A 
HETATM   21  C   UNL     1     -42.553  54.926 -53.338  1.00  0.00     0.069 A 
HETATM   22  C   UNL     1     -42.009  56.043 -52.701  1.00  0.00     0.037 A 
HETATM   23  C   UNL     1     -42.468  57.330 -52.993  1.00  0.00     0.014 A 
BRANCH  21  24
HETATM   24  O   UNL     1     -41.994  53.732 -52.980  1.00  0.00    -0.347 OA
BRANCH  24  25
HETATM   25  C   UNL     1     -40.576  53.621 -53.097  1.00  0.00     0.214 C 
BRANCH  25  26
HETATM   26  C   UNL     1     -40.209  52.158 -53.102  1.00  0.00    -0.034 A 
HETATM   27  C   UNL     1     -39.747  51.537 -51.933  1.00  0.00     0.009 A 
HETATM   28  C   UNL     1     -39.407  50.183 -51.939  1.00  0.00     0.001 A 
HETATM   29  C   UNL     1     -39.520  49.439 -53.113  1.00  0.00     0.000 A 
HETATM   30  C   UNL     1     -39.968  50.049 -54.283  1.00  0.00     0.001 A 
HETATM   31  C   UNL     1     -40.309  51.402 -54.279  1.00  0.00     0.009 A 
ENDBRANCH  25  26
ENDBRANCH  24  25
ENDBRANCH  21  24
ENDBRANCH   9  18
BRANCH   1  32
HETATM   32  C   UNL     1     -45.694  63.509 -47.359  1.00  0.00     0.273 C 
BRANCH  32  33
HETATM   33  C   UNL     1     -45.133  63.078 -46.031  1.00  0.00    -0.033 A 
HETATM   34  C   UNL     1     -44.859  61.722 -45.781  1.00  0.00     0.009 A 
HETATM   35  C   UNL     1     -44.371  61.313 -44.540  1.00  0.00     0.001 A 
HETATM   36  C   UNL     1     -44.147  62.251 -43.535  1.00  0.00     0.000 A 
HETATM   37  C   UNL     1     -44.400  63.600 -43.772  1.00  0.00     0.001 A 
HETATM   38  C   UNL     1     -44.888  64.013 -45.013  1.00  0.00     0.009 A 
ENDBRANCH  32  33
ENDBRANCH   1  32
TORSDOF 6
ENDMDL
MODEL 6
REMARK VINA RESULT:      -8.7      4.720      9.781
REMARK  6 active torsions:
REMARK  status: ('A' for Active; 'I' for Inactive)
REMARK    1  A    between atoms: C_4  and  C_5 
REMARK    2  A    between atoms: C_5  and  N_6 
REMARK    3  A    between atoms: C_14  and  C_15 
REMARK    4  A    between atoms: C_18  and  O_19 
REMARK    5  A    between atoms: O_19  and  C_20 
REMARK    6  A    between atoms: C_20  and  C_21 
ROOT
HETATM    1  N   UNL     1     -40.627  54.130 -51.242  1.00  0.00    -0.063 N 
HETATM    2  H   UNL     1     -39.991  54.464 -51.976  1.00  0.00     0.280 HD
HETATM    3  C   UNL     1     -41.973  53.963 -51.933  1.00  0.00     0.282 C 
HETATM    4  C   UNL     1     -42.495  55.293 -52.357  1.00  0.00     0.018 A 
HETATM    5  C   UNL     1     -42.053  56.510 -51.872  1.00  0.00    -0.023 A 
HETATM    6  C   UNL     1     -42.785  57.594 -52.456  1.00  0.00     0.073 A 
HETATM    7  C   UNL     1     -43.759  57.147 -53.316  1.00  0.00     0.088 A 
HETATM    8  N   UNL     1     -44.617  57.962 -53.958  1.00  0.00    -0.358 N 
HETATM    9  C   UNL     1     -44.357  59.384 -54.014  1.00  0.00     0.219 C 
HETATM   10  N   UNL     1     -43.511  59.814 -52.928  1.00  0.00    -0.332 N 
HETATM   11  C   UNL     1     -42.642  59.020 -52.237  1.00  0.00     0.256 C 
HETATM   12  O   UNL     1     -41.801  59.490 -51.479  1.00  0.00    -0.267 OA
HETATM   13  S   UNL     1     -43.770  55.453 -53.470  1.00  0.00    -0.074 SA
HETATM   14  C   UNL     1     -40.941  56.600 -50.869  1.00  0.00     0.068 C 
HETATM   15  C   UNL     1     -40.677  55.238 -50.196  1.00  0.00     0.240 C 
HETATM   16  H   UNL     1     -45.170  57.597 -54.727  1.00  0.00     0.162 HD
HETATM   17  H   UNL     1     -43.367  60.807 -52.813  1.00  0.00     0.165 HD
ENDROOT
BRANCH   9  18
HETATM   18  C   UNL     1     -43.833  59.767 -55.384  1.00  0.00    -0.016 A 
HETATM   19  C   UNL     1     -44.714  60.341 -56.320  1.00  0.00     0.014 A 
HETATM   20  C   UNL     1     -44.275  60.713 -57.596  1.00  0.00     0.037 A 
HETATM   21  C   UNL     1     -42.944  60.524 -57.960  1.00  0.00     0.069 A 
HETATM   22  C   UNL     1     -42.070  59.922 -57.053  1.00  0.00     0.037 A 
HETATM   23  C   UNL     1     -42.506  59.544 -55.780  1.00  0.00     0.014 A 
BRANCH  21  24
HETATM   24  O   UNL     1     -42.381  60.869 -59.156  1.00  0.00    -0.347 OA
BRANCH  24  25
HETATM   25  C   UNL     1     -43.014  60.374 -60.336  1.00  0.00     0.214 C 
BRANCH  25  26
HETATM   26  C   UNL     1     -43.102  58.871 -60.237  1.00  0.00    -0.034 A 
HETATM   27  C   UNL     1     -41.937  58.095 -60.159  1.00  0.00     0.009 A 
HETATM   28  C   UNL     1     -42.018  56.704 -60.068  1.00  0.00     0.001 A 
HETATM   29  C   UNL     1     -43.263  56.077 -60.061  1.00  0.00     0.000 A 
HETATM   30  C   UNL     1     -44.427  56.838 -60.149  1.00  0.00     0.001 A 
HETATM   31  C   UNL     1     -44.347  58.228 -60.240  1.00  0.00     0.009 A 
ENDBRANCH  25  26
ENDBRANCH  24  25
ENDBRANCH  21  24
ENDBRANCH   9  18
BRANCH   1  32
HETATM   32  C   UNL     1     -40.034  52.833 -50.752  1.00  0.00     0.273 C 
BRANCH  32  33
HETATM   33  C   UNL     1     -39.862  51.757 -51.789  1.00  0.00    -0.033 A 
HETATM   34  C   UNL     1     -39.884  52.077 -53.157  1.00  0.00     0.009 A 
HETATM   35  C   UNL     1     -39.759  51.078 -54.122  1.00  0.00     0.001 A 
HETATM   36  C   UNL     1     -39.606  49.749 -53.735  1.00  0.00     0.000 A 
HETATM   37  C   UNL     1     -39.569  49.418 -52.383  1.00  0.00     0.001 A 
HETATM   38  C   UNL     1     -39.693  50.415 -51.414  1.00  0.00     0.009 A 
ENDBRANCH  32  33
ENDBRANCH   1  32
TORSDOF 6
ENDMDL
MODEL 7
REMARK VINA RESULT:      -8.4      4.345     10.254
REMARK  6 active torsions:
REMARK  status: ('A' for Active; 'I' for Inactive)
REMARK    1  A    between atoms: C_4  and  C_5 
REMARK    2  A    between atoms: C_5  and  N_6 
REMARK    3  A    between atoms: C_14  and  C_15 
REMARK    4  A    between atoms: C_18  and  O_19 
REMARK    5  A    between atoms: O_19  and  C_20 
REMARK    6  A    between atoms: C_20  and  C_21 
ROOT
HETATM    1  N   UNL     1     -40.688  53.900 -50.721  1.00  0.00    -0.063 N 
HETATM    2  H   UNL     1     -40.231  54.151 -51.605  1.00  0.00     0.280 HD
HETATM    3  C   UNL     1     -42.180  53.975 -51.014  1.00  0.00     0.282 C 
HETATM    4  C   UNL     1     -42.573  55.385 -51.295  1.00  0.00     0.018 A 
HETATM    5  C   UNL     1     -41.822  56.498 -50.965  1.00  0.00    -0.023 A 
HETATM    6  C   UNL     1     -42.497  57.705 -51.340  1.00  0.00     0.073 A 
HETATM    7  C   UNL     1     -43.728  57.449 -51.894  1.00  0.00     0.088 A 
HETATM    8  N   UNL     1     -44.583  58.413 -52.286  1.00  0.00    -0.358 N 
HETATM    9  C   UNL     1     -44.118  59.775 -52.428  1.00  0.00     0.219 C 
HETATM   10  N   UNL     1     -42.950  60.027 -51.622  1.00  0.00    -0.332 N 
HETATM   11  C   UNL     1     -42.068  59.080 -51.185  1.00  0.00     0.256 C 
HETATM   12  O   UNL     1     -40.987  59.384 -50.693  1.00  0.00    -0.267 OA
HETATM   13  S   UNL     1     -44.058  55.786 -52.019  1.00  0.00    -0.074 SA
HETATM   14  C   UNL     1     -40.480  56.374 -50.306  1.00  0.00     0.068 C 
HETATM   15  C   UNL     1     -40.270  54.966 -49.714  1.00  0.00     0.240 C 
HETATM   16  H   UNL     1     -45.376  58.168 -52.870  1.00  0.00     0.162 HD
HETATM   17  H   UNL     1     -42.619  60.979 -51.562  1.00  0.00     0.165 HD
ENDROOT
BRANCH   9  18
HETATM   18  C   UNL     1     -43.932  60.115 -53.895  1.00  0.00    -0.016 A 
HETATM   19  C   UNL     1     -44.843  59.606 -54.838  1.00  0.00     0.014 A 
HETATM   20  C   UNL     1     -44.712  59.895 -56.202  1.00  0.00     0.037 A 
HETATM   21  C   UNL     1     -43.670  60.704 -56.648  1.00  0.00     0.069 A 
HETATM   22  C   UNL     1     -42.739  61.184 -55.725  1.00  0.00     0.037 A 
HETATM   23  C   UNL     1     -42.863  60.893 -54.364  1.00  0.00     0.014 A 
BRANCH  21  24
HETATM   24  O   UNL     1     -43.446  61.086 -57.941  1.00  0.00    -0.347 OA
BRANCH  24  25
HETATM   25  C   UNL     1     -42.497  60.323 -58.686  1.00  0.00     0.214 C 
BRANCH  25  26
HETATM   26  C   UNL     1     -41.548  61.276 -59.369  1.00  0.00    -0.034 A 
HETATM   27  C   UNL     1     -41.607  61.465 -60.757  1.00  0.00     0.009 A 
HETATM   28  C   UNL     1     -40.727  62.346 -61.389  1.00  0.00     0.001 A 
HETATM   29  C   UNL     1     -39.779  63.043 -60.641  1.00  0.00     0.000 A 
HETATM   30  C   UNL     1     -39.705  62.855 -59.263  1.00  0.00     0.001 A 
HETATM   31  C   UNL     1     -40.583  61.974 -58.629  1.00  0.00     0.009 A 
ENDBRANCH  25  26
ENDBRANCH  24  25
ENDBRANCH  21  24
ENDBRANCH   9  18
BRANCH   1  32
HETATM   32  C   UNL     1     -40.206  52.509 -50.397  1.00  0.00     0.273 C 
BRANCH  32  33
HETATM   33  C   UNL     1     -39.951  51.610 -51.576  1.00  0.00    -0.033 A 
HETATM   34  C   UNL     1     -39.986  52.126 -52.883  1.00  0.00     0.009 A 
HETATM   35  C   UNL     1     -39.784  51.290 -53.981  1.00  0.00     0.001 A 
HETATM   36  C   UNL     1     -39.540  49.932 -53.789  1.00  0.00     0.000 A 
HETATM   37  C   UNL     1     -39.488  49.410 -52.499  1.00  0.00     0.001 A 
HETATM   38  C   UNL     1     -39.689  50.243 -51.398  1.00  0.00     0.009 A 
ENDBRANCH  32  33
ENDBRANCH   1  32
TORSDOF 6
ENDMDL
MODEL 8
REMARK VINA RESULT:      -8.2     18.451     21.961
REMARK  6 active torsions:
REMARK  status: ('A' for Active; 'I' for Inactive)
REMARK    1  A    between atoms: C_4  and  C_5 
REMARK    2  A    between atoms: C_5  and  N_6 
REMARK    3  A    between atoms: C_14  and  C_15 
REMARK    4  A    between atoms: C_18  and  O_19 
REMARK    5  A    between atoms: O_19  and  C_20 
REMARK    6  A    between atoms: C_20  and  C_21 
ROOT
HETATM    1  N   UNL     1     -37.185  39.965 -58.802  1.00  0.00    -0.063 N 
HETATM    2  H   UNL     1     -36.915  39.091 -58.335  1.00  0.00     0.280 HD
HETATM    3  C   UNL     1     -36.067  40.945 -58.479  1.00  0.00     0.282 C 
HETATM    4  C   UNL     1     -36.058  41.244 -57.019  1.00  0.00     0.018 A 
HETATM    5  C   UNL     1     -37.109  41.002 -56.153  1.00  0.00    -0.023 A 
HETATM    6  C   UNL     1     -36.794  41.437 -54.825  1.00  0.00     0.073 A 
HETATM    7  C   UNL     1     -35.549  42.014 -54.761  1.00  0.00     0.088 A 
HETATM    8  N   UNL     1     -35.034  42.548 -53.637  1.00  0.00    -0.358 N 
HETATM    9  C   UNL     1     -35.644  42.264 -52.357  1.00  0.00     0.219 C 
HETATM   10  N   UNL     1     -37.030  41.891 -52.498  1.00  0.00    -0.332 N 
HETATM   11  C   UNL     1     -37.600  41.366 -53.623  1.00  0.00     0.256 C 
HETATM   12  O   UNL     1     -38.722  40.873 -53.608  1.00  0.00    -0.267 OA
HETATM   13  S   UNL     1     -34.737  41.992 -56.254  1.00  0.00    -0.074 SA
HETATM   14  C   UNL     1     -38.381  40.359 -56.622  1.00  0.00     0.068 C 
HETATM   15  C   UNL     1     -38.499  40.395 -58.159  1.00  0.00     0.240 C 
HETATM   16  H   UNL     1     -34.043  42.769 -53.599  1.00  0.00     0.162 HD
HETATM   17  H   UNL     1     -37.575  41.786 -51.654  1.00  0.00     0.165 HD
ENDROOT
BRANCH   9  18
HETATM   18  C   UNL     1     -34.815  41.248 -51.594  1.00  0.00    -0.016 A 
HETATM   19  C   UNL     1     -35.449  40.403 -50.666  1.00  0.00     0.014 A 
HETATM   20  C   UNL     1     -34.725  39.449 -49.940  1.00  0.00     0.037 A 
HETATM   21  C   UNL     1     -33.352  39.318 -50.134  1.00  0.00     0.069 A 
HETATM   22  C   UNL     1     -32.707  40.176 -51.026  1.00  0.00     0.037 A 
HETATM   23  C   UNL     1     -33.425  41.134 -51.747  1.00  0.00     0.014 A 
BRANCH  21  24
HETATM   24  O   UNL     1     -32.536  38.412 -49.517  1.00  0.00    -0.347 OA
BRANCH  24  25
HETATM   25  C   UNL     1     -32.955  37.928 -48.241  1.00  0.00     0.214 C 
BRANCH  25  26
HETATM   26  C   UNL     1     -32.087  38.561 -47.181  1.00  0.00    -0.034 A 
HETATM   27  C   UNL     1     -31.120  39.514 -47.530  1.00  0.00     0.009 A 
HETATM   28  C   UNL     1     -30.317  40.098 -46.549  1.00  0.00     0.001 A 
HETATM   29  C   UNL     1     -30.469  39.732 -45.213  1.00  0.00     0.000 A 
HETATM   30  C   UNL     1     -31.420  38.778 -44.856  1.00  0.00     0.001 A 
HETATM   31  C   UNL     1     -32.223  38.193 -45.835  1.00  0.00     0.009 A 
ENDBRANCH  25  26
ENDBRANCH  24  25
ENDBRANCH  21  24
ENDBRANCH   9  18
BRANCH   1  32
HETATM   32  C   UNL     1     -37.287  39.626 -60.267  1.00  0.00     0.273 C 
BRANCH  32  33
HETATM   33  C   UNL     1     -38.301  38.574 -60.629  1.00  0.00    -0.033 A 
HETATM   34  C   UNL     1     -38.773  38.465 -61.948  1.00  0.00     0.009 A 
HETATM   35  C   UNL     1     -39.737  37.514 -62.281  1.00  0.00     0.001 A 
HETATM   36  C   UNL     1     -40.238  36.658 -61.304  1.00  0.00     0.000 A 
HETATM   37  C   UNL     1     -39.770  36.744 -59.996  1.00  0.00     0.001 A 
HETATM   38  C   UNL     1     -38.804  37.694 -59.658  1.00  0.00     0.009 A 
ENDBRANCH  32  33
ENDBRANCH   1  32
TORSDOF 6
ENDMDL
MODEL 9
REMARK VINA RESULT:      -8.1      2.258      2.879
REMARK  6 active torsions:
REMARK  status: ('A' for Active; 'I' for Inactive)
REMARK    1  A    between atoms: C_4  and  C_5 
REMARK    2  A    between atoms: C_5  and  N_6 
REMARK    3  A    between atoms: C_14  and  C_15 
REMARK    4  A    between atoms: C_18  and  O_19 
REMARK    5  A    between atoms: O_19  and  C_20 
REMARK    6  A    between atoms: C_20  and  C_21 
ROOT
HETATM    1  N   UNL     1     -44.175  62.950 -50.465  1.00  0.00    -0.063 N 
HETATM    2  H   UNL     1     -43.441  62.275 -50.220  1.00  0.00     0.280 HD
HETATM    3  C   UNL     1     -45.399  62.103 -50.782  1.00  0.00     0.282 C 
HETATM    4  C   UNL     1     -45.154  61.296 -52.011  1.00  0.00     0.018 A 
HETATM    5  C   UNL     1     -44.161  61.547 -52.941  1.00  0.00    -0.023 A 
HETATM    6  C   UNL     1     -44.218  60.610 -54.023  1.00  0.00     0.073 A 
HETATM    7  C   UNL     1     -45.263  59.729 -53.879  1.00  0.00     0.088 A 
HETATM    8  N   UNL     1     -45.565  58.779 -54.784  1.00  0.00    -0.358 N 
HETATM    9  C   UNL     1     -44.611  58.434 -55.815  1.00  0.00     0.219 C 
HETATM   10  N   UNL     1     -43.690  59.514 -56.071  1.00  0.00    -0.332 N 
HETATM   11  C   UNL     1     -43.369  60.508 -55.192  1.00  0.00     0.256 C 
HETATM   12  O   UNL     1     -42.424  61.264 -55.390  1.00  0.00    -0.267 OA
HETATM   13  S   UNL     1     -46.139  59.978 -52.443  1.00  0.00    -0.074 SA
HETATM   14  C   UNL     1     -43.185  62.673 -52.763  1.00  0.00     0.068 C 
HETATM   15  C   UNL     1     -43.675  63.682 -51.705  1.00  0.00     0.240 C 
HETATM   16  H   UNL     1     -46.208  58.035 -54.530  1.00  0.00     0.162 HD
HETATM   17  H   UNL     1     -43.059  59.414 -56.853  1.00  0.00     0.165 HD
ENDROOT
BRANCH   9  18
HETATM   18  C   UNL     1     -43.932  57.119 -55.481  1.00  0.00    -0.016 A 
HETATM   19  C   UNL     1     -43.143  56.487 -56.460  1.00  0.00     0.014 A 
HETATM   20  C   UNL     1     -42.496  55.274 -56.198  1.00  0.00     0.037 A 
HETATM   21  C   UNL     1     -42.619  54.672 -54.947  1.00  0.00     0.069 A 
HETATM   22  C   UNL     1     -43.428  55.272 -53.981  1.00  0.00     0.037 A 
HETATM   23  C   UNL     1     -44.081  56.480 -54.242  1.00  0.00     0.014 A 
BRANCH  21  24
HETATM   24  O   UNL     1     -42.018  53.510 -54.552  1.00  0.00    -0.347 OA
BRANCH  24  25
HETATM   25  C   UNL     1     -40.726  53.621 -53.956  1.00  0.00     0.214 C 
BRANCH  25  26
HETATM   26  C   UNL     1     -40.310  52.259 -53.459  1.00  0.00    -0.034 A 
HETATM   27  C   UNL     1     -39.894  52.083 -52.131  1.00  0.00     0.009 A 
HETATM   28  C   UNL     1     -39.509  50.823 -51.672  1.00  0.00     0.001 A 
HETATM   29  C   UNL     1     -39.530  49.728 -52.535  1.00  0.00     0.000 A 
HETATM   30  C   UNL     1     -39.932  49.893 -53.858  1.00  0.00     0.001 A 
HETATM   31  C   UNL     1     -40.318  51.152 -54.320  1.00  0.00     0.009 A 
ENDBRANCH  25  26
ENDBRANCH  24  25
ENDBRANCH  21  24
ENDBRANCH   9  18
BRANCH   1  32
HETATM   32  C   UNL     1     -44.345  63.824 -49.248  1.00  0.00     0.273 C 
BRANCH  32  33
HETATM   33  C   UNL     1     -44.668  63.108 -47.965  1.00  0.00    -0.033 A 
HETATM   34  C   UNL     1     -45.111  63.827 -46.842  1.00  0.00     0.009 A 
HETATM   35  C   UNL     1     -45.379  63.171 -45.640  1.00  0.00     0.001 A 
HETATM   36  C   UNL     1     -45.215  61.792 -45.546  1.00  0.00     0.000 A 
HETATM   37  C   UNL     1     -44.791  61.064 -46.655  1.00  0.00     0.001 A 
HETATM   38  C   UNL     1     -44.522  61.715 -47.860  1.00  0.00     0.009 A 
ENDBRANCH  32  33
ENDBRANCH   1  32
TORSDOF 6
ENDMDL
MODEL 10
REMARK VINA RESULT:      -8.1      2.579      3.957
REMARK  6 active torsions:
REMARK  status: ('A' for Active; 'I' for Inactive)
REMARK    1  A    between atoms: C_4  and  C_5 
REMARK    2  A    between atoms: C_5  and  N_6 
REMARK    3  A    between atoms: C_14  and  C_15 
REMARK    4  A    between atoms: C_18  and  O_19 
REMARK    5  A    between atoms: O_19  and  C_20 
REMARK    6  A    between atoms: C_20  and  C_21 
ROOT
HETATM    1  N   UNL     1     -44.382  62.069 -51.674  1.00  0.00    -0.063 N 
HETATM    2  H   UNL     1     -43.589  61.603 -51.217  1.00  0.00     0.280 HD
HETATM    3  C   UNL     1     -45.370  60.953 -51.981  1.00  0.00     0.282 C 
HETATM    4  C   UNL     1     -44.794  60.029 -52.998  1.00  0.00     0.018 A 
HETATM    5  C   UNL     1     -43.725  60.326 -53.825  1.00  0.00    -0.023 A 
HETATM    6  C   UNL     1     -43.442  59.238 -54.713  1.00  0.00     0.073 A 
HETATM    7  C   UNL     1     -44.324  58.199 -54.542  1.00  0.00     0.088 A 
HETATM    8  N   UNL     1     -44.306  57.077 -55.286  1.00  0.00    -0.358 N 
HETATM    9  C   UNL     1     -43.153  56.773 -56.106  1.00  0.00     0.219 C 
HETATM   10  N   UNL     1     -42.409  57.962 -56.440  1.00  0.00    -0.332 N 
HETATM   11  C   UNL     1     -42.413  59.127 -55.726  1.00  0.00     0.256 C 
HETATM   12  O   UNL     1     -41.597  60.017 -55.940  1.00  0.00    -0.267 OA
HETATM   13  S   UNL     1     -45.449  58.489 -53.300  1.00  0.00    -0.074 SA
HETATM   14  C   UNL     1     -43.005  61.639 -53.737  1.00  0.00     0.068 C 
HETATM   15  C   UNL     1     -43.827  62.683 -52.954  1.00  0.00     0.240 C 
HETATM   16  H   UNL     1     -44.840  56.268 -54.983  1.00  0.00     0.162 HD
HETATM   17  H   UNL     1     -41.653  57.871 -57.104  1.00  0.00     0.165 HD
ENDROOT
BRANCH   9  18
HETATM   18  C   UNL     1     -42.315  55.692 -55.452  1.00  0.00    -0.016 A 
HETATM   19  C   UNL     1     -41.041  56.019 -54.953  1.00  0.00     0.014 A 
HETATM   20  C   UNL     1     -40.232  55.055 -54.340  1.00  0.00     0.037 A 
HETATM   21  C   UNL     1     -40.685  53.744 -54.208  1.00  0.00     0.069 A 
HETATM   22  C   UNL     1     -41.932  53.400 -54.732  1.00  0.00     0.037 A 
HETATM   23  C   UNL     1     -42.740  54.359 -55.351  1.00  0.00     0.014 A 
BRANCH  21  24
HETATM   24  O   UNL     1     -40.013  52.718 -53.606  1.00  0.00    -0.347 OA
BRANCH  24  25
HETATM   25  C   UNL     1     -40.638  52.111 -52.475  1.00  0.00     0.214 C 
BRANCH  25  26
HETATM   26  C   UNL     1     -40.785  53.152 -51.394  1.00  0.00    -0.034 A 
HETATM   27  C   UNL     1     -39.680  53.534 -50.619  1.00  0.00     0.009 A 
HETATM   28  C   UNL     1     -39.818  54.497 -49.618  1.00  0.00     0.001 A 
HETATM   29  C   UNL     1     -41.060  55.083 -49.378  1.00  0.00     0.000 A 
HETATM   30  C   UNL     1     -42.166  54.703 -50.135  1.00  0.00     0.001 A 
HETATM   31  C   UNL     1     -42.031  53.741 -51.136  1.00  0.00     0.009 A 
ENDBRANCH  25  26
ENDBRANCH  24  25
ENDBRANCH  21  24
ENDBRANCH   9  18
BRANCH   1  32
HETATM   32  C   UNL     1     -44.895  63.071 -50.671  1.00  0.00     0.273 C 
BRANCH  32  33
HETATM   33  C   UNL     1     -45.255  62.521 -49.318  1.00  0.00    -0.033 A 
HETATM   34  C   UNL     1     -44.350  61.703 -48.619  1.00  0.00     0.009 A 
HETATM   35  C   UNL     1     -44.692  61.163 -47.380  1.00  0.00     0.001 A 
HETATM   36  C   UNL     1     -45.937  61.436 -46.820  1.00  0.00     0.000 A 
HETATM   37  C   UNL     1     -46.839  62.256 -47.493  1.00  0.00     0.001 A 
HETATM   38  C   UNL     1     -46.501  62.799 -48.734  1.00  0.00     0.009 A 
ENDBRANCH  32  33
ENDBRANCH   1  32
TORSDOF 6
ENDMDL
