MODEL 1
REMARK VINA RESULT:     -10.2      0.000      0.000
REMARK  7 active torsions:
REMARK  status: ('A' for Active; 'I' for Inactive)
REMARK    1  A    between atoms: C_3  and  C_4 
REMARK       I    between atoms: C_4  and  N_5 
REMARK    2  A    between atoms: N_5  and  C_6 
REMARK    3  A    between atoms: C_6  and  C_7 
REMARK    4  A    between atoms: N_23  and  C_24 
REMARK    5  A    between atoms: C_24  and  C_25 
REMARK       I    between atoms: C_25  and  N_26 
REMARK    6  A    between atoms: N_26  and  C_27 
REMARK    7  A    between atoms: C_29  and  C_30 
ROOT
HETATM    1  C   UNL     1     -42.429  61.076 -50.369  1.00  0.00     0.051 C 
HETATM    2  C   UNL     1     -43.626  60.626 -51.151  1.00  0.00    -0.021 C 
HETATM    3  C   UNL     1     -44.945  60.969 -50.850  1.00  0.00     0.081 C 
HETATM    4  S   UNL     1     -46.034  60.362 -52.033  1.00  0.00    -0.063 SA
HETATM    5  C   UNL     1     -44.809  59.516 -52.848  1.00  0.00     0.116 A 
HETATM    6  C   UNL     1     -43.577  59.713 -52.268  1.00  0.00     0.075 A 
HETATM    7  C   UNL     1     -42.455  58.974 -52.829  1.00  0.00     0.262 A 
HETATM    8  O   UNL     1     -41.294  59.092 -52.435  1.00  0.00    -0.267 OA
HETATM    9  N   UNL     1     -42.804  58.098 -53.854  1.00  0.00    -0.299 N 
HETATM   10  C   UNL     1     -44.084  58.060 -54.370  1.00  0.00     0.214 A 
HETATM   11  N   UNL     1     -45.092  58.735 -53.921  1.00  0.00    -0.235 NA
ENDROOT
BRANCH   3  12
HETATM   12  C   UNL     1     -45.445  61.712 -49.691  1.00  0.00     0.259 C 
HETATM   13  N   UNL     1     -45.869  60.951 -48.620  1.00  0.00    -0.354 N 
HETATM   14  H   UNL     1     -45.938  59.948 -48.743  1.00  0.00     0.162 HD
HETATM   15  O   UNL     1     -45.465  62.940 -49.628  1.00  0.00    -0.267 OA
BRANCH  13  16
HETATM   16  C   UNL     1     -46.323  61.543 -47.374  1.00  0.00     0.157 C 
BRANCH  16  17
HETATM   17  C   UNL     1     -45.185  61.811 -46.384  1.00  0.00     0.171 C 
HETATM   18  O   UNL     1     -45.468  63.052 -45.710  1.00  0.00    -0.339 OA
HETATM   19  C   UNL     1     -44.675  63.216 -44.603  1.00  0.00     0.102 A 
HETATM   20  C   UNL     1     -43.970  62.168 -44.004  1.00  0.00     0.102 A 
HETATM   21  C   UNL     1     -44.604  64.500 -44.068  1.00  0.00     0.039 A 
HETATM   22  O   UNL     1     -44.015  60.874 -44.457  1.00  0.00    -0.346 OA
HETATM   23  C   UNL     1     -43.164  62.413 -42.895  1.00  0.00     0.039 A 
HETATM   24  C   UNL     1     -45.105  60.676 -45.365  1.00  0.00     0.209 C 
HETATM   25  C   UNL     1     -43.082  63.702 -42.366  1.00  0.00     0.003 A 
HETATM   26  C   UNL     1     -43.804  64.744 -42.950  1.00  0.00     0.003 A 
ENDBRANCH  16  17
ENDBRANCH  13  16
ENDBRANCH   3  12
BRANCH   9  27
HETATM   27  C   UNL     1     -41.793  57.184 -54.351  1.00  0.00     0.236 C 
BRANCH  27  28
HETATM   28  C   UNL     1     -41.893  55.830 -53.657  1.00  0.00     0.240 C 
HETATM   29  N   UNL     1     -40.742  55.072 -53.787  1.00  0.00    -0.326 N 
HETATM   30  H   UNL     1     -40.072  55.382 -54.493  1.00  0.00     0.169 HD
HETATM   31  O   UNL     1     -42.930  55.495 -53.093  1.00  0.00    -0.271 OA
BRANCH  29  32
HETATM   32  C   UNL     1     -40.433  53.870 -53.123  1.00  0.00     0.035 A 
HETATM   33  C   UNL     1     -40.249  52.648 -53.776  1.00  0.00     0.045 A 
HETATM   34  C   UNL     1     -39.993  51.473 -53.047  1.00  0.00     0.050 A 
HETATM   35  C   UNL     1     -39.910  51.541 -51.648  1.00  0.00     0.016 A 
HETATM   36  C   UNL     1     -40.089  52.757 -50.992  1.00  0.00     0.003 A 
HETATM   37  C   UNL     1     -40.355  53.913 -51.726  1.00  0.00     0.029 A 
BRANCH  34  38
HETATM   38  C   UNL     1     -39.816  50.147 -53.744  1.00  0.00     0.417 C 
HETATM   39  F   UNL     1     -38.792  50.125 -54.642  1.00  0.00    -0.166 F 
HETATM   40  F   UNL     1     -39.572  49.128 -52.873  1.00  0.00    -0.166 F 
HETATM   41  F   UNL     1     -40.928  49.778 -54.443  1.00  0.00    -0.166 F 
ENDBRANCH  34  38
ENDBRANCH  29  32
ENDBRANCH  27  28
ENDBRANCH   9  27
TORSDOF 7
ENDMDL
MODEL 2
REMARK VINA RESULT:     -10.2      5.684      9.823
REMARK  7 active torsions:
REMARK  status: ('A' for Active; 'I' for Inactive)
REMARK    1  A    between atoms: C_3  and  C_4 
REMARK       I    between atoms: C_4  and  N_5 
REMARK    2  A    between atoms: N_5  and  C_6 
REMARK    3  A    between atoms: C_6  and  C_7 
REMARK    4  A    between atoms: N_23  and  C_24 
REMARK    5  A    between atoms: C_24  and  C_25 
REMARK       I    between atoms: C_25  and  N_26 
REMARK    6  A    between atoms: N_26  and  C_27 
REMARK    7  A    between atoms: C_29  and  C_30 
ROOT
HETATM    1  C   UNL     1     -43.901  55.880 -54.341  1.00  0.00     0.051 C 
HETATM    2  C   UNL     1     -42.900  56.919 -53.938  1.00  0.00    -0.021 C 
HETATM    3  C   UNL     1     -42.398  57.908 -54.785  1.00  0.00     0.081 C 
HETATM    4  S   UNL     1     -41.358  58.985 -53.941  1.00  0.00    -0.063 SA
HETATM    5  C   UNL     1     -41.432  58.071 -52.513  1.00  0.00     0.116 A 
HETATM    6  C   UNL     1     -42.263  56.982 -52.644  1.00  0.00     0.075 A 
HETATM    7  C   UNL     1     -42.346  56.073 -51.510  1.00  0.00     0.262 A 
HETATM    8  O   UNL     1     -43.083  55.087 -51.477  1.00  0.00    -0.267 OA
HETATM    9  N   UNL     1     -41.503  56.402 -50.452  1.00  0.00    -0.299 N 
HETATM   10  C   UNL     1     -40.770  57.571 -50.445  1.00  0.00     0.214 A 
HETATM   11  N   UNL     1     -40.707  58.420 -51.420  1.00  0.00    -0.235 NA
ENDROOT
BRANCH   3  12
HETATM   12  C   UNL     1     -42.634  58.075 -56.220  1.00  0.00     0.259 C 
HETATM   13  N   UNL     1     -42.246  57.024 -57.025  1.00  0.00    -0.354 N 
HETATM   14  H   UNL     1     -41.708  56.273 -56.607  1.00  0.00     0.162 HD
HETATM   15  O   UNL     1     -43.178  59.064 -56.709  1.00  0.00    -0.267 OA
BRANCH  13  16
HETATM   16  C   UNL     1     -42.479  57.010 -58.458  1.00  0.00     0.157 C 
BRANCH  16  17
HETATM   17  C   UNL     1     -43.949  56.782 -58.828  1.00  0.00     0.171 C 
HETATM   18  O   UNL     1     -44.426  57.965 -59.497  1.00  0.00    -0.339 OA
HETATM   19  C   UNL     1     -45.621  57.738 -60.128  1.00  0.00     0.102 A 
HETATM   20  C   UNL     1     -46.113  56.458 -60.402  1.00  0.00     0.102 A 
HETATM   21  C   UNL     1     -46.350  58.862 -60.514  1.00  0.00     0.039 A 
HETATM   22  O   UNL     1     -45.439  55.309 -60.079  1.00  0.00    -0.346 OA
HETATM   23  C   UNL     1     -47.348  56.303 -61.027  1.00  0.00     0.039 A 
HETATM   24  C   UNL     1     -44.069  55.577 -59.759  1.00  0.00     0.209 C 
HETATM   25  C   UNL     1     -48.084  57.429 -61.402  1.00  0.00     0.003 A 
HETATM   26  C   UNL     1     -47.583  58.707 -61.148  1.00  0.00     0.003 A 
ENDBRANCH  16  17
ENDBRANCH  13  16
ENDBRANCH   3  12
BRANCH   9  27
HETATM   27  C   UNL     1     -41.376  55.460 -49.355  1.00  0.00     0.236 C 
BRANCH  27  28
HETATM   28  C   UNL     1     -40.456  54.304 -49.733  1.00  0.00     0.240 C 
HETATM   29  N   UNL     1     -41.138  53.222 -50.262  1.00  0.00    -0.326 N 
HETATM   30  H   UNL     1     -42.152  53.218 -50.132  1.00  0.00     0.169 HD
HETATM   31  O   UNL     1     -39.248  54.376 -49.527  1.00  0.00    -0.271 OA
BRANCH  29  32
HETATM   32  C   UNL     1     -40.587  52.081 -50.875  1.00  0.00     0.035 A 
HETATM   33  C   UNL     1     -40.471  51.924 -52.258  1.00  0.00     0.045 A 
HETATM   34  C   UNL     1     -39.957  50.736 -52.808  1.00  0.00     0.050 A 
HETATM   35  C   UNL     1     -39.547  49.707 -51.947  1.00  0.00     0.016 A 
HETATM   36  C   UNL     1     -39.658  49.859 -50.567  1.00  0.00     0.003 A 
HETATM   37  C   UNL     1     -40.181  51.038 -50.035  1.00  0.00     0.029 A 
BRANCH  34  38
HETATM   38  C   UNL     1     -39.849  50.551 -54.302  1.00  0.00     0.417 C 
HETATM   39  F   UNL     1     -38.717  49.908 -54.700  1.00  0.00    -0.166 F 
HETATM   40  F   UNL     1     -40.888  49.834 -54.814  1.00  0.00    -0.166 F 
HETATM   41  F   UNL     1     -39.853  51.740 -54.971  1.00  0.00    -0.166 F 
ENDBRANCH  34  38
ENDBRANCH  29  32
ENDBRANCH  27  28
ENDBRANCH   9  27
TORSDOF 7
ENDMDL
MODEL 3
REMARK VINA RESULT:     -10.0      1.416      2.160
REMARK  7 active torsions:
REMARK  status: ('A' for Active; 'I' for Inactive)
REMARK    1  A    between atoms: C_3  and  C_4 
REMARK       I    between atoms: C_4  and  N_5 
REMARK    2  A    between atoms: N_5  and  C_6 
REMARK    3  A    between atoms: C_6  and  C_7 
REMARK    4  A    between atoms: N_23  and  C_24 
REMARK    5  A    between atoms: C_24  and  C_25 
REMARK       I    between atoms: C_25  and  N_26 
REMARK    6  A    between atoms: N_26  and  C_27 
REMARK    7  A    between atoms: C_29  and  C_30 
ROOT
HETATM    1  C   UNL     1     -46.278  59.910 -51.910  1.00  0.00     0.051 C 
HETATM    2  C   UNL     1     -44.842  60.146 -51.550  1.00  0.00    -0.021 C 
HETATM    3  C   UNL     1     -44.386  61.199 -50.757  1.00  0.00     0.081 C 
HETATM    4  S   UNL     1     -42.695  61.077 -50.470  1.00  0.00    -0.063 SA
HETATM    5  C   UNL     1     -42.529  59.747 -51.510  1.00  0.00     0.116 A 
HETATM    6  C   UNL     1     -43.737  59.361 -52.046  1.00  0.00     0.075 A 
HETATM    7  C   UNL     1     -43.714  58.279 -53.020  1.00  0.00     0.262 A 
HETATM    8  O   UNL     1     -44.725  57.807 -53.540  1.00  0.00    -0.267 OA
HETATM    9  N   UNL     1     -42.436  57.820 -53.332  1.00  0.00    -0.299 N 
HETATM   10  C   UNL     1     -41.319  58.269 -52.658  1.00  0.00     0.214 A 
HETATM   11  N   UNL     1     -41.312  59.199 -51.759  1.00  0.00    -0.235 NA
ENDROOT
BRANCH   3  12
HETATM   12  C   UNL     1     -45.152  62.325 -50.219  1.00  0.00     0.259 C 
HETATM   13  N   UNL     1     -46.236  61.998 -49.429  1.00  0.00    -0.354 N 
HETATM   14  H   UNL     1     -46.517  61.026 -49.379  1.00  0.00     0.162 HD
HETATM   15  O   UNL     1     -44.852  63.503 -50.408  1.00  0.00    -0.267 OA
BRANCH  13  16
HETATM   16  C   UNL     1     -47.049  63.002 -48.766  1.00  0.00     0.157 C 
BRANCH  16  17
HETATM   17  C   UNL     1     -46.694  63.183 -47.286  1.00  0.00     0.171 C 
HETATM   18  O   UNL     1     -45.775  62.137 -46.920  1.00  0.00    -0.339 OA
HETATM   19  C   UNL     1     -45.172  62.395 -45.716  1.00  0.00     0.102 A 
HETATM   20  C   UNL     1     -45.162  63.660 -45.120  1.00  0.00     0.102 A 
HETATM   21  C   UNL     1     -44.535  61.325 -45.091  1.00  0.00     0.039 A 
HETATM   22  O   UNL     1     -45.742  64.764 -45.689  1.00  0.00    -0.346 OA
HETATM   23  C   UNL     1     -44.550  63.844 -43.883  1.00  0.00     0.039 A 
HETATM   24  C   UNL     1     -46.037  64.546 -47.073  1.00  0.00     0.209 C 
HETATM   25  C   UNL     1     -43.923  62.768 -43.250  1.00  0.00     0.003 A 
HETATM   26  C   UNL     1     -43.913  61.511 -43.856  1.00  0.00     0.003 A 
ENDBRANCH  16  17
ENDBRANCH  13  16
ENDBRANCH   3  12
BRANCH   9  27
HETATM   27  C   UNL     1     -42.294  56.875 -54.424  1.00  0.00     0.236 C 
BRANCH  27  28
HETATM   28  C   UNL     1     -42.223  55.444 -53.901  1.00  0.00     0.240 C 
HETATM   29  N   UNL     1     -40.925  54.993 -53.736  1.00  0.00    -0.326 N 
HETATM   30  H   UNL     1     -40.192  55.550 -54.180  1.00  0.00     0.169 HD
HETATM   31  O   UNL     1     -43.250  54.801 -53.705  1.00  0.00    -0.271 OA
BRANCH  29  32
HETATM   32  C   UNL     1     -40.506  53.806 -53.107  1.00  0.00     0.035 A 
HETATM   33  C   UNL     1     -40.338  52.591 -53.776  1.00  0.00     0.045 A 
HETATM   34  C   UNL     1     -39.968  51.429 -53.076  1.00  0.00     0.050 A 
HETATM   35  C   UNL     1     -39.754  51.504 -51.692  1.00  0.00     0.016 A 
HETATM   36  C   UNL     1     -39.918  52.713 -51.019  1.00  0.00     0.003 A 
HETATM   37  C   UNL     1     -40.298  53.856 -51.723  1.00  0.00     0.029 A 
BRANCH  34  38
HETATM   38  C   UNL     1     -39.805  50.109 -53.789  1.00  0.00     0.417 C 
HETATM   39  F   UNL     1     -38.783  50.086 -54.688  1.00  0.00    -0.166 F 
HETATM   40  F   UNL     1     -39.571  49.078 -52.930  1.00  0.00    -0.166 F 
HETATM   41  F   UNL     1     -40.922  49.760 -54.490  1.00  0.00    -0.166 F 
ENDBRANCH  34  38
ENDBRANCH  29  32
ENDBRANCH  27  28
ENDBRANCH   9  27
TORSDOF 7
ENDMDL
MODEL 4
REMARK VINA RESULT:      -9.7      5.141      8.968
REMARK  7 active torsions:
REMARK  status: ('A' for Active; 'I' for Inactive)
REMARK    1  A    between atoms: C_3  and  C_4 
REMARK       I    between atoms: C_4  and  N_5 
REMARK    2  A    between atoms: N_5  and  C_6 
REMARK    3  A    between atoms: C_6  and  C_7 
REMARK    4  A    between atoms: N_23  and  C_24 
REMARK    5  A    between atoms: C_24  and  C_25 
REMARK       I    between atoms: C_25  and  N_26 
REMARK    6  A    between atoms: N_26  and  C_27 
REMARK    7  A    between atoms: C_29  and  C_30 
ROOT
HETATM    1  C   UNL     1     -45.363  58.050 -53.029  1.00  0.00     0.051 C 
HETATM    2  C   UNL     1     -44.046  58.762 -52.951  1.00  0.00    -0.021 C 
HETATM    3  C   UNL     1     -43.665  59.817 -53.781  1.00  0.00     0.081 C 
HETATM    4  S   UNL     1     -42.135  60.452 -53.320  1.00  0.00    -0.063 SA
HETATM    5  C   UNL     1     -41.896  59.250 -52.146  1.00  0.00     0.116 A 
HETATM    6  C   UNL     1     -42.970  58.394 -52.062  1.00  0.00     0.075 A 
HETATM    7  C   UNL     1     -42.851  57.270 -51.145  1.00  0.00     0.262 A 
HETATM    8  O   UNL     1     -43.752  56.457 -50.940  1.00  0.00    -0.267 OA
HETATM    9  N   UNL     1     -41.611  57.176 -50.516  1.00  0.00    -0.299 N 
HETATM   10  C   UNL     1     -40.650  58.156 -50.658  1.00  0.00     0.214 A 
HETATM   11  N   UNL     1     -40.743  59.188 -51.432  1.00  0.00    -0.235 NA
ENDROOT
BRANCH   3  12
HETATM   12  C   UNL     1     -44.379  60.365 -54.935  1.00  0.00     0.259 C 
HETATM   13  N   UNL     1     -43.859  60.052 -56.175  1.00  0.00    -0.354 N 
HETATM   14  H   UNL     1     -42.959  59.589 -56.213  1.00  0.00     0.162 HD
HETATM   15  O   UNL     1     -45.406  61.036 -54.843  1.00  0.00    -0.267 OA
BRANCH  13  16
HETATM   16  C   UNL     1     -44.496  60.460 -57.414  1.00  0.00     0.157 C 
BRANCH  16  17
HETATM   17  C   UNL     1     -44.615  59.322 -58.434  1.00  0.00     0.171 C 
HETATM   18  O   UNL     1     -43.969  58.160 -57.878  1.00  0.00    -0.339 OA
HETATM   19  C   UNL     1     -44.290  57.025 -58.576  1.00  0.00     0.102 A 
HETATM   20  C   UNL     1     -45.374  56.946 -59.455  1.00  0.00     0.102 A 
HETATM   21  C   UNL     1     -43.481  55.910 -58.365  1.00  0.00     0.039 A 
HETATM   22  O   UNL     1     -46.229  57.992 -59.691  1.00  0.00    -0.346 OA
HETATM   23  C   UNL     1     -45.626  55.765 -60.149  1.00  0.00     0.039 A 
HETATM   24  C   UNL     1     -46.088  59.017 -58.702  1.00  0.00     0.209 C 
HETATM   25  C   UNL     1     -44.808  54.652 -59.947  1.00  0.00     0.003 A 
HETATM   26  C   UNL     1     -43.739  54.723 -59.053  1.00  0.00     0.003 A 
ENDBRANCH  16  17
ENDBRANCH  13  16
ENDBRANCH   3  12
BRANCH   9  27
HETATM   27  C   UNL     1     -41.329  55.991 -49.728  1.00  0.00     0.236 C 
BRANCH  27  28
HETATM   28  C   UNL     1     -40.702  54.900 -50.589  1.00  0.00     0.240 C 
HETATM   29  N   UNL     1     -41.324  54.758 -51.818  1.00  0.00    -0.326 N 
HETATM   30  H   UNL     1     -42.233  55.211 -51.920  1.00  0.00     0.169 HD
HETATM   31  O   UNL     1     -39.769  54.227 -50.160  1.00  0.00    -0.271 OA
BRANCH  29  32
HETATM   32  C   UNL     1     -40.890  53.984 -52.910  1.00  0.00     0.035 A 
HETATM   33  C   UNL     1     -40.714  52.599 -52.859  1.00  0.00     0.045 A 
HETATM   34  C   UNL     1     -40.227  51.892 -53.973  1.00  0.00     0.050 A 
HETATM   35  C   UNL     1     -39.929  52.595 -55.150  1.00  0.00     0.016 A 
HETATM   36  C   UNL     1     -40.104  53.975 -55.208  1.00  0.00     0.003 A 
HETATM   37  C   UNL     1     -40.576  54.666 -54.092  1.00  0.00     0.029 A 
BRANCH  34  38
HETATM   38  C   UNL     1     -40.015  50.399 -53.917  1.00  0.00     0.417 C 
HETATM   39  F   UNL     1     -39.934  49.898 -52.654  1.00  0.00    -0.166 F 
HETATM   40  F   UNL     1     -41.015  49.708 -54.531  1.00  0.00    -0.166 F 
HETATM   41  F   UNL     1     -38.864  50.017 -54.540  1.00  0.00    -0.166 F 
ENDBRANCH  34  38
ENDBRANCH  29  32
ENDBRANCH  27  28
ENDBRANCH   9  27
TORSDOF 7
ENDMDL
MODEL 5
REMARK VINA RESULT:      -9.7      3.292      5.318
REMARK  7 active torsions:
REMARK  status: ('A' for Active; 'I' for Inactive)
REMARK    1  A    between atoms: C_3  and  C_4 
REMARK       I    between atoms: C_4  and  N_5 
REMARK    2  A    between atoms: N_5  and  C_6 
REMARK    3  A    between atoms: C_6  and  C_7 
REMARK    4  A    between atoms: N_23  and  C_24 
REMARK    5  A    between atoms: C_24  and  C_25 
REMARK       I    between atoms: C_25  and  N_26 
REMARK    6  A    between atoms: N_26  and  C_27 
REMARK    7  A    between atoms: C_29  and  C_30 
ROOT
HETATM    1  C   UNL     1     -46.252  59.618 -51.434  1.00  0.00     0.051 C 
HETATM    2  C   UNL     1     -44.802  59.967 -51.292  1.00  0.00    -0.021 C 
HETATM    3  C   UNL     1     -44.316  61.068 -50.585  1.00  0.00     0.081 C 
HETATM    4  S   UNL     1     -42.598  61.079 -50.549  1.00  0.00    -0.063 SA
HETATM    5  C   UNL     1     -42.484  59.742 -51.588  1.00  0.00     0.116 A 
HETATM    6  C   UNL     1     -43.724  59.256 -51.936  1.00  0.00     0.075 A 
HETATM    7  C   UNL     1     -43.760  58.157 -52.890  1.00  0.00     0.262 A 
HETATM    8  O   UNL     1     -44.796  57.600 -53.252  1.00  0.00    -0.267 OA
HETATM    9  N   UNL     1     -42.510  57.787 -53.382  1.00  0.00    -0.299 N 
HETATM   10  C   UNL     1     -41.344  58.333 -52.884  1.00  0.00     0.214 A 
HETATM   11  N   UNL     1     -41.278  59.281 -52.006  1.00  0.00    -0.235 NA
ENDROOT
BRANCH   3  12
HETATM   12  C   UNL     1     -45.079  62.146 -49.953  1.00  0.00     0.259 C 
HETATM   13  N   UNL     1     -45.394  63.221 -50.759  1.00  0.00    -0.354 N 
HETATM   14  H   UNL     1     -44.973  63.268 -51.680  1.00  0.00     0.162 HD
HETATM   15  O   UNL     1     -45.466  62.110 -48.785  1.00  0.00    -0.267 OA
BRANCH  13  16
HETATM   16  C   UNL     1     -46.206  64.332 -50.298  1.00  0.00     0.157 C 
BRANCH  16  17
HETATM   17  C   UNL     1     -47.644  64.288 -50.826  1.00  0.00     0.171 C 
HETATM   18  O   UNL     1     -47.729  63.222 -51.791  1.00  0.00    -0.339 OA
HETATM   19  C   UNL     1     -49.031  62.912 -52.085  1.00  0.00     0.102 A 
HETATM   20  C   UNL     1     -50.111  63.306 -51.289  1.00  0.00     0.102 A 
HETATM   21  C   UNL     1     -49.251  62.154 -53.233  1.00  0.00     0.039 A 
HETATM   22  O   UNL     1     -49.969  64.027 -50.132  1.00  0.00    -0.346 OA
HETATM   23  C   UNL     1     -51.411  62.974 -51.663  1.00  0.00     0.039 A 
HETATM   24  C   UNL     1     -48.612  64.022 -49.675  1.00  0.00     0.209 C 
HETATM   25  C   UNL     1     -51.633  62.226 -52.821  1.00  0.00     0.003 A 
HETATM   26  C   UNL     1     -50.553  61.813 -53.603  1.00  0.00     0.003 A 
ENDBRANCH  16  17
ENDBRANCH  13  16
ENDBRANCH   3  12
BRANCH   9  27
HETATM   27  C   UNL     1     -42.456  56.831 -54.473  1.00  0.00     0.236 C 
BRANCH  27  28
HETATM   28  C   UNL     1     -42.363  55.405 -53.943  1.00  0.00     0.240 C 
HETATM   29  N   UNL     1     -41.058  54.966 -53.801  1.00  0.00    -0.326 N 
HETATM   30  H   UNL     1     -40.339  55.526 -54.262  1.00  0.00     0.169 HD
HETATM   31  O   UNL     1     -43.381  54.754 -53.723  1.00  0.00    -0.271 OA
BRANCH  29  32
HETATM   32  C   UNL     1     -40.617  53.786 -53.173  1.00  0.00     0.035 A 
HETATM   33  C   UNL     1     -40.406  52.581 -53.847  1.00  0.00     0.045 A 
HETATM   34  C   UNL     1     -40.015  51.424 -53.149  1.00  0.00     0.050 A 
HETATM   35  C   UNL     1     -39.825  51.495 -51.761  1.00  0.00     0.016 A 
HETATM   36  C   UNL     1     -40.031  52.694 -51.084  1.00  0.00     0.003 A 
HETATM   37  C   UNL     1     -40.431  53.831 -51.786  1.00  0.00     0.029 A 
BRANCH  34  38
HETATM   38  C   UNL     1     -39.806  50.114 -53.868  1.00  0.00     0.417 C 
HETATM   39  F   UNL     1     -39.575  49.058 -53.041  1.00  0.00    -0.166 F 
HETATM   40  F   UNL     1     -40.877  49.763 -54.634  1.00  0.00    -0.166 F 
HETATM   41  F   UNL     1     -38.740  50.156 -54.719  1.00  0.00    -0.166 F 
ENDBRANCH  34  38
ENDBRANCH  29  32
ENDBRANCH  27  28
ENDBRANCH   9  27
TORSDOF 7
ENDMDL
MODEL 6
REMARK VINA RESULT:      -9.6      1.630      2.093
REMARK  7 active torsions:
REMARK  status: ('A' for Active; 'I' for Inactive)
REMARK    1  A    between atoms: C_3  and  C_4 
REMARK       I    between atoms: C_4  and  N_5 
REMARK    2  A    between atoms: N_5  and  C_6 
REMARK    3  A    between atoms: C_6  and  C_7 
REMARK    4  A    between atoms: N_23  and  C_24 
REMARK    5  A    between atoms: C_24  and  C_25 
REMARK       I    between atoms: C_25  and  N_26 
REMARK    6  A    between atoms: N_26  and  C_27 
REMARK    7  A    between atoms: C_29  and  C_30 
ROOT
HETATM    1  C   UNL     1     -42.885  61.535 -50.377  1.00  0.00     0.051 C 
HETATM    2  C   UNL     1     -44.042  61.289 -51.297  1.00  0.00    -0.021 C 
HETATM    3  C   UNL     1     -45.363  61.647 -51.024  1.00  0.00     0.081 C 
HETATM    4  S   UNL     1     -46.391  61.308 -52.359  1.00  0.00    -0.063 SA
HETATM    5  C   UNL     1     -45.149  60.546 -53.229  1.00  0.00     0.116 A 
HETATM    6  C   UNL     1     -43.953  60.576 -52.549  1.00  0.00     0.075 A 
HETATM    7  C   UNL     1     -42.828  59.882 -53.158  1.00  0.00     0.262 A 
HETATM    8  O   UNL     1     -41.694  59.868 -52.679  1.00  0.00    -0.267 OA
HETATM    9  N   UNL     1     -43.142  59.211 -54.337  1.00  0.00    -0.299 N 
HETATM   10  C   UNL     1     -44.382  59.329 -54.930  1.00  0.00     0.214 A 
HETATM   11  N   UNL     1     -45.389  59.973 -54.435  1.00  0.00    -0.235 NA
ENDROOT
BRANCH   3  12
HETATM   12  C   UNL     1     -45.911  62.211 -49.788  1.00  0.00     0.259 C 
HETATM   13  N   UNL     1     -45.960  61.359 -48.703  1.00  0.00    -0.354 N 
HETATM   14  H   UNL     1     -45.750  60.380 -48.853  1.00  0.00     0.162 HD
HETATM   15  O   UNL     1     -46.279  63.380 -49.679  1.00  0.00    -0.267 OA
BRANCH  13  16
HETATM   16  C   UNL     1     -46.410  61.791 -47.392  1.00  0.00     0.157 C 
BRANCH  16  17
HETATM   17  C   UNL     1     -45.260  62.003 -46.400  1.00  0.00     0.171 C 
HETATM   18  O   UNL     1     -45.529  63.212 -45.663  1.00  0.00    -0.339 OA
HETATM   19  C   UNL     1     -44.725  63.316 -44.558  1.00  0.00     0.102 A 
HETATM   20  C   UNL     1     -44.022  62.235 -44.018  1.00  0.00     0.102 A 
HETATM   21  C   UNL     1     -44.640  64.572 -43.961  1.00  0.00     0.039 A 
HETATM   22  O   UNL     1     -44.080  60.966 -44.533  1.00  0.00    -0.346 OA
HETATM   23  C   UNL     1     -43.204  62.420 -42.905  1.00  0.00     0.039 A 
HETATM   24  C   UNL     1     -45.179  60.819 -45.439  1.00  0.00     0.209 C 
HETATM   25  C   UNL     1     -43.108  63.682 -42.315  1.00  0.00     0.003 A 
HETATM   26  C   UNL     1     -43.829  64.755 -42.840  1.00  0.00     0.003 A 
ENDBRANCH  16  17
ENDBRANCH  13  16
ENDBRANCH   3  12
BRANCH   9  27
HETATM   27  C   UNL     1     -42.138  58.340 -54.920  1.00  0.00     0.236 C 
BRANCH  27  28
HETATM   28  C   UNL     1     -42.272  56.919 -54.385  1.00  0.00     0.240 C 
HETATM   29  N   UNL     1     -41.101  56.188 -54.494  1.00  0.00    -0.326 N 
HETATM   30  H   UNL     1     -40.378  56.579 -55.101  1.00  0.00     0.169 HD
HETATM   31  O   UNL     1     -43.348  56.515 -53.953  1.00  0.00    -0.271 OA
BRANCH  29  32
HETATM   32  C   UNL     1     -40.828  54.925 -53.937  1.00  0.00     0.035 A 
HETATM   33  C   UNL     1     -40.794  54.674 -52.563  1.00  0.00     0.045 A 
HETATM   34  C   UNL     1     -40.463  53.398 -52.072  1.00  0.00     0.050 A 
HETATM   35  C   UNL     1     -40.177  52.369 -52.982  1.00  0.00     0.016 A 
HETATM   36  C   UNL     1     -40.212  52.613 -54.352  1.00  0.00     0.003 A 
HETATM   37  C   UNL     1     -40.530  53.886 -54.826  1.00  0.00     0.029 A 
BRANCH  34  38
HETATM   38  C   UNL     1     -40.403  53.126 -50.589  1.00  0.00     0.417 C 
HETATM   39  F   UNL     1     -41.493  53.563 -49.901  1.00  0.00    -0.166 F 
HETATM   40  F   UNL     1     -40.289  51.798 -50.307  1.00  0.00    -0.166 F 
HETATM   41  F   UNL     1     -39.329  53.723 -49.997  1.00  0.00    -0.166 F 
ENDBRANCH  34  38
ENDBRANCH  29  32
ENDBRANCH  27  28
ENDBRANCH   9  27
TORSDOF 7
ENDMDL
MODEL 7
REMARK VINA RESULT:      -9.5      5.424      9.024
REMARK  7 active torsions:
REMARK  status: ('A' for Active; 'I' for Inactive)
REMARK    1  A    between atoms: C_3  and  C_4 
REMARK       I    between atoms: C_4  and  N_5 
REMARK    2  A    between atoms: N_5  and  C_6 
REMARK    3  A    between atoms: C_6  and  C_7 
REMARK    4  A    between atoms: N_23  and  C_24 
REMARK    5  A    between atoms: C_24  and  C_25 
REMARK       I    between atoms: C_25  and  N_26 
REMARK    6  A    between atoms: N_26  and  C_27 
REMARK    7  A    between atoms: C_29  and  C_30 
ROOT
HETATM    1  C   UNL     1     -40.519  58.194 -53.587  1.00  0.00     0.051 C 
HETATM    2  C   UNL     1     -41.376  59.130 -52.790  1.00  0.00    -0.021 C 
HETATM    3  C   UNL     1     -41.561  59.055 -51.409  1.00  0.00     0.081 C 
HETATM    4  S   UNL     1     -42.518  60.363 -50.835  1.00  0.00    -0.063 SA
HETATM    5  C   UNL     1     -42.827  60.935 -52.402  1.00  0.00     0.116 A 
HETATM    6  C   UNL     1     -42.187  60.180 -53.359  1.00  0.00     0.075 A 
HETATM    7  C   UNL     1     -42.440  60.522 -54.751  1.00  0.00     0.262 A 
HETATM    8  O   UNL     1     -41.898  59.959 -55.702  1.00  0.00    -0.267 OA
HETATM    9  N   UNL     1     -43.368  61.546 -54.927  1.00  0.00    -0.299 N 
HETATM   10  C   UNL     1     -43.880  62.252 -53.858  1.00  0.00     0.214 A 
HETATM   11  N   UNL     1     -43.642  61.999 -52.612  1.00  0.00    -0.235 NA
ENDROOT
BRANCH   3  12
HETATM   12  C   UNL     1     -41.079  58.026 -50.485  1.00  0.00     0.259 C 
HETATM   13  N   UNL     1     -41.879  56.911 -50.348  1.00  0.00    -0.354 N 
HETATM   14  H   UNL     1     -42.798  56.925 -50.776  1.00  0.00     0.162 HD
HETATM   15  O   UNL     1     -40.010  58.102 -49.881  1.00  0.00    -0.267 OA
BRANCH  13  16
HETATM   16  C   UNL     1     -41.502  55.775 -49.526  1.00  0.00     0.157 C 
BRANCH  16  17
HETATM   17  C   UNL     1     -41.340  54.478 -50.327  1.00  0.00     0.171 C 
HETATM   18  O   UNL     1     -41.105  54.835 -51.704  1.00  0.00    -0.339 OA
HETATM   19  C   UNL     1     -40.648  53.765 -52.429  1.00  0.00     0.102 A 
HETATM   20  C   UNL     1     -40.127  52.608 -51.843  1.00  0.00     0.102 A 
HETATM   21  C   UNL     1     -40.710  53.877 -53.817  1.00  0.00     0.039 A 
HETATM   22  O   UNL     1     -40.009  52.439 -50.487  1.00  0.00    -0.346 OA
HETATM   23  C   UNL     1     -39.702  51.550 -52.644  1.00  0.00     0.039 A 
HETATM   24  C   UNL     1     -40.152  53.681 -49.790  1.00  0.00     0.209 C 
HETATM   25  C   UNL     1     -39.776  51.657 -54.034  1.00  0.00     0.003 A 
HETATM   26  C   UNL     1     -40.275  52.821 -54.619  1.00  0.00     0.003 A 
ENDBRANCH  16  17
ENDBRANCH  13  16
ENDBRANCH   3  12
BRANCH   9  27
HETATM   27  C   UNL     1     -43.826  61.834 -56.274  1.00  0.00     0.236 C 
BRANCH  27  28
HETATM   28  C   UNL     1     -44.749  60.733 -56.784  1.00  0.00     0.240 C 
HETATM   29  N   UNL     1     -44.263  60.104 -57.917  1.00  0.00    -0.326 N 
HETATM   30  H   UNL     1     -43.496  60.573 -58.403  1.00  0.00     0.169 HD
HETATM   31  O   UNL     1     -45.817  60.507 -56.223  1.00  0.00    -0.271 OA
BRANCH  29  32
HETATM   32  C   UNL     1     -44.765  58.940 -58.529  1.00  0.00     0.035 A 
HETATM   33  C   UNL     1     -44.066  57.732 -58.591  1.00  0.00     0.045 A 
HETATM   34  C   UNL     1     -44.605  56.621 -59.264  1.00  0.00     0.050 A 
HETATM   35  C   UNL     1     -45.867  56.734 -59.867  1.00  0.00     0.016 A 
HETATM   36  C   UNL     1     -46.570  57.935 -59.806  1.00  0.00     0.003 A 
HETATM   37  C   UNL     1     -46.018  59.033 -59.146  1.00  0.00     0.029 A 
BRANCH  34  38
HETATM   38  C   UNL     1     -43.846  55.321 -59.353  1.00  0.00     0.417 C 
HETATM   39  F   UNL     1     -42.599  55.442 -59.887  1.00  0.00    -0.166 F 
HETATM   40  F   UNL     1     -43.676  54.732 -58.136  1.00  0.00    -0.166 F 
HETATM   41  F   UNL     1     -44.490  54.398 -60.124  1.00  0.00    -0.166 F 
ENDBRANCH  34  38
ENDBRANCH  29  32
ENDBRANCH  27  28
ENDBRANCH   9  27
TORSDOF 7
ENDMDL
MODEL 8
REMARK VINA RESULT:      -9.5      4.432      6.865
REMARK  7 active torsions:
REMARK  status: ('A' for Active; 'I' for Inactive)
REMARK    1  A    between atoms: C_3  and  C_4 
REMARK       I    between atoms: C_4  and  N_5 
REMARK    2  A    between atoms: N_5  and  C_6 
REMARK    3  A    between atoms: C_6  and  C_7 
REMARK    4  A    between atoms: N_23  and  C_24 
REMARK    5  A    between atoms: C_24  and  C_25 
REMARK       I    between atoms: C_25  and  N_26 
REMARK    6  A    between atoms: N_26  and  C_27 
REMARK    7  A    between atoms: C_29  and  C_30 
ROOT
HETATM    1  C   UNL     1     -45.672  61.171 -54.657  1.00  0.00     0.051 C 
HETATM    2  C   UNL     1     -45.573  60.365 -53.397  1.00  0.00    -0.021 C 
HETATM    3  C   UNL     1     -46.130  60.737 -52.173  1.00  0.00     0.081 C 
HETATM    4  S   UNL     1     -45.907  59.511 -50.988  1.00  0.00    -0.063 SA
HETATM    5  C   UNL     1     -44.946  58.569 -52.022  1.00  0.00     0.116 A 
HETATM    6  C   UNL     1     -44.818  59.142 -53.267  1.00  0.00     0.075 A 
HETATM    7  C   UNL     1     -43.949  58.468 -54.220  1.00  0.00     0.262 A 
HETATM    8  O   UNL     1     -43.782  58.847 -55.379  1.00  0.00    -0.267 OA
HETATM    9  N   UNL     1     -43.297  57.349 -53.706  1.00  0.00    -0.299 N 
HETATM   10  C   UNL     1     -43.580  56.861 -52.446  1.00  0.00     0.214 A 
HETATM   11  N   UNL     1     -44.379  57.413 -51.592  1.00  0.00    -0.235 NA
ENDROOT
BRANCH   3  12
HETATM   12  C   UNL     1     -46.803  61.990 -51.828  1.00  0.00     0.259 C 
HETATM   13  N   UNL     1     -48.105  62.120 -52.269  1.00  0.00    -0.354 N 
HETATM   14  H   UNL     1     -48.467  61.421 -52.907  1.00  0.00     0.162 HD
HETATM   15  O   UNL     1     -46.283  62.878 -51.154  1.00  0.00    -0.267 OA
BRANCH  13  16
HETATM   16  C   UNL     1     -48.927  63.272 -51.945  1.00  0.00     0.157 C 
BRANCH  16  17
HETATM   17  C   UNL     1     -50.210  63.351 -52.780  1.00  0.00     0.171 C 
HETATM   18  O   UNL     1     -50.212  62.238 -53.695  1.00  0.00    -0.339 OA
HETATM   19  C   UNL     1     -51.446  62.054 -54.261  1.00  0.00     0.102 A 
HETATM   20  C   UNL     1     -52.617  62.617 -53.744  1.00  0.00     0.102 A 
HETATM   21  C   UNL     1     -51.502  61.250 -55.397  1.00  0.00     0.039 A 
HETATM   22  O   UNL     1     -52.644  63.394 -52.614  1.00  0.00    -0.346 OA
HETATM   23  C   UNL     1     -53.836  62.406 -54.386  1.00  0.00     0.039 A 
HETATM   24  C   UNL     1     -51.430  63.271 -51.865  1.00  0.00     0.209 C 
HETATM   25  C   UNL     1     -53.889  61.610 -55.532  1.00  0.00     0.003 A 
HETATM   26  C   UNL     1     -52.724  61.030 -56.035  1.00  0.00     0.003 A 
ENDBRANCH  16  17
ENDBRANCH  13  16
ENDBRANCH   3  12
BRANCH   9  27
HETATM   27  C   UNL     1     -42.272  56.718 -54.515  1.00  0.00     0.236 C 
BRANCH  27  28
HETATM   28  C   UNL     1     -42.123  55.244 -54.156  1.00  0.00     0.240 C 
HETATM   29  N   UNL     1     -40.876  54.939 -53.636  1.00  0.00    -0.326 N 
HETATM   30  H   UNL     1     -40.148  55.644 -53.760  1.00  0.00     0.169 HD
HETATM   31  O   UNL     1     -43.039  54.455 -54.368  1.00  0.00    -0.271 OA
BRANCH  29  32
HETATM   32  C   UNL     1     -40.473  53.730 -53.039  1.00  0.00     0.035 A 
HETATM   33  C   UNL     1     -40.296  52.537 -53.745  1.00  0.00     0.045 A 
HETATM   34  C   UNL     1     -39.942  51.351 -53.078  1.00  0.00     0.050 A 
HETATM   35  C   UNL     1     -39.754  51.378 -51.688  1.00  0.00     0.016 A 
HETATM   36  C   UNL     1     -39.926  52.565 -50.979  1.00  0.00     0.003 A 
HETATM   37  C   UNL     1     -40.290  53.732 -51.651  1.00  0.00     0.029 A 
BRANCH  34  38
HETATM   38  C   UNL     1     -39.771  50.055 -53.832  1.00  0.00     0.417 C 
HETATM   39  F   UNL     1     -38.746  50.066 -54.728  1.00  0.00    -0.166 F 
HETATM   40  F   UNL     1     -39.534  48.998 -53.005  1.00  0.00    -0.166 F 
HETATM   41  F   UNL     1     -40.884  49.722 -54.547  1.00  0.00    -0.166 F 
ENDBRANCH  34  38
ENDBRANCH  29  32
ENDBRANCH  27  28
ENDBRANCH   9  27
TORSDOF 7
ENDMDL
MODEL 9
REMARK VINA RESULT:      -9.3      2.092      2.954
REMARK  7 active torsions:
REMARK  status: ('A' for Active; 'I' for Inactive)
REMARK    1  A    between atoms: C_3  and  C_4 
REMARK       I    between atoms: C_4  and  N_5 
REMARK    2  A    between atoms: N_5  and  C_6 
REMARK    3  A    between atoms: C_6  and  C_7 
REMARK    4  A    between atoms: N_23  and  C_24 
REMARK    5  A    between atoms: C_24  and  C_25 
REMARK       I    between atoms: C_25  and  N_26 
REMARK    6  A    between atoms: N_26  and  C_27 
REMARK    7  A    between atoms: C_29  and  C_30 
ROOT
HETATM    1  C   UNL     1     -46.613  60.464 -52.123  1.00  0.00     0.051 C 
HETATM    2  C   UNL     1     -45.175  60.784 -51.847  1.00  0.00    -0.021 C 
HETATM    3  C   UNL     1     -44.737  61.796 -50.991  1.00  0.00     0.081 C 
HETATM    4  S   UNL     1     -43.024  61.789 -50.841  1.00  0.00    -0.063 SA
HETATM    5  C   UNL     1     -42.842  60.576 -52.014  1.00  0.00     0.116 A 
HETATM    6  C   UNL     1     -44.056  60.142 -52.495  1.00  0.00     0.075 A 
HETATM    7  C   UNL     1     -44.029  59.158 -53.567  1.00  0.00     0.262 A 
HETATM    8  O   UNL     1     -45.040  58.652 -54.056  1.00  0.00    -0.267 OA
HETATM    9  N   UNL     1     -42.750  58.836 -54.015  1.00  0.00    -0.299 N 
HETATM   10  C   UNL     1     -41.620  59.314 -53.383  1.00  0.00     0.214 A 
HETATM   11  N   UNL     1     -41.611  60.156 -52.401  1.00  0.00    -0.235 NA
ENDROOT
BRANCH   3  12
HETATM   12  C   UNL     1     -45.540  62.801 -50.293  1.00  0.00     0.259 C 
HETATM   13  N   UNL     1     -46.561  62.318 -49.501  1.00  0.00    -0.354 N 
HETATM   14  H   UNL     1     -46.781  61.330 -49.552  1.00  0.00     0.162 HD
HETATM   15  O   UNL     1     -45.321  64.010 -50.357  1.00  0.00    -0.267 OA
BRANCH  13  16
HETATM   16  C   UNL     1     -47.398  63.185 -48.690  1.00  0.00     0.157 C 
BRANCH  16  17
HETATM   17  C   UNL     1     -46.962  63.244 -47.222  1.00  0.00     0.171 C 
HETATM   18  O   UNL     1     -46.025  62.173 -46.996  1.00  0.00    -0.339 OA
HETATM   19  C   UNL     1     -45.356  62.332 -45.810  1.00  0.00     0.102 A 
HETATM   20  C   UNL     1     -45.312  63.542 -45.112  1.00  0.00     0.102 A 
HETATM   21  C   UNL     1     -44.687  61.215 -45.312  1.00  0.00     0.039 A 
HETATM   22  O   UNL     1     -45.921  64.689 -45.554  1.00  0.00    -0.346 OA
HETATM   23  C   UNL     1     -44.631  63.625 -43.899  1.00  0.00     0.039 A 
HETATM   24  C   UNL     1     -46.292  64.586 -46.932  1.00  0.00     0.209 C 
HETATM   25  C   UNL     1     -43.972  62.502 -43.394  1.00  0.00     0.003 A 
HETATM   26  C   UNL     1     -43.997  61.300 -44.102  1.00  0.00     0.003 A 
ENDBRANCH  16  17
ENDBRANCH  13  16
ENDBRANCH   3  12
BRANCH   9  27
HETATM   27  C   UNL     1     -42.624  58.008 -55.200  1.00  0.00     0.236 C 
BRANCH  27  28
HETATM   28  C   UNL     1     -42.565  56.530 -54.829  1.00  0.00     0.240 C 
HETATM   29  N   UNL     1     -41.283  56.099 -54.532  1.00  0.00    -0.326 N 
HETATM   30  H   UNL     1     -40.521  56.722 -54.806  1.00  0.00     0.169 HD
HETATM   31  O   UNL     1     -43.581  55.841 -54.849  1.00  0.00    -0.271 OA
BRANCH  29  32
HETATM   32  C   UNL     1     -40.904  54.861 -53.981  1.00  0.00     0.035 A 
HETATM   33  C   UNL     1     -40.867  54.601 -52.609  1.00  0.00     0.045 A 
HETATM   34  C   UNL     1     -40.429  53.356 -52.123  1.00  0.00     0.050 A 
HETATM   35  C   UNL     1     -40.039  52.366 -53.036  1.00  0.00     0.016 A 
HETATM   36  C   UNL     1     -40.076  52.618 -54.405  1.00  0.00     0.003 A 
HETATM   37  C   UNL     1     -40.501  53.861 -54.874  1.00  0.00     0.029 A 
BRANCH  34  38
HETATM   38  C   UNL     1     -40.366  53.077 -50.641  1.00  0.00     0.417 C 
HETATM   39  F   UNL     1     -39.359  53.727 -49.997  1.00  0.00    -0.166 F 
HETATM   40  F   UNL     1     -41.513  53.429 -49.995  1.00  0.00    -0.166 F 
HETATM   41  F   UNL     1     -40.182  51.752 -50.373  1.00  0.00    -0.166 F 
ENDBRANCH  34  38
ENDBRANCH  29  32
ENDBRANCH  27  28
ENDBRANCH   9  27
TORSDOF 7
ENDMDL
MODEL 10
REMARK VINA RESULT:      -9.3      1.311      1.628
REMARK  7 active torsions:
REMARK  status: ('A' for Active; 'I' for Inactive)
REMARK    1  A    between atoms: C_3  and  C_4 
REMARK       I    between atoms: C_4  and  N_5 
REMARK    2  A    between atoms: N_5  and  C_6 
REMARK    3  A    between atoms: C_6  and  C_7 
REMARK    4  A    between atoms: N_23  and  C_24 
REMARK    5  A    between atoms: C_24  and  C_25 
REMARK       I    between atoms: C_25  and  N_26 
REMARK    6  A    between atoms: N_26  and  C_27 
REMARK    7  A    between atoms: C_29  and  C_30 
ROOT
HETATM    1  C   UNL     1     -43.067  62.313 -50.454  1.00  0.00     0.051 C 
HETATM    2  C   UNL     1     -44.208  61.641 -51.156  1.00  0.00    -0.021 C 
HETATM    3  C   UNL     1     -45.531  61.652 -50.711  1.00  0.00     0.081 C 
HETATM    4  S   UNL     1     -46.574  60.874 -51.833  1.00  0.00    -0.063 SA
HETATM    5  C   UNL     1     -45.284  60.381 -52.819  1.00  0.00     0.116 A 
HETATM    6  C   UNL     1     -44.073  60.827 -52.340  1.00  0.00     0.075 A 
HETATM    7  C   UNL     1     -42.880  60.399 -53.055  1.00  0.00     0.262 A 
HETATM    8  O   UNL     1     -41.740  60.760 -52.761  1.00  0.00    -0.267 OA
HETATM    9  N   UNL     1     -43.130  59.522 -54.109  1.00  0.00    -0.299 N 
HETATM   10  C   UNL     1     -44.415  59.216 -54.508  1.00  0.00     0.214 A 
HETATM   11  N   UNL     1     -45.496  59.614 -53.919  1.00  0.00    -0.235 NA
ENDROOT
BRANCH   3  12
HETATM   12  C   UNL     1     -46.059  62.196 -49.458  1.00  0.00     0.259 C 
HETATM   13  N   UNL     1     -46.065  61.336 -48.379  1.00  0.00    -0.354 N 
HETATM   14  H   UNL     1     -45.837  60.362 -48.541  1.00  0.00     0.162 HD
HETATM   15  O   UNL     1     -46.448  63.356 -49.331  1.00  0.00    -0.267 OA
BRANCH  13  16
HETATM   16  C   UNL     1     -46.490  61.749 -47.053  1.00  0.00     0.157 C 
BRANCH  16  17
HETATM   17  C   UNL     1     -45.320  62.068 -46.117  1.00  0.00     0.171 C 
HETATM   18  O   UNL     1     -45.710  63.177 -45.283  1.00  0.00    -0.339 OA
HETATM   19  C   UNL     1     -44.858  63.331 -44.221  1.00  0.00     0.102 A 
HETATM   20  C   UNL     1     -43.972  62.336 -43.798  1.00  0.00     0.102 A 
HETATM   21  C   UNL     1     -44.915  64.548 -43.544  1.00  0.00     0.039 A 
HETATM   22  O   UNL     1     -43.881  61.105 -44.396  1.00  0.00    -0.346 OA
HETATM   23  C   UNL     1     -43.118  62.572 -42.723  1.00  0.00     0.039 A 
HETATM   24  C   UNL     1     -45.005  60.853 -45.246  1.00  0.00     0.209 C 
HETATM   25  C   UNL     1     -43.165  63.796 -42.053  1.00  0.00     0.003 A 
HETATM   26  C   UNL     1     -44.066  64.781 -42.461  1.00  0.00     0.003 A 
ENDBRANCH  16  17
ENDBRANCH  13  16
ENDBRANCH   3  12
BRANCH   9  27
HETATM   27  C   UNL     1     -41.997  58.895 -54.765  1.00  0.00     0.236 C 
BRANCH  27  28
HETATM   28  C   UNL     1     -41.350  57.854 -53.859  1.00  0.00     0.240 C 
HETATM   29  N   UNL     1     -42.157  56.749 -53.644  1.00  0.00    -0.326 N 
HETATM   30  H   UNL     1     -43.139  56.848 -53.908  1.00  0.00     0.169 HD
HETATM   31  O   UNL     1     -40.242  58.055 -53.371  1.00  0.00    -0.271 OA
BRANCH  29  32
HETATM   32  C   UNL     1     -41.800  55.540 -53.019  1.00  0.00     0.035 A 
HETATM   33  C   UNL     1     -41.160  54.486 -53.676  1.00  0.00     0.045 A 
HETATM   34  C   UNL     1     -40.878  53.283 -53.005  1.00  0.00     0.050 A 
HETATM   35  C   UNL     1     -41.237  53.155 -51.655  1.00  0.00     0.016 A 
HETATM   36  C   UNL     1     -41.872  54.203 -50.993  1.00  0.00     0.003 A 
HETATM   37  C   UNL     1     -42.158  55.386 -51.674  1.00  0.00     0.029 A 
BRANCH  34  38
HETATM   38  C   UNL     1     -40.207  52.133 -53.715  1.00  0.00     0.417 C 
HETATM   39  F   UNL     1     -39.407  51.378 -52.913  1.00  0.00    -0.166 F 
HETATM   40  F   UNL     1     -41.102  51.270 -54.270  1.00  0.00    -0.166 F 
HETATM   41  F   UNL     1     -39.412  52.553 -54.740  1.00  0.00    -0.166 F 
ENDBRANCH  34  38
ENDBRANCH  29  32
ENDBRANCH  27  28
ENDBRANCH   9  27
TORSDOF 7
ENDMDL
