MODEL 1
REMARK VINA RESULT:      -8.1      0.000      0.000
REMARK  8 active torsions:
REMARK  status: ('A' for Active; 'I' for Inactive)
REMARK       I    between atoms: N_2  and  C_3 
REMARK    1  A    between atoms: N_2  and  C_29 
REMARK    2  A    between atoms: C_3  and  C_4 
REMARK    3  A    between atoms: C_7  and  C_8 
REMARK       I    between atoms: C_8  and  N_9 
REMARK    4  A    between atoms: N_9  and  C_10 
REMARK    5  A    between atoms: N_20  and  C_21 
REMARK    6  A    between atoms: C_21  and  C_22 
REMARK    7  A    between atoms: C_29  and  C_30 
REMARK    8  A    between atoms: C_30  and  C_31 
ROOT
HETATM    1  C   UNL     1     -44.629  58.213 -51.801  1.00  0.00     0.098 C 
HETATM    2  C   UNL     1     -44.539  57.980 -53.262  1.00  0.00     0.206 C 
HETATM    3  O   UNL     1     -45.064  58.744 -54.070  1.00  0.00    -0.286 OA
HETATM    4  C   UNL     1     -43.782  56.778 -53.724  1.00  0.00     0.098 C 
HETATM    5  C   UNL     1     -42.988  56.182 -52.816  1.00  0.00     0.111 C 
HETATM    6  N   UNL     1     -42.870  56.580 -51.488  1.00  0.00    -0.362 N 
HETATM    7  C   UNL     1     -43.751  57.552 -51.029  1.00  0.00     0.111 C 
ENDROOT
BRANCH   1   8
HETATM    8  C   UNL     1     -45.539  59.162 -51.119  1.00  0.00     0.258 C 
HETATM    9  N   UNL     1     -45.306  60.529 -51.230  1.00  0.00    -0.352 N 
HETATM   10  C   UNL     1     -46.311  61.438 -50.696  1.00  0.00     0.152 C 
HETATM   11  O   UNL     1     -46.553  58.707 -50.580  1.00  0.00    -0.267 OA
BRANCH   9  12
HETATM   12  C   UNL     1     -44.113  61.179 -51.798  1.00  0.00     0.131 C 
BRANCH  12  13
HETATM   13  C   UNL     1     -42.922  61.243 -50.840  1.00  0.00     0.079 C 
BRANCH  13  14
HETATM   14  C   UNL     1     -41.804  60.351 -51.320  1.00  0.00     0.035 A 
HETATM   15  N   UNL     1     -41.767  60.074 -52.646  1.00  0.00    -0.266 NA
HETATM   16  C   UNL     1     -40.763  59.285 -53.093  1.00  0.00     0.117 A 
HETATM   17  C   UNL     1     -39.790  58.742 -52.276  1.00  0.00     0.019 A 
HETATM   18  C   UNL     1     -39.850  59.020 -50.915  1.00  0.00     0.003 A 
HETATM   19  C   UNL     1     -40.869  59.835 -50.426  1.00  0.00     0.027 A 
ENDBRANCH  13  14
ENDBRANCH  12  13
ENDBRANCH   9  12
ENDBRANCH   1   8
BRANCH   4  20
HETATM   20  C   UNL     1     -43.872  56.214 -55.103  1.00  0.00     0.257 C 
HETATM   21  N   UNL     1     -44.008  57.153 -56.096  1.00  0.00    -0.352 N 
HETATM   22  H   UNL     1     -43.939  58.136 -55.830  1.00  0.00     0.163 HD
HETATM   23  O   UNL     1     -43.868  55.005 -55.305  1.00  0.00    -0.267 OA
BRANCH  21  24
HETATM   24  C   UNL     1     -44.230  56.873 -57.516  1.00  0.00     0.084 C 
HETATM   25  C   UNL     1     -44.945  58.045 -58.198  1.00  0.00     0.025 C 
HETATM   26  C   UNL     1     -45.487  57.808 -59.610  1.00  0.00     0.002 C 
HETATM   27  C   UNL     1     -46.206  56.473 -59.822  1.00  0.00     0.000 C 
HETATM   28  C   UNL     1     -45.380  55.410 -60.550  1.00  0.00     0.000 C 
HETATM   29  C   UNL     1     -44.175  54.830 -59.806  1.00  0.00     0.000 C 
HETATM   30  C   UNL     1     -43.026  55.814 -59.590  1.00  0.00     0.002 C 
HETATM   31  C   UNL     1     -42.930  56.408 -58.183  1.00  0.00     0.025 C 
ENDBRANCH  21  24
ENDBRANCH   4  20
BRANCH   6  32
HETATM   32  C   UNL     1     -41.831  56.003 -50.603  1.00  0.00     0.159 C 
BRANCH  32  33
HETATM   33  C   UNL     1     -41.601  54.498 -50.792  1.00  0.00     0.139 C 
HETATM   34  O   UNL     1     -41.272  53.833 -49.556  1.00  0.00    -0.384 OA
HETATM   35  C   UNL     1     -40.388  52.743 -49.860  1.00  0.00     0.168 C 
HETATM   36  C   UNL     1     -40.282  52.658 -51.370  1.00  0.00     0.029 C 
HETATM   37  C   UNL     1     -40.525  54.089 -51.783  1.00  0.00     0.035 C 
ENDBRANCH  32  33
ENDBRANCH   6  32
TORSDOF 8
ENDMDL
MODEL 2
REMARK VINA RESULT:      -8.1      2.210      6.771
REMARK  8 active torsions:
REMARK  status: ('A' for Active; 'I' for Inactive)
REMARK       I    between atoms: N_2  and  C_3 
REMARK    1  A    between atoms: N_2  and  C_29 
REMARK    2  A    between atoms: C_3  and  C_4 
REMARK    3  A    between atoms: C_7  and  C_8 
REMARK       I    between atoms: C_8  and  N_9 
REMARK    4  A    between atoms: N_9  and  C_10 
REMARK    5  A    between atoms: N_20  and  C_21 
REMARK    6  A    between atoms: C_21  and  C_22 
REMARK    7  A    between atoms: C_29  and  C_30 
REMARK    8  A    between atoms: C_30  and  C_31 
ROOT
HETATM    1  C   UNL     1     -44.147  58.730 -56.350  1.00  0.00     0.098 C 
HETATM    2  C   UNL     1     -43.723  57.758 -55.314  1.00  0.00     0.206 C 
HETATM    3  O   UNL     1     -44.294  57.683 -54.227  1.00  0.00    -0.286 OA
HETATM    4  C   UNL     1     -42.569  56.865 -55.637  1.00  0.00     0.098 C 
HETATM    5  C   UNL     1     -42.210  56.792 -56.931  1.00  0.00     0.111 C 
HETATM    6  N   UNL     1     -42.803  57.520 -57.958  1.00  0.00    -0.362 N 
HETATM    7  C   UNL     1     -43.715  58.506 -57.602  1.00  0.00     0.111 C 
ENDROOT
BRANCH   1   8
HETATM    8  C   UNL     1     -45.064  59.877 -56.152  1.00  0.00     0.258 C 
HETATM    9  N   UNL     1     -44.583  61.038 -55.554  1.00  0.00    -0.352 N 
HETATM   10  C   UNL     1     -45.455  62.204 -55.530  1.00  0.00     0.152 C 
HETATM   11  O   UNL     1     -46.193  59.808 -56.645  1.00  0.00    -0.267 OA
BRANCH   9  12
HETATM   12  C   UNL     1     -43.282  61.216 -54.888  1.00  0.00     0.131 C 
BRANCH  12  13
HETATM   13  C   UNL     1     -43.358  61.210 -53.360  1.00  0.00     0.079 C 
BRANCH  13  14
HETATM   14  C   UNL     1     -42.419  60.179 -52.784  1.00  0.00     0.035 A 
HETATM   15  N   UNL     1     -41.324  59.869 -53.520  1.00  0.00    -0.266 NA
HETATM   16  C   UNL     1     -40.466  58.955 -53.011  1.00  0.00     0.117 A 
HETATM   17  C   UNL     1     -40.652  58.318 -51.799  1.00  0.00     0.019 A 
HETATM   18  C   UNL     1     -41.788  58.632 -51.062  1.00  0.00     0.003 A 
HETATM   19  C   UNL     1     -42.686  59.575 -51.558  1.00  0.00     0.027 A 
ENDBRANCH  13  14
ENDBRANCH  12  13
ENDBRANCH   9  12
ENDBRANCH   1   8
BRANCH   4  20
HETATM   20  C   UNL     1     -41.810  56.083 -54.618  1.00  0.00     0.257 C 
HETATM   21  N   UNL     1     -42.555  55.670 -53.542  1.00  0.00    -0.352 N 
HETATM   22  H   UNL     1     -43.562  55.839 -53.571  1.00  0.00     0.163 HD
HETATM   23  O   UNL     1     -40.607  55.876 -54.732  1.00  0.00    -0.267 OA
BRANCH  21  24
HETATM   24  C   UNL     1     -42.041  54.988 -52.352  1.00  0.00     0.084 C 
HETATM   25  C   UNL     1     -43.019  55.124 -51.180  1.00  0.00     0.025 C 
HETATM   26  C   UNL     1     -42.516  54.700 -49.797  1.00  0.00     0.002 C 
HETATM   27  C   UNL     1     -41.101  55.164 -49.443  1.00  0.00     0.000 C 
HETATM   28  C   UNL     1     -40.024  54.083 -49.563  1.00  0.00     0.000 C 
HETATM   29  C   UNL     1     -39.686  53.586 -50.971  1.00  0.00     0.000 C 
HETATM   30  C   UNL     1     -40.799  52.789 -51.650  1.00  0.00     0.002 C 
HETATM   31  C   UNL     1     -41.608  53.557 -52.696  1.00  0.00     0.025 C 
ENDBRANCH  21  24
ENDBRANCH   4  20
BRANCH   6  32
HETATM   32  C   UNL     1     -42.490  57.238 -59.379  1.00  0.00     0.159 C 
BRANCH  32  33
HETATM   33  C   UNL     1     -43.471  56.281 -60.067  1.00  0.00     0.139 C 
HETATM   34  O   UNL     1     -44.698  56.933 -60.451  1.00  0.00    -0.384 OA
HETATM   35  C   UNL     1     -45.760  55.971 -60.361  1.00  0.00     0.168 C 
HETATM   36  C   UNL     1     -45.126  54.632 -60.036  1.00  0.00     0.029 C 
HETATM   37  C   UNL     1     -43.885  55.046 -59.285  1.00  0.00     0.035 C 
ENDBRANCH  32  33
ENDBRANCH   6  32
TORSDOF 8
ENDMDL
MODEL 3
REMARK VINA RESULT:      -8.0      2.013      6.039
REMARK  8 active torsions:
REMARK  status: ('A' for Active; 'I' for Inactive)
REMARK       I    between atoms: N_2  and  C_3 
REMARK    1  A    between atoms: N_2  and  C_29 
REMARK    2  A    between atoms: C_3  and  C_4 
REMARK    3  A    between atoms: C_7  and  C_8 
REMARK       I    between atoms: C_8  and  N_9 
REMARK    4  A    between atoms: N_9  and  C_10 
REMARK    5  A    between atoms: N_20  and  C_21 
REMARK    6  A    between atoms: C_21  and  C_22 
REMARK    7  A    between atoms: C_29  and  C_30 
REMARK    8  A    between atoms: C_30  and  C_31 
ROOT
HETATM    1  C   UNL     1     -45.156  58.685 -51.762  1.00  0.00     0.098 C 
HETATM    2  C   UNL     1     -44.714  57.273 -51.853  1.00  0.00     0.206 C 
HETATM    3  O   UNL     1     -44.763  56.518 -50.884  1.00  0.00    -0.286 OA
HETATM    4  C   UNL     1     -44.202  56.794 -53.172  1.00  0.00     0.098 C 
HETATM    5  C   UNL     1     -44.469  57.569 -54.238  1.00  0.00     0.111 C 
HETATM    6  N   UNL     1     -45.135  58.790 -54.180  1.00  0.00    -0.362 N 
HETATM    7  C   UNL     1     -45.398  59.318 -52.922  1.00  0.00     0.111 C 
ENDROOT
BRANCH   1   8
HETATM    8  C   UNL     1     -45.431  59.439 -50.517  1.00  0.00     0.258 C 
HETATM    9  N   UNL     1     -44.877  60.704 -50.350  1.00  0.00    -0.352 N 
HETATM   10  C   UNL     1     -45.303  61.489 -49.199  1.00  0.00     0.152 C 
HETATM   11  O   UNL     1     -46.251  58.968 -49.724  1.00  0.00    -0.267 OA
BRANCH   9  12
HETATM   12  C   UNL     1     -43.854  61.340 -51.196  1.00  0.00     0.131 C 
BRANCH  12  13
HETATM   13  C   UNL     1     -42.417  61.060 -50.752  1.00  0.00     0.079 C 
BRANCH  13  14
HETATM   14  C   UNL     1     -41.755  60.072 -51.681  1.00  0.00     0.035 A 
HETATM   15  N   UNL     1     -40.979  59.119 -51.110  1.00  0.00    -0.266 NA
HETATM   16  C   UNL     1     -40.389  58.219 -51.928  1.00  0.00     0.117 A 
HETATM   17  C   UNL     1     -40.523  58.226 -53.304  1.00  0.00     0.019 A 
HETATM   18  C   UNL     1     -41.308  59.220 -53.878  1.00  0.00     0.003 A 
HETATM   19  C   UNL     1     -41.934  60.157 -53.059  1.00  0.00     0.027 A 
ENDBRANCH  13  14
ENDBRANCH  12  13
ENDBRANCH   9  12
ENDBRANCH   1   8
BRANCH   4  20
HETATM   20  C   UNL     1     -43.420  55.537 -53.357  1.00  0.00     0.257 C 
HETATM   21  N   UNL     1     -42.341  55.407 -52.518  1.00  0.00    -0.352 N 
HETATM   22  H   UNL     1     -42.220  56.112 -51.790  1.00  0.00     0.163 HD
HETATM   23  O   UNL     1     -43.710  54.721 -54.225  1.00  0.00    -0.267 OA
BRANCH  21  24
HETATM   24  C   UNL     1     -41.344  54.334 -52.561  1.00  0.00     0.084 C 
HETATM   25  C   UNL     1     -40.596  54.337 -53.899  1.00  0.00     0.025 C 
HETATM   26  C   UNL     1     -39.714  53.126 -54.210  1.00  0.00     0.002 C 
HETATM   27  C   UNL     1     -40.329  51.763 -53.880  1.00  0.00     0.000 C 
HETATM   28  C   UNL     1     -39.812  51.122 -52.590  1.00  0.00     0.000 C 
HETATM   29  C   UNL     1     -40.194  51.798 -51.271  1.00  0.00     0.000 C 
HETATM   30  C   UNL     1     -39.552  53.167 -51.047  1.00  0.00     0.002 C 
HETATM   31  C   UNL     1     -40.464  54.367 -51.306  1.00  0.00     0.025 C 
ENDBRANCH  21  24
ENDBRANCH   4  20
BRANCH   6  32
HETATM   32  C   UNL     1     -45.567  59.489 -55.413  1.00  0.00     0.159 C 
BRANCH  32  33
HETATM   33  C   UNL     1     -45.555  58.615 -56.675  1.00  0.00     0.139 C 
HETATM   34  O   UNL     1     -44.775  59.196 -57.738  1.00  0.00    -0.384 OA
HETATM   35  C   UNL     1     -45.372  58.814 -58.987  1.00  0.00     0.168 C 
HETATM   36  C   UNL     1     -46.490  57.840 -58.670  1.00  0.00     0.029 C 
HETATM   37  C   UNL     1     -46.903  58.276 -57.286  1.00  0.00     0.035 C 
ENDBRANCH  32  33
ENDBRANCH   6  32
TORSDOF 8
ENDMDL
MODEL 4
REMARK VINA RESULT:      -7.9      2.272      7.796
REMARK  8 active torsions:
REMARK  status: ('A' for Active; 'I' for Inactive)
REMARK       I    between atoms: N_2  and  C_3 
REMARK    1  A    between atoms: N_2  and  C_29 
REMARK    2  A    between atoms: C_3  and  C_4 
REMARK    3  A    between atoms: C_7  and  C_8 
REMARK       I    between atoms: C_8  and  N_9 
REMARK    4  A    between atoms: N_9  and  C_10 
REMARK    5  A    between atoms: N_20  and  C_21 
REMARK    6  A    between atoms: C_21  and  C_22 
REMARK    7  A    between atoms: C_29  and  C_30 
REMARK    8  A    between atoms: C_30  and  C_31 
ROOT
HETATM    1  C   UNL     1     -42.559  57.988 -54.511  1.00  0.00     0.098 C 
HETATM    2  C   UNL     1     -41.875  56.783 -53.983  1.00  0.00     0.206 C 
HETATM    3  O   UNL     1     -40.736  56.482 -54.335  1.00  0.00    -0.286 OA
HETATM    4  C   UNL     1     -42.622  55.940 -53.002  1.00  0.00     0.098 C 
HETATM    5  C   UNL     1     -43.713  56.494 -52.442  1.00  0.00     0.111 C 
HETATM    6  N   UNL     1     -44.204  57.758 -52.751  1.00  0.00    -0.362 N 
HETATM    7  C   UNL     1     -43.627  58.426 -53.825  1.00  0.00     0.111 C 
ENDROOT
BRANCH   1   8
HETATM    8  C   UNL     1     -42.131  58.799 -55.674  1.00  0.00     0.258 C 
HETATM    9  N   UNL     1     -42.419  58.351 -56.960  1.00  0.00    -0.352 N 
HETATM   10  C   UNL     1     -42.141  59.248 -58.074  1.00  0.00     0.152 C 
HETATM   11  O   UNL     1     -41.646  59.913 -55.458  1.00  0.00    -0.267 OA
BRANCH   9  12
HETATM   12  C   UNL     1     -42.942  57.028 -57.338  1.00  0.00     0.131 C 
BRANCH  12  13
HETATM   13  C   UNL     1     -42.734  56.673 -58.812  1.00  0.00     0.079 C 
BRANCH  13  14
HETATM   14  C   UNL     1     -44.058  56.430 -59.493  1.00  0.00     0.035 A 
HETATM   15  N   UNL     1     -44.062  55.566 -60.537  1.00  0.00    -0.266 NA
HETATM   16  C   UNL     1     -45.243  55.328 -61.150  1.00  0.00     0.117 A 
HETATM   17  C   UNL     1     -46.434  55.924 -60.781  1.00  0.00     0.019 A 
HETATM   18  C   UNL     1     -46.414  56.822 -59.720  1.00  0.00     0.003 A 
HETATM   19  C   UNL     1     -45.212  57.081 -59.064  1.00  0.00     0.027 A 
ENDBRANCH  13  14
ENDBRANCH  12  13
ENDBRANCH   9  12
ENDBRANCH   1   8
BRANCH   4  20
HETATM   20  C   UNL     1     -42.234  54.547 -52.634  1.00  0.00     0.257 C 
HETATM   21  N   UNL     1     -40.970  54.184 -53.024  1.00  0.00    -0.352 N 
HETATM   22  H   UNL     1     -40.376  54.905 -53.435  1.00  0.00     0.163 HD
HETATM   23  O   UNL     1     -43.016  53.791 -52.068  1.00  0.00    -0.267 OA
BRANCH  21  24
HETATM   24  C   UNL     1     -40.380  52.849 -52.892  1.00  0.00     0.084 C 
HETATM   25  C   UNL     1     -39.739  52.403 -54.211  1.00  0.00     0.025 C 
HETATM   26  C   UNL     1     -39.316  50.936 -54.321  1.00  0.00     0.002 C 
HETATM   27  C   UNL     1     -40.325  49.919 -53.781  1.00  0.00     0.000 C 
HETATM   28  C   UNL     1     -39.981  49.347 -52.403  1.00  0.00     0.000 C 
HETATM   29  C   UNL     1     -40.057  50.303 -51.210  1.00  0.00     0.000 C 
HETATM   30  C   UNL     1     -38.993  51.400 -51.205  1.00  0.00     0.002 C 
HETATM   31  C   UNL     1     -39.476  52.780 -51.655  1.00  0.00     0.025 C 
ENDBRANCH  21  24
ENDBRANCH   4  20
BRANCH   6  32
HETATM   32  C   UNL     1     -45.288  58.378 -51.952  1.00  0.00     0.159 C 
BRANCH  32  33
HETATM   33  C   UNL     1     -44.804  59.145 -50.715  1.00  0.00     0.139 C 
HETATM   34  O   UNL     1     -45.852  59.344 -49.746  1.00  0.00    -0.384 OA
HETATM   35  C   UNL     1     -45.609  60.591 -49.078  1.00  0.00     0.168 C 
HETATM   36  C   UNL     1     -44.273  61.111 -49.570  1.00  0.00     0.029 C 
HETATM   37  C   UNL     1     -44.194  60.515 -50.954  1.00  0.00     0.035 C 
ENDBRANCH  32  33
ENDBRANCH   6  32
TORSDOF 8
ENDMDL
MODEL 5
REMARK VINA RESULT:      -7.9      2.132      8.149
REMARK  8 active torsions:
REMARK  status: ('A' for Active; 'I' for Inactive)
REMARK       I    between atoms: N_2  and  C_3 
REMARK    1  A    between atoms: N_2  and  C_29 
REMARK    2  A    between atoms: C_3  and  C_4 
REMARK    3  A    between atoms: C_7  and  C_8 
REMARK       I    between atoms: C_8  and  N_9 
REMARK    4  A    between atoms: N_9  and  C_10 
REMARK    5  A    between atoms: N_20  and  C_21 
REMARK    6  A    between atoms: C_21  and  C_22 
REMARK    7  A    between atoms: C_29  and  C_30 
REMARK    8  A    between atoms: C_30  and  C_31 
ROOT
HETATM    1  C   UNL     1     -43.008  58.363 -53.863  1.00  0.00     0.098 C 
HETATM    2  C   UNL     1     -44.089  59.062 -53.128  1.00  0.00     0.206 C 
HETATM    3  O   UNL     1     -44.639  60.062 -53.587  1.00  0.00    -0.286 OA
HETATM    4  C   UNL     1     -44.492  58.506 -51.801  1.00  0.00     0.098 C 
HETATM    5  C   UNL     1     -44.074  57.259 -51.520  1.00  0.00     0.111 C 
HETATM    6  N   UNL     1     -43.265  56.490 -52.352  1.00  0.00    -0.362 N 
HETATM    7  C   UNL     1     -42.721  57.111 -53.469  1.00  0.00     0.111 C 
ENDROOT
BRANCH   1   8
HETATM    8  C   UNL     1     -42.271  58.881 -55.039  1.00  0.00     0.258 C 
HETATM    9  N   UNL     1     -42.705  58.547 -56.318  1.00  0.00    -0.352 N 
HETATM   10  C   UNL     1     -42.069  59.207 -57.449  1.00  0.00     0.152 C 
HETATM   11  O   UNL     1     -41.369  59.700 -54.842  1.00  0.00    -0.267 OA
BRANCH   9  12
HETATM   12  C   UNL     1     -43.727  57.547 -56.670  1.00  0.00     0.131 C 
BRANCH  12  13
HETATM   13  C   UNL     1     -43.201  56.393 -57.526  1.00  0.00     0.079 C 
BRANCH  13  14
HETATM   14  C   UNL     1     -44.118  56.138 -58.697  1.00  0.00     0.035 A 
HETATM   15  N   UNL     1     -45.055  57.081 -58.960  1.00  0.00    -0.266 NA
HETATM   16  C   UNL     1     -45.876  56.872 -60.013  1.00  0.00     0.117 A 
HETATM   17  C   UNL     1     -45.820  55.752 -60.821  1.00  0.00     0.019 A 
HETATM   18  C   UNL     1     -44.866  54.784 -60.531  1.00  0.00     0.003 A 
HETATM   19  C   UNL     1     -44.001  54.975 -59.455  1.00  0.00     0.027 A 
ENDBRANCH  13  14
ENDBRANCH  12  13
ENDBRANCH   9  12
ENDBRANCH   1   8
BRANCH   4  20
HETATM   20  C   UNL     1     -45.303  59.253 -50.796  1.00  0.00     0.257 C 
HETATM   21  N   UNL     1     -44.863  60.528 -50.541  1.00  0.00    -0.352 N 
HETATM   22  H   UNL     1     -44.100  60.889 -51.114  1.00  0.00     0.163 HD
HETATM   23  O   UNL     1     -46.254  58.733 -50.222  1.00  0.00    -0.267 OA
BRANCH  21  24
HETATM   24  C   UNL     1     -45.401  61.434 -49.523  1.00  0.00     0.084 C 
HETATM   25  C   UNL     1     -44.572  61.363 -48.236  1.00  0.00     0.025 C 
HETATM   26  C   UNL     1     -45.152  62.043 -46.993  1.00  0.00     0.002 C 
HETATM   27  C   UNL     1     -46.644  61.804 -46.748  1.00  0.00     0.000 C 
HETATM   28  C   UNL     1     -47.552  62.971 -47.140  1.00  0.00     0.000 C 
HETATM   29  C   UNL     1     -47.679  63.289 -48.633  1.00  0.00     0.000 C 
HETATM   30  C   UNL     1     -46.408  63.842 -49.277  1.00  0.00     0.002 C 
HETATM   31  C   UNL     1     -45.606  62.838 -50.106  1.00  0.00     0.025 C 
ENDBRANCH  21  24
ENDBRANCH   4  20
BRANCH   6  32
HETATM   32  C   UNL     1     -43.012  55.058 -52.068  1.00  0.00     0.159 C 
BRANCH  32  33
HETATM   33  C   UNL     1     -41.848  54.450 -52.861  1.00  0.00     0.139 C 
HETATM   34  O   UNL     1     -42.294  53.740 -54.033  1.00  0.00    -0.384 OA
HETATM   35  C   UNL     1     -41.386  52.651 -54.265  1.00  0.00     0.168 C 
HETATM   36  C   UNL     1     -40.257  52.788 -53.262  1.00  0.00     0.029 C 
HETATM   37  C   UNL     1     -40.939  53.490 -52.114  1.00  0.00     0.035 C 
ENDBRANCH  32  33
ENDBRANCH   6  32
TORSDOF 8
ENDMDL
MODEL 6
REMARK VINA RESULT:      -7.7      2.891      7.615
REMARK  8 active torsions:
REMARK  status: ('A' for Active; 'I' for Inactive)
REMARK       I    between atoms: N_2  and  C_3 
REMARK    1  A    between atoms: N_2  and  C_29 
REMARK    2  A    between atoms: C_3  and  C_4 
REMARK    3  A    between atoms: C_7  and  C_8 
REMARK       I    between atoms: C_8  and  N_9 
REMARK    4  A    between atoms: N_9  and  C_10 
REMARK    5  A    between atoms: N_20  and  C_21 
REMARK    6  A    between atoms: C_21  and  C_22 
REMARK    7  A    between atoms: C_29  and  C_30 
REMARK    8  A    between atoms: C_30  and  C_31 
ROOT
HETATM    1  C   UNL     1     -42.325  58.576 -57.148  1.00  0.00     0.098 C 
HETATM    2  C   UNL     1     -42.023  57.935 -55.846  1.00  0.00     0.206 C 
HETATM    3  O   UNL     1     -41.854  58.598 -54.825  1.00  0.00    -0.286 OA
HETATM    4  C   UNL     1     -41.931  56.444 -55.816  1.00  0.00     0.098 C 
HETATM    5  C   UNL     1     -42.429  55.790 -56.881  1.00  0.00     0.111 C 
HETATM    6  N   UNL     1     -42.968  56.406 -58.006  1.00  0.00    -0.362 N 
HETATM    7  C   UNL     1     -42.834  57.786 -58.108  1.00  0.00     0.111 C 
ENDROOT
BRANCH   1   8
HETATM    8  C   UNL     1     -42.192  60.017 -57.467  1.00  0.00     0.258 C 
HETATM    9  N   UNL     1     -43.319  60.832 -57.419  1.00  0.00    -0.352 N 
HETATM   10  C   UNL     1     -43.130  62.268 -57.567  1.00  0.00     0.152 C 
HETATM   11  O   UNL     1     -41.057  60.471 -57.640  1.00  0.00    -0.267 OA
BRANCH   9  12
HETATM   12  C   UNL     1     -44.719  60.397 -57.276  1.00  0.00     0.131 C 
BRANCH  12  13
HETATM   13  C   UNL     1     -45.363  60.798 -55.948  1.00  0.00     0.079 C 
BRANCH  13  14
HETATM   14  C   UNL     1     -45.175  59.713 -54.916  1.00  0.00     0.035 A 
HETATM   15  N   UNL     1     -45.376  58.437 -55.325  1.00  0.00    -0.266 NA
HETATM   16  C   UNL     1     -45.199  57.453 -54.414  1.00  0.00     0.117 A 
HETATM   17  C   UNL     1     -44.841  57.678 -53.098  1.00  0.00     0.019 A 
HETATM   18  C   UNL     1     -44.655  58.993 -52.688  1.00  0.00     0.003 A 
HETATM   19  C   UNL     1     -44.823  60.027 -53.606  1.00  0.00     0.027 A 
ENDBRANCH  13  14
ENDBRANCH  12  13
ENDBRANCH   9  12
ENDBRANCH   1   8
BRANCH   4  20
HETATM   20  C   UNL     1     -41.319  55.668 -54.698  1.00  0.00     0.257 C 
HETATM   21  N   UNL     1     -42.131  55.506 -53.604  1.00  0.00    -0.352 N 
HETATM   22  H   UNL     1     -43.096  55.833 -53.678  1.00  0.00     0.163 HD
HETATM   23  O   UNL     1     -40.165  55.258 -54.757  1.00  0.00    -0.267 OA
BRANCH  21  24
HETATM   24  C   UNL     1     -41.746  54.889 -52.333  1.00  0.00     0.084 C 
HETATM   25  C   UNL     1     -42.861  55.038 -51.292  1.00  0.00     0.025 C 
HETATM   26  C   UNL     1     -42.517  54.686 -49.843  1.00  0.00     0.002 C 
HETATM   27  C   UNL     1     -41.169  55.208 -49.342  1.00  0.00     0.000 C 
HETATM   28  C   UNL     1     -40.056  54.159 -49.286  1.00  0.00     0.000 C 
HETATM   29  C   UNL     1     -39.537  53.618 -50.621  1.00  0.00     0.000 C 
HETATM   30  C   UNL     1     -40.538  52.760 -51.394  1.00  0.00     0.002 C 
HETATM   31  C   UNL     1     -41.236  53.460 -52.561  1.00  0.00     0.025 C 
ENDBRANCH  21  24
ENDBRANCH   4  20
BRANCH   6  32
HETATM   32  C   UNL     1     -43.676  55.624 -59.046  1.00  0.00     0.159 C 
BRANCH  32  33
HETATM   33  C   UNL     1     -44.826  56.373 -59.731  1.00  0.00     0.139 C 
HETATM   34  O   UNL     1     -45.651  57.091 -58.792  1.00  0.00    -0.384 OA
HETATM   35  C   UNL     1     -46.994  57.103 -59.298  1.00  0.00     0.168 C 
HETATM   36  C   UNL     1     -46.959  56.479 -60.679  1.00  0.00     0.029 C 
HETATM   37  C   UNL     1     -45.781  55.542 -60.570  1.00  0.00     0.035 C 
ENDBRANCH  32  33
ENDBRANCH   6  32
TORSDOF 8
ENDMDL
MODEL 7
REMARK VINA RESULT:      -7.7      2.597      6.057
REMARK  8 active torsions:
REMARK  status: ('A' for Active; 'I' for Inactive)
REMARK       I    between atoms: N_2  and  C_3 
REMARK    1  A    between atoms: N_2  and  C_29 
REMARK    2  A    between atoms: C_3  and  C_4 
REMARK    3  A    between atoms: C_7  and  C_8 
REMARK       I    between atoms: C_8  and  N_9 
REMARK    4  A    between atoms: N_9  and  C_10 
REMARK    5  A    between atoms: N_20  and  C_21 
REMARK    6  A    between atoms: C_21  and  C_22 
REMARK    7  A    between atoms: C_29  and  C_30 
REMARK    8  A    between atoms: C_30  and  C_31 
ROOT
HETATM    1  C   UNL     1     -43.571  57.918 -51.939  1.00  0.00     0.098 C 
HETATM    2  C   UNL     1     -43.650  58.230 -53.386  1.00  0.00     0.206 C 
HETATM    3  O   UNL     1     -44.380  57.594 -54.144  1.00  0.00    -0.286 OA
HETATM    4  C   UNL     1     -42.806  59.352 -53.897  1.00  0.00     0.098 C 
HETATM    5  C   UNL     1     -42.288  60.182 -52.974  1.00  0.00     0.111 C 
HETATM    6  N   UNL     1     -42.446  60.033 -51.599  1.00  0.00    -0.362 N 
HETATM    7  C   UNL     1     -43.040  58.862 -51.145  1.00  0.00     0.111 C 
ENDROOT
BRANCH   1   8
HETATM    8  C   UNL     1     -44.093  56.700 -51.276  1.00  0.00     0.258 C 
HETATM    9  N   UNL     1     -43.362  55.518 -51.350  1.00  0.00    -0.352 N 
HETATM   10  C   UNL     1     -43.810  54.388 -50.547  1.00  0.00     0.152 C 
HETATM   11  O   UNL     1     -45.098  56.810 -50.569  1.00  0.00    -0.267 OA
BRANCH   9  12
HETATM   12  C   UNL     1     -42.187  55.257 -52.198  1.00  0.00     0.131 C 
BRANCH  12  13
HETATM   13  C   UNL     1     -41.025  54.585 -51.463  1.00  0.00     0.079 C 
BRANCH  13  14
HETATM   14  C   UNL     1     -40.544  53.374 -52.224  1.00  0.00     0.035 A 
HETATM   15  N   UNL     1     -39.817  52.464 -51.531  1.00  0.00    -0.266 NA
HETATM   16  C   UNL     1     -39.389  51.367 -52.196  1.00  0.00     0.117 A 
HETATM   17  C   UNL     1     -39.639  51.133 -53.535  1.00  0.00     0.019 A 
HETATM   18  C   UNL     1     -40.370  52.083 -54.239  1.00  0.00     0.003 A 
HETATM   19  C   UNL     1     -40.831  53.220 -53.578  1.00  0.00     0.027 A 
ENDBRANCH  13  14
ENDBRANCH  12  13
ENDBRANCH   9  12
ENDBRANCH   1   8
BRANCH   4  20
HETATM   20  C   UNL     1     -42.508  59.582 -55.340  1.00  0.00     0.257 C 
HETATM   21  N   UNL     1     -43.525  59.236 -56.195  1.00  0.00    -0.352 N 
HETATM   22  H   UNL     1     -44.414  58.951 -55.783  1.00  0.00     0.163 HD
HETATM   23  O   UNL     1     -41.419  60.004 -55.713  1.00  0.00    -0.267 OA
BRANCH  21  24
HETATM   24  C   UNL     1     -43.459  59.252 -57.659  1.00  0.00     0.084 C 
HETATM   25  C   UNL     1     -43.601  57.835 -58.227  1.00  0.00     0.025 C 
HETATM   26  C   UNL     1     -43.289  57.643 -59.713  1.00  0.00     0.002 C 
HETATM   27  C   UNL     1     -42.035  58.360 -60.219  1.00  0.00     0.000 C 
HETATM   28  C   UNL     1     -42.304  59.647 -61.002  1.00  0.00     0.000 C 
HETATM   29  C   UNL     1     -42.868  60.836 -60.220  1.00  0.00     0.000 C 
HETATM   30  C   UNL     1     -44.297  60.646 -59.714  1.00  0.00     0.002 C 
HETATM   31  C   UNL     1     -44.424  60.298 -58.230  1.00  0.00     0.025 C 
ENDBRANCH  21  24
ENDBRANCH   4  20
BRANCH   6  32
HETATM   32  C   UNL     1     -42.017  61.094 -50.657  1.00  0.00     0.159 C 
BRANCH  32  33
HETATM   33  C   UNL     1     -43.008  62.256 -50.517  1.00  0.00     0.139 C 
HETATM   34  O   UNL     1     -42.349  63.515 -50.276  1.00  0.00    -0.384 OA
HETATM   35  C   UNL     1     -43.210  64.317 -49.453  1.00  0.00     0.168 C 
HETATM   36  C   UNL     1     -44.516  63.561 -49.299  1.00  0.00     0.029 C 
HETATM   37  C   UNL     1     -44.066  62.127 -49.435  1.00  0.00     0.035 C 
ENDBRANCH  32  33
ENDBRANCH   6  32
TORSDOF 8
ENDMDL
MODEL 8
REMARK VINA RESULT:      -7.7      1.941      3.439
REMARK  8 active torsions:
REMARK  status: ('A' for Active; 'I' for Inactive)
REMARK       I    between atoms: N_2  and  C_3 
REMARK    1  A    between atoms: N_2  and  C_29 
REMARK    2  A    between atoms: C_3  and  C_4 
REMARK    3  A    between atoms: C_7  and  C_8 
REMARK       I    between atoms: C_8  and  N_9 
REMARK    4  A    between atoms: N_9  and  C_10 
REMARK    5  A    between atoms: N_20  and  C_21 
REMARK    6  A    between atoms: C_21  and  C_22 
REMARK    7  A    between atoms: C_29  and  C_30 
REMARK    8  A    between atoms: C_30  and  C_31 
ROOT
HETATM    1  C   UNL     1     -41.178  57.231 -53.428  1.00  0.00     0.098 C 
HETATM    2  C   UNL     1     -41.710  57.107 -54.806  1.00  0.00     0.206 C 
HETATM    3  O   UNL     1     -41.817  58.083 -55.547  1.00  0.00    -0.286 OA
HETATM    4  C   UNL     1     -42.116  55.746 -55.269  1.00  0.00     0.098 C 
HETATM    5  C   UNL     1     -41.685  54.707 -54.532  1.00  0.00     0.111 C 
HETATM    6  N   UNL     1     -40.940  54.823 -53.362  1.00  0.00    -0.362 N 
HETATM    7  C   UNL     1     -40.772  56.098 -52.833  1.00  0.00     0.111 C 
ENDROOT
BRANCH   1   8
HETATM    8  C   UNL     1     -40.979  58.492 -52.676  1.00  0.00     0.258 C 
HETATM    9  N   UNL     1     -41.844  58.807 -51.633  1.00  0.00    -0.352 N 
HETATM   10  C   UNL     1     -41.522  59.961 -50.804  1.00  0.00     0.152 C 
HETATM   11  O   UNL     1     -39.969  59.159 -52.920  1.00  0.00    -0.267 OA
BRANCH   9  12
HETATM   12  C   UNL     1     -43.100  58.121 -51.289  1.00  0.00     0.131 C 
BRANCH  12  13
HETATM   13  C   UNL     1     -44.354  58.971 -51.506  1.00  0.00     0.079 C 
BRANCH  13  14
HETATM   14  C   UNL     1     -44.633  59.142 -52.979  1.00  0.00     0.035 A 
HETATM   15  N   UNL     1     -44.485  60.388 -53.491  1.00  0.00    -0.266 NA
HETATM   16  C   UNL     1     -44.720  60.555 -54.812  1.00  0.00     0.117 A 
HETATM   17  C   UNL     1     -45.111  59.534 -55.658  1.00  0.00     0.019 A 
HETATM   18  C   UNL     1     -45.275  58.264 -55.118  1.00  0.00     0.003 A 
HETATM   19  C   UNL     1     -45.034  58.061 -53.760  1.00  0.00     0.027 A 
ENDBRANCH  13  14
ENDBRANCH  12  13
ENDBRANCH   9  12
ENDBRANCH   1   8
BRANCH   4  20
HETATM   20  C   UNL     1     -42.965  55.492 -56.470  1.00  0.00     0.257 C 
HETATM   21  N   UNL     1     -43.121  56.575 -57.299  1.00  0.00    -0.352 N 
HETATM   22  H   UNL     1     -42.579  57.414 -57.088  1.00  0.00     0.163 HD
HETATM   23  O   UNL     1     -43.507  54.408 -56.656  1.00  0.00    -0.267 OA
BRANCH  21  24
HETATM   24  C   UNL     1     -43.987  56.635 -58.478  1.00  0.00     0.084 C 
HETATM   25  C   UNL     1     -44.287  58.089 -58.861  1.00  0.00     0.025 C 
HETATM   26  C   UNL     1     -45.385  58.325 -59.901  1.00  0.00     0.002 C 
HETATM   27  C   UNL     1     -46.654  57.489 -59.719  1.00  0.00     0.000 C 
HETATM   28  C   UNL     1     -46.774  56.292 -60.666  1.00  0.00     0.000 C 
HETATM   29  C   UNL     1     -45.787  55.139 -60.465  1.00  0.00     0.000 C 
HETATM   30  C   UNL     1     -44.335  55.477 -60.804  1.00  0.00     0.002 C 
HETATM   31  C   UNL     1     -43.430  55.752 -59.602  1.00  0.00     0.025 C 
ENDBRANCH  21  24
ENDBRANCH   4  20
BRANCH   6  32
HETATM   32  C   UNL     1     -40.333  53.636 -52.716  1.00  0.00     0.159 C 
BRANCH  32  33
HETATM   33  C   UNL     1     -40.725  53.444 -51.245  1.00  0.00     0.139 C 
HETATM   34  O   UNL     1     -41.991  54.056 -50.929  1.00  0.00    -0.384 OA
HETATM   35  C   UNL     1     -41.941  54.501 -49.565  1.00  0.00     0.168 C 
HETATM   36  C   UNL     1     -40.628  54.015 -48.982  1.00  0.00     0.029 C 
HETATM   37  C   UNL     1     -39.745  53.956 -50.204  1.00  0.00     0.035 C 
ENDBRANCH  32  33
ENDBRANCH   6  32
TORSDOF 8
ENDMDL
MODEL 9
REMARK VINA RESULT:      -7.7      2.057      3.786
REMARK  8 active torsions:
REMARK  status: ('A' for Active; 'I' for Inactive)
REMARK       I    between atoms: N_2  and  C_3 
REMARK    1  A    between atoms: N_2  and  C_29 
REMARK    2  A    between atoms: C_3  and  C_4 
REMARK    3  A    between atoms: C_7  and  C_8 
REMARK       I    between atoms: C_8  and  N_9 
REMARK    4  A    between atoms: N_9  and  C_10 
REMARK    5  A    between atoms: N_20  and  C_21 
REMARK    6  A    between atoms: C_21  and  C_22 
REMARK    7  A    between atoms: C_29  and  C_30 
REMARK    8  A    between atoms: C_30  and  C_31 
ROOT
HETATM    1  C   UNL     1     -41.277  57.802 -53.402  1.00  0.00     0.098 C 
HETATM    2  C   UNL     1     -41.974  58.121 -54.670  1.00  0.00     0.206 C 
HETATM    3  O   UNL     1     -41.680  59.110 -55.337  1.00  0.00    -0.286 OA
HETATM    4  C   UNL     1     -43.056  57.191 -55.114  1.00  0.00     0.098 C 
HETATM    5  C   UNL     1     -43.103  55.991 -54.509  1.00  0.00     0.111 C 
HETATM    6  N   UNL     1     -42.254  55.590 -53.482  1.00  0.00    -0.362 N 
HETATM    7  C   UNL     1     -41.410  56.549 -52.936  1.00  0.00     0.111 C 
ENDROOT
BRANCH   1   8
HETATM    8  C   UNL     1     -40.384  58.708 -52.641  1.00  0.00     0.258 C 
HETATM    9  N   UNL     1     -40.790  59.178 -51.396  1.00  0.00    -0.352 N 
HETATM   10  C   UNL     1     -39.825  59.923 -50.600  1.00  0.00     0.152 C 
HETATM   11  O   UNL     1     -39.250  58.912 -53.085  1.00  0.00    -0.267 OA
BRANCH   9  12
HETATM   12  C   UNL     1     -42.127  59.045 -50.795  1.00  0.00     0.131 C 
BRANCH  12  13
HETATM   13  C   UNL     1     -42.796  60.380 -50.460  1.00  0.00     0.079 C 
BRANCH  13  14
HETATM   14  C   UNL     1     -44.055  60.562 -51.271  1.00  0.00     0.035 A 
HETATM   15  N   UNL     1     -45.196  60.816 -50.584  1.00  0.00    -0.266 NA
HETATM   16  C   UNL     1     -46.331  60.993 -51.297  1.00  0.00     0.117 A 
HETATM   17  C   UNL     1     -46.392  60.918 -52.676  1.00  0.00     0.019 A 
HETATM   18  C   UNL     1     -45.219  60.640 -53.367  1.00  0.00     0.003 A 
HETATM   19  C   UNL     1     -44.032  60.459 -52.659  1.00  0.00     0.027 A 
ENDBRANCH  13  14
ENDBRANCH  12  13
ENDBRANCH   9  12
ENDBRANCH   1   8
BRANCH   4  20
HETATM   20  C   UNL     1     -44.068  57.527 -56.158  1.00  0.00     0.257 C 
HETATM   21  N   UNL     1     -43.874  56.899 -57.364  1.00  0.00    -0.352 N 
HETATM   22  H   UNL     1     -43.134  56.198 -57.418  1.00  0.00     0.163 HD
HETATM   23  O   UNL     1     -44.965  58.336 -55.949  1.00  0.00    -0.267 OA
BRANCH  21  24
HETATM   24  C   UNL     1     -44.645  57.132 -58.587  1.00  0.00     0.084 C 
HETATM   25  C   UNL     1     -44.205  58.432 -59.270  1.00  0.00     0.025 C 
HETATM   26  C   UNL     1     -45.085  58.956 -60.408  1.00  0.00     0.002 C 
HETATM   27  C   UNL     1     -46.593  58.906 -60.149  1.00  0.00     0.000 C 
HETATM   28  C   UNL     1     -47.325  57.756 -60.845  1.00  0.00     0.000 C 
HETATM   29  C   UNL     1     -47.027  56.337 -60.353  1.00  0.00     0.000 C 
HETATM   30  C   UNL     1     -45.612  55.843 -60.654  1.00  0.00     0.002 C 
HETATM   31  C   UNL     1     -44.642  55.880 -59.473  1.00  0.00     0.025 C 
ENDBRANCH  21  24
ENDBRANCH   4  20
BRANCH   6  32
HETATM   32  C   UNL     1     -42.235  54.187 -53.005  1.00  0.00     0.159 C 
BRANCH  32  33
HETATM   33  C   UNL     1     -40.983  53.397 -53.408  1.00  0.00     0.139 C 
HETATM   34  O   UNL     1     -41.257  52.418 -54.430  1.00  0.00    -0.384 OA
HETATM   35  C   UNL     1     -40.375  51.303 -54.225  1.00  0.00     0.168 C 
HETATM   36  C   UNL     1     -39.426  51.682 -53.105  1.00  0.00     0.029 C 
HETATM   37  C   UNL     1     -40.258  52.651 -52.302  1.00  0.00     0.035 C 
ENDBRANCH  32  33
ENDBRANCH   6  32
TORSDOF 8
ENDMDL
MODEL 10
REMARK VINA RESULT:      -7.6      2.485      7.695
REMARK  8 active torsions:
REMARK  status: ('A' for Active; 'I' for Inactive)
REMARK       I    between atoms: N_2  and  C_3 
REMARK    1  A    between atoms: N_2  and  C_29 
REMARK    2  A    between atoms: C_3  and  C_4 
REMARK    3  A    between atoms: C_7  and  C_8 
REMARK       I    between atoms: C_8  and  N_9 
REMARK    4  A    between atoms: N_9  and  C_10 
REMARK    5  A    between atoms: N_20  and  C_21 
REMARK    6  A    between atoms: C_21  and  C_22 
REMARK    7  A    between atoms: C_29  and  C_30 
REMARK    8  A    between atoms: C_30  and  C_31 
ROOT
HETATM    1  C   UNL     1     -42.941  58.331 -53.488  1.00  0.00     0.098 C 
HETATM    2  C   UNL     1     -44.070  59.019 -52.819  1.00  0.00     0.206 C 
HETATM    3  O   UNL     1     -44.684  59.932 -53.367  1.00  0.00    -0.286 OA
HETATM    4  C   UNL     1     -44.441  58.562 -51.446  1.00  0.00     0.098 C 
HETATM    5  C   UNL     1     -43.941  57.377 -51.051  1.00  0.00     0.111 C 
HETATM    6  N   UNL     1     -43.077  56.592 -51.809  1.00  0.00    -0.362 N 
HETATM    7  C   UNL     1     -42.570  57.143 -52.980  1.00  0.00     0.111 C 
ENDROOT
BRANCH   1   8
HETATM    8  C   UNL     1     -42.234  58.788 -54.707  1.00  0.00     0.258 C 
HETATM    9  N   UNL     1     -42.696  58.382 -55.955  1.00  0.00    -0.352 N 
HETATM   10  C   UNL     1     -42.091  58.982 -57.136  1.00  0.00     0.152 C 
HETATM   11  O   UNL     1     -41.333  59.622 -54.577  1.00  0.00    -0.267 OA
BRANCH   9  12
HETATM   12  C   UNL     1     -43.719  57.359 -56.228  1.00  0.00     0.131 C 
BRANCH  12  13
HETATM   13  C   UNL     1     -43.194  56.139 -56.987  1.00  0.00     0.079 C 
BRANCH  13  14
HETATM   14  C   UNL     1     -42.493  55.188 -56.048  1.00  0.00     0.035 A 
HETATM   15  N   UNL     1     -41.165  55.382 -55.858  1.00  0.00    -0.266 NA
HETATM   16  C   UNL     1     -40.526  54.545 -55.009  1.00  0.00     0.117 A 
HETATM   17  C   UNL     1     -41.145  53.506 -54.341  1.00  0.00     0.019 A 
HETATM   18  C   UNL     1     -42.504  53.307 -54.559  1.00  0.00     0.003 A 
HETATM   19  C   UNL     1     -43.191  54.158 -55.422  1.00  0.00     0.027 A 
ENDBRANCH  13  14
ENDBRANCH  12  13
ENDBRANCH   9  12
ENDBRANCH   1   8
BRANCH   4  20
HETATM   20  C   UNL     1     -45.306  59.341 -50.512  1.00  0.00     0.257 C 
HETATM   21  N   UNL     1     -44.654  60.333 -49.823  1.00  0.00    -0.352 N 
HETATM   22  H   UNL     1     -43.681  60.519 -50.069  1.00  0.00     0.163 HD
HETATM   23  O   UNL     1     -46.491  59.069 -50.356  1.00  0.00    -0.267 OA
BRANCH  21  24
HETATM   24  C   UNL     1     -45.232  61.168 -48.768  1.00  0.00     0.084 C 
HETATM   25  C   UNL     1     -46.255  62.151 -49.348  1.00  0.00     0.025 C 
HETATM   26  C   UNL     1     -46.752  63.267 -48.426  1.00  0.00     0.002 C 
HETATM   27  C   UNL     1     -45.673  63.961 -47.593  1.00  0.00     0.000 C 
HETATM   28  C   UNL     1     -45.614  63.524 -46.127  1.00  0.00     0.000 C 
HETATM   29  C   UNL     1     -45.148  62.094 -45.842  1.00  0.00     0.000 C 
HETATM   30  C   UNL     1     -46.115  61.004 -46.305  1.00  0.00     0.002 C 
HETATM   31  C   UNL     1     -45.730  60.298 -47.606  1.00  0.00     0.025 C 
ENDBRANCH  21  24
ENDBRANCH   4  20
BRANCH   6  32
HETATM   32  C   UNL     1     -42.728  55.213 -51.395  1.00  0.00     0.159 C 
BRANCH  32  33
HETATM   33  C   UNL     1     -41.377  55.089 -50.679  1.00  0.00     0.139 C 
HETATM   34  O   UNL     1     -40.494  54.155 -51.330  1.00  0.00    -0.384 OA
HETATM   35  C   UNL     1     -39.677  53.539 -50.322  1.00  0.00     0.168 C 
HETATM   36  C   UNL     1     -39.986  54.232 -49.009  1.00  0.00     0.029 C 
HETATM   37  C   UNL     1     -41.412  54.678 -49.217  1.00  0.00     0.035 C 
ENDBRANCH  32  33
ENDBRANCH   6  32
TORSDOF 8
ENDMDL
