MODEL 1
REMARK VINA RESULT:      -9.0      0.000      0.000
REMARK  7 active torsions:
REMARK  status: ('A' for Active; 'I' for Inactive)
REMARK    1  A    between atoms: C_4  and  C_5 
REMARK    2  A    between atoms: C_5  and  N_6 
REMARK    3  A    between atoms: N_6  and  C_7 
REMARK    4  A    between atoms: C_11  and  N_12 
REMARK       I    between atoms: N_12  and  C_13 
REMARK    5  A    between atoms: C_13  and  C_14 
REMARK    6  A    between atoms: C_17  and  C_18 
REMARK    7  A    between atoms: C_18  and  C_19 
ROOT
HETATM    1  N   UNL     1     -42.655  57.896 -52.224  1.00  0.00    -0.323 N 
HETATM    2  C   UNL     1     -41.801  57.621 -53.279  1.00  0.00     0.256 C 
HETATM    3  O   UNL     1     -41.247  58.453 -53.990  1.00  0.00    -0.267 OA
HETATM    4  H   UNL     1     -43.046  57.113 -51.722  1.00  0.00     0.169 HD
ENDROOT
BRANCH   1   5
HETATM    5  C   UNL     1     -43.142  59.160 -51.823  1.00  0.00     0.036 A 
HETATM    6  C   UNL     1     -44.442  59.609 -52.044  1.00  0.00     0.055 A 
HETATM    7  C   UNL     1     -44.856  60.844 -51.528  1.00  0.00     0.057 A 
HETATM    8  C   UNL     1     -43.988  61.656 -50.769  1.00  0.00     0.030 A 
HETATM    9 CL   UNL     1     -46.501  61.327 -51.785  1.00  0.00    -0.082 Cl
HETATM   10  C   UNL     1     -42.666  61.226 -50.624  1.00  0.00     0.027 A 
HETATM   11  C   UNL     1     -42.252  59.987 -51.127  1.00  0.00     0.031 A 
BRANCH   8  12
HETATM   12  N   UNL     1     -44.420  62.894 -50.250  1.00  0.00    -0.287 NA
HETATM   13  H   UNL     1     -45.405  63.049 -50.475  1.00  0.00     0.128 HD
BRANCH  12  14
HETATM   14  C   UNL     1     -44.116  63.167 -48.850  1.00  0.00     0.131 C 
BRANCH  14  15
HETATM   15  C   UNL     1     -45.098  62.453 -47.953  1.00  0.00    -0.045 A 
HETATM   16  C   UNL     1     -44.713  61.279 -47.284  1.00  0.00     0.008 A 
HETATM   17  C   UNL     1     -45.605  60.619 -46.439  1.00  0.00     0.001 A 
HETATM   18  C   UNL     1     -46.892  61.120 -46.258  1.00  0.00     0.000 A 
HETATM   19  C   UNL     1     -47.290  62.277 -46.927  1.00  0.00     0.001 A 
HETATM   20  C   UNL     1     -46.400  62.938 -47.776  1.00  0.00     0.008 A 
ENDBRANCH  14  15
ENDBRANCH  12  14
ENDBRANCH   8  12
ENDBRANCH   1   5
BRANCH   2  21
HETATM   21  C   UNL     1     -41.583  56.169 -53.586  1.00  0.00     0.032 A 
HETATM   22  C   UNL     1     -40.582  55.703 -54.446  1.00  0.00     0.017 A 
HETATM   23  C   UNL     1     -40.397  54.328 -54.634  1.00  0.00     0.008 A 
HETATM   24  C   UNL     1     -41.215  53.398 -53.980  1.00  0.00    -0.057 A 
HETATM   25  C   UNL     1     -42.250  53.868 -53.166  1.00  0.00     0.008 A 
HETATM   26  C   UNL     1     -42.429  55.239 -52.966  1.00  0.00     0.017 A 
BRANCH  24  27
HETATM   27  C   UNL     1     -40.985  51.911 -54.147  1.00  0.00     0.053 C 
BRANCH  27  28
HETATM   28  C   UNL     1     -39.672  51.369 -53.564  1.00  0.00     0.091 C 
HETATM   29  C   UNL     1     -39.570  49.871 -53.707  1.00  0.00     0.229 C 
HETATM   30  O   UNL     1     -39.548  49.257 -54.761  1.00  0.00    -0.273 OA
HETATM   31  N   UNL     1     -39.548  49.311 -52.472  1.00  0.00    -0.297 N 
HETATM   32  C   UNL     1     -39.576  50.222 -51.470  1.00  0.00     0.225 C 
HETATM   33  H   UNL     1     -39.559  48.315 -52.316  1.00  0.00     0.171 HD
HETATM   34  O   UNL     1     -39.623  49.967 -50.279  1.00  0.00    -0.273 OA
HETATM   35  C   UNL     1     -39.481  51.598 -52.064  1.00  0.00     0.117 C 
ENDBRANCH  27  28
ENDBRANCH  24  27
ENDBRANCH   2  21
TORSDOF 7
ENDMDL
MODEL 2
REMARK VINA RESULT:      -8.5     17.714     20.910
REMARK  7 active torsions:
REMARK  status: ('A' for Active; 'I' for Inactive)
REMARK    1  A    between atoms: C_4  and  C_5 
REMARK    2  A    between atoms: C_5  and  N_6 
REMARK    3  A    between atoms: N_6  and  C_7 
REMARK    4  A    between atoms: C_11  and  N_12 
REMARK       I    between atoms: N_12  and  C_13 
REMARK    5  A    between atoms: C_13  and  C_14 
REMARK    6  A    between atoms: C_17  and  C_18 
REMARK    7  A    between atoms: C_18  and  C_19 
ROOT
HETATM    1  N   UNL     1     -34.138  40.524 -51.539  1.00  0.00    -0.323 N 
HETATM    2  C   UNL     1     -34.334  39.340 -50.850  1.00  0.00     0.256 C 
HETATM    3  O   UNL     1     -35.118  38.450 -51.160  1.00  0.00    -0.267 OA
HETATM    4  H   UNL     1     -33.461  41.175 -51.170  1.00  0.00     0.169 HD
ENDROOT
BRANCH   1   5
HETATM    5  C   UNL     1     -34.861  40.994 -52.658  1.00  0.00     0.036 A 
HETATM    6  C   UNL     1     -34.388  40.969 -53.969  1.00  0.00     0.055 A 
HETATM    7  C   UNL     1     -35.217  41.375 -55.023  1.00  0.00     0.057 A 
HETATM    8  C   UNL     1     -36.541  41.806 -54.799  1.00  0.00     0.030 A 
HETATM    9 CL   UNL     1     -34.596  41.269 -56.638  1.00  0.00    -0.082 Cl
HETATM   10  C   UNL     1     -36.971  41.899 -53.471  1.00  0.00     0.027 A 
HETATM   11  C   UNL     1     -36.151  41.481 -52.417  1.00  0.00     0.031 A 
BRANCH   8  12
HETATM   12  N   UNL     1     -37.366  42.207 -55.869  1.00  0.00    -0.287 NA
HETATM   13  H   UNL     1     -36.801  42.605 -56.622  1.00  0.00     0.128 HD
BRANCH  12  14
HETATM   14  C   UNL     1     -38.340  41.235 -56.354  1.00  0.00     0.131 C 
BRANCH  14  15
HETATM   15  C   UNL     1     -37.986  40.796 -57.755  1.00  0.00    -0.045 A 
HETATM   16  C   UNL     1     -37.547  41.740 -58.697  1.00  0.00     0.008 A 
HETATM   17  C   UNL     1     -37.202  41.345 -59.990  1.00  0.00     0.001 A 
HETATM   18  C   UNL     1     -37.295  40.004 -60.355  1.00  0.00     0.000 A 
HETATM   19  C   UNL     1     -37.742  39.059 -59.433  1.00  0.00     0.001 A 
HETATM   20  C   UNL     1     -38.092  39.452 -58.139  1.00  0.00     0.008 A 
ENDBRANCH  14  15
ENDBRANCH  12  14
ENDBRANCH   8  12
ENDBRANCH   1   5
BRANCH   2  21
HETATM   21  C   UNL     1     -33.535  39.173 -49.592  1.00  0.00     0.032 A 
HETATM   22  C   UNL     1     -33.853  38.247 -48.592  1.00  0.00     0.017 A 
HETATM   23  C   UNL     1     -33.023  38.102 -47.473  1.00  0.00     0.008 A 
HETATM   24  C   UNL     1     -31.872  38.887 -47.327  1.00  0.00    -0.057 A 
HETATM   25  C   UNL     1     -31.587  39.851 -48.301  1.00  0.00     0.008 A 
HETATM   26  C   UNL     1     -32.407  39.989 -49.424  1.00  0.00     0.017 A 
BRANCH  24  27
HETATM   27  C   UNL     1     -30.950  38.698 -46.143  1.00  0.00     0.053 C 
BRANCH  27  28
HETATM   28  C   UNL     1     -30.016  39.876 -45.827  1.00  0.00     0.091 C 
HETATM   29  C   UNL     1     -28.568  39.518 -46.042  1.00  0.00     0.229 C 
HETATM   30  O   UNL     1     -28.066  39.190 -47.105  1.00  0.00    -0.273 OA
HETATM   31  N   UNL     1     -27.918  39.578 -44.853  1.00  0.00    -0.297 N 
HETATM   32  C   UNL     1     -28.710  39.978 -43.829  1.00  0.00     0.225 C 
HETATM   33  H   UNL     1     -26.954  39.308 -44.735  1.00  0.00     0.171 HD
HETATM   34  O   UNL     1     -28.375  40.055 -42.660  1.00  0.00    -0.273 OA
HETATM   35  C   UNL     1     -30.052  40.367 -44.379  1.00  0.00     0.117 C 
ENDBRANCH  27  28
ENDBRANCH  24  27
ENDBRANCH   2  21
TORSDOF 7
ENDMDL
MODEL 3
REMARK VINA RESULT:      -8.4      6.171      8.285
REMARK  7 active torsions:
REMARK  status: ('A' for Active; 'I' for Inactive)
REMARK    1  A    between atoms: C_4  and  C_5 
REMARK    2  A    between atoms: C_5  and  N_6 
REMARK    3  A    between atoms: N_6  and  C_7 
REMARK    4  A    between atoms: C_11  and  N_12 
REMARK       I    between atoms: N_12  and  C_13 
REMARK    5  A    between atoms: C_13  and  C_14 
REMARK    6  A    between atoms: C_17  and  C_18 
REMARK    7  A    between atoms: C_18  and  C_19 
ROOT
HETATM    1  N   UNL     1     -42.326  56.878 -57.209  1.00  0.00    -0.323 N 
HETATM    2  C   UNL     1     -42.040  56.791 -55.857  1.00  0.00     0.256 C 
HETATM    3  O   UNL     1     -41.946  57.735 -55.082  1.00  0.00    -0.267 OA
HETATM    4  H   UNL     1     -42.370  56.017 -57.735  1.00  0.00     0.169 HD
ENDROOT
BRANCH   1   5
HETATM    5  C   UNL     1     -42.459  58.052 -57.983  1.00  0.00     0.036 A 
HETATM    6  C   UNL     1     -42.985  59.252 -57.510  1.00  0.00     0.055 A 
HETATM    7  C   UNL     1     -42.992  60.388 -58.330  1.00  0.00     0.057 A 
HETATM    8  C   UNL     1     -42.465  60.360 -59.637  1.00  0.00     0.030 A 
HETATM    9 CL   UNL     1     -43.607  61.868 -57.669  1.00  0.00    -0.082 Cl
HETATM   10  C   UNL     1     -42.014  59.128 -60.122  1.00  0.00     0.027 A 
HETATM   11  C   UNL     1     -41.993  57.994 -59.302  1.00  0.00     0.031 A 
BRANCH   8  12
HETATM   12  N   UNL     1     -42.474  61.512 -60.449  1.00  0.00    -0.287 NA
HETATM   13  H   UNL     1     -42.501  62.354 -59.871  1.00  0.00     0.128 HD
BRANCH  12  14
HETATM   14  C   UNL     1     -41.465  61.588 -61.500  1.00  0.00     0.131 C 
BRANCH  14  15
HETATM   15  C   UNL     1     -40.350  62.519 -61.088  1.00  0.00    -0.045 A 
HETATM   16  C   UNL     1     -39.569  63.156 -62.066  1.00  0.00     0.008 A 
HETATM   17  C   UNL     1     -38.547  64.032 -61.698  1.00  0.00     0.001 A 
HETATM   18  C   UNL     1     -38.292  64.277 -60.351  1.00  0.00     0.000 A 
HETATM   19  C   UNL     1     -39.052  63.641 -59.371  1.00  0.00     0.001 A 
HETATM   20  C   UNL     1     -40.073  62.761 -59.735  1.00  0.00     0.008 A 
ENDBRANCH  14  15
ENDBRANCH  12  14
ENDBRANCH   8  12
ENDBRANCH   1   5
BRANCH   2  21
HETATM   21  C   UNL     1     -41.785  55.411 -55.328  1.00  0.00     0.032 A 
HETATM   22  C   UNL     1     -42.803  54.503 -55.014  1.00  0.00     0.017 A 
HETATM   23  C   UNL     1     -42.488  53.208 -54.585  1.00  0.00     0.008 A 
HETATM   24  C   UNL     1     -41.154  52.803 -54.449  1.00  0.00    -0.057 A 
HETATM   25  C   UNL     1     -40.139  53.730 -54.710  1.00  0.00     0.008 A 
HETATM   26  C   UNL     1     -40.451  55.019 -55.150  1.00  0.00     0.017 A 
BRANCH  24  27
HETATM   27  C   UNL     1     -40.813  51.389 -54.031  1.00  0.00     0.053 C 
BRANCH  27  28
HETATM   28  C   UNL     1     -39.656  51.248 -53.031  1.00  0.00     0.091 C 
HETATM   29  C   UNL     1     -39.373  49.805 -52.699  1.00  0.00     0.229 C 
HETATM   30  O   UNL     1     -39.011  48.950 -53.492  1.00  0.00    -0.273 OA
HETATM   31  N   UNL     1     -39.626  49.597 -51.383  1.00  0.00    -0.297 N 
HETATM   32  C   UNL     1     -40.009  50.719 -50.728  1.00  0.00     0.225 C 
HETATM   33  H   UNL     1     -39.579  48.690 -50.947  1.00  0.00     0.171 HD
HETATM   34  O   UNL     1     -40.345  50.780 -49.558  1.00  0.00    -0.273 OA
HETATM   35  C   UNL     1     -39.895  51.889 -51.664  1.00  0.00     0.117 C 
ENDBRANCH  27  28
ENDBRANCH  24  27
ENDBRANCH   2  21
TORSDOF 7
ENDMDL
MODEL 4
REMARK VINA RESULT:      -8.3      6.829     11.152
REMARK  7 active torsions:
REMARK  status: ('A' for Active; 'I' for Inactive)
REMARK    1  A    between atoms: C_4  and  C_5 
REMARK    2  A    between atoms: C_5  and  N_6 
REMARK    3  A    between atoms: N_6  and  C_7 
REMARK    4  A    between atoms: C_11  and  N_12 
REMARK       I    between atoms: N_12  and  C_13 
REMARK    5  A    between atoms: C_13  and  C_14 
REMARK    6  A    between atoms: C_17  and  C_18 
REMARK    7  A    between atoms: C_18  and  C_19 
ROOT
HETATM    1  N   UNL     1     -43.940  56.381 -56.384  1.00  0.00    -0.323 N 
HETATM    2  C   UNL     1     -43.371  57.258 -57.292  1.00  0.00     0.256 C 
HETATM    3  O   UNL     1     -42.202  57.629 -57.295  1.00  0.00    -0.267 OA
HETATM    4  H   UNL     1     -44.920  56.163 -56.494  1.00  0.00     0.169 HD
ENDROOT
BRANCH   1   5
HETATM    5  C   UNL     1     -43.337  55.827 -55.233  1.00  0.00     0.036 A 
HETATM    6  C   UNL     1     -43.324  56.436 -53.980  1.00  0.00     0.055 A 
HETATM    7  C   UNL     1     -42.778  55.764 -52.878  1.00  0.00     0.057 A 
HETATM    8  C   UNL     1     -42.241  54.466 -52.995  1.00  0.00     0.030 A 
HETATM    9 CL   UNL     1     -42.840  56.546 -51.332  1.00  0.00    -0.082 Cl
HETATM   10  C   UNL     1     -42.192  53.903 -54.275  1.00  0.00     0.027 A 
HETATM   11  C   UNL     1     -42.749  54.565 -55.375  1.00  0.00     0.031 A 
BRANCH   8  12
HETATM   12  N   UNL     1     -41.700  53.799 -51.877  1.00  0.00    -0.287 NA
HETATM   13  H   UNL     1     -42.235  52.952 -51.676  1.00  0.00     0.128 HD
BRANCH  12  14
HETATM   14  C   UNL     1     -40.260  53.564 -51.880  1.00  0.00     0.131 C 
BRANCH  14  15
HETATM   15  C   UNL     1     -39.970  52.104 -52.134  1.00  0.00    -0.045 A 
HETATM   16  C   UNL     1     -39.792  51.225 -51.053  1.00  0.00     0.008 A 
HETATM   17  C   UNL     1     -39.540  49.871 -51.273  1.00  0.00     0.001 A 
HETATM   18  C   UNL     1     -39.460  49.381 -52.575  1.00  0.00     0.000 A 
HETATM   19  C   UNL     1     -39.622  50.246 -53.656  1.00  0.00     0.001 A 
HETATM   20  C   UNL     1     -39.871  51.602 -53.439  1.00  0.00     0.008 A 
ENDBRANCH  14  15
ENDBRANCH  12  14
ENDBRANCH   8  12
ENDBRANCH   1   5
BRANCH   2  21
HETATM   21  C   UNL     1     -44.296  57.823 -58.328  1.00  0.00     0.032 A 
HETATM   22  C   UNL     1     -43.865  58.304 -59.569  1.00  0.00     0.017 A 
HETATM   23  C   UNL     1     -44.794  58.758 -60.513  1.00  0.00     0.008 A 
HETATM   24  C   UNL     1     -46.166  58.752 -60.229  1.00  0.00    -0.057 A 
HETATM   25  C   UNL     1     -46.589  58.323 -58.966  1.00  0.00     0.008 A 
HETATM   26  C   UNL     1     -45.665  57.858 -58.027  1.00  0.00     0.017 A 
BRANCH  24  27
HETATM   27  C   UNL     1     -47.174  59.198 -61.266  1.00  0.00     0.053 C 
BRANCH  27  28
HETATM   28  C   UNL     1     -48.485  58.400 -61.310  1.00  0.00     0.091 C 
HETATM   29  C   UNL     1     -48.360  57.160 -62.158  1.00  0.00     0.229 C 
HETATM   30  O   UNL     1     -47.605  56.226 -61.946  1.00  0.00    -0.273 OA
HETATM   31  N   UNL     1     -49.193  57.269 -63.223  1.00  0.00    -0.297 N 
HETATM   32  C   UNL     1     -49.927  58.408 -63.215  1.00  0.00     0.225 C 
HETATM   33  H   UNL     1     -49.227  56.593 -63.970  1.00  0.00     0.171 HD
HETATM   34  O   UNL     1     -50.702  58.761 -64.087  1.00  0.00    -0.273 OA
HETATM   35  C   UNL     1     -49.676  59.136 -61.926  1.00  0.00     0.117 C 
ENDBRANCH  27  28
ENDBRANCH  24  27
ENDBRANCH   2  21
TORSDOF 7
ENDMDL
MODEL 5
REMARK VINA RESULT:      -8.3      4.043     11.708
REMARK  7 active torsions:
REMARK  status: ('A' for Active; 'I' for Inactive)
REMARK    1  A    between atoms: C_4  and  C_5 
REMARK    2  A    between atoms: C_5  and  N_6 
REMARK    3  A    between atoms: N_6  and  C_7 
REMARK    4  A    between atoms: C_11  and  N_12 
REMARK       I    between atoms: N_12  and  C_13 
REMARK    5  A    between atoms: C_13  and  C_14 
REMARK    6  A    between atoms: C_17  and  C_18 
REMARK    7  A    between atoms: C_18  and  C_19 
ROOT
HETATM    1  N   UNL     1     -43.517  58.936 -50.986  1.00  0.00    -0.323 N 
HETATM    2  C   UNL     1     -43.279  60.297 -51.090  1.00  0.00     0.256 C 
HETATM    3  O   UNL     1     -42.513  60.832 -51.884  1.00  0.00    -0.267 OA
HETATM    4  H   UNL     1     -44.172  58.628 -50.283  1.00  0.00     0.169 HD
ENDROOT
BRANCH   1   5
HETATM    5  C   UNL     1     -42.863  57.896 -51.682  1.00  0.00     0.036 A 
HETATM    6  C   UNL     1     -42.859  57.756 -53.069  1.00  0.00     0.055 A 
HETATM    7  C   UNL     1     -42.105  56.740 -53.670  1.00  0.00     0.057 A 
HETATM    8  C   UNL     1     -41.327  55.846 -52.907  1.00  0.00     0.030 A 
HETATM    9 CL   UNL     1     -42.092  56.648 -55.402  1.00  0.00    -0.082 Cl
HETATM   10  C   UNL     1     -41.405  55.952 -51.515  1.00  0.00     0.027 A 
HETATM   11  C   UNL     1     -42.146  56.974 -50.911  1.00  0.00     0.031 A 
BRANCH   8  12
HETATM   12  N   UNL     1     -40.568  54.832 -53.526  1.00  0.00    -0.287 NA
HETATM   13  H   UNL     1     -39.776  54.570 -52.935  1.00  0.00     0.128 HD
BRANCH  12  14
HETATM   14  C   UNL     1     -41.298  53.673 -54.029  1.00  0.00     0.131 C 
BRANCH  14  15
HETATM   15  C   UNL     1     -40.637  52.397 -53.563  1.00  0.00    -0.045 A 
HETATM   16  C   UNL     1     -40.104  52.316 -52.266  1.00  0.00     0.008 A 
HETATM   17  C   UNL     1     -39.507  51.138 -51.817  1.00  0.00     0.001 A 
HETATM   18  C   UNL     1     -39.431  50.031 -52.660  1.00  0.00     0.000 A 
HETATM   19  C   UNL     1     -39.945  50.104 -53.954  1.00  0.00     0.001 A 
HETATM   20  C   UNL     1     -40.540  51.283 -54.407  1.00  0.00     0.008 A 
ENDBRANCH  14  15
ENDBRANCH  12  14
ENDBRANCH   8  12
ENDBRANCH   1   5
BRANCH   2  21
HETATM   21  C   UNL     1     -44.001  61.167 -50.106  1.00  0.00     0.032 A 
HETATM   22  C   UNL     1     -45.078  60.725 -49.329  1.00  0.00     0.017 A 
HETATM   23  C   UNL     1     -45.662  61.576 -48.382  1.00  0.00     0.008 A 
HETATM   24  C   UNL     1     -45.192  62.883 -48.206  1.00  0.00    -0.057 A 
HETATM   25  C   UNL     1     -44.153  63.340 -49.024  1.00  0.00     0.008 A 
HETATM   26  C   UNL     1     -43.560  62.489 -49.960  1.00  0.00     0.017 A 
BRANCH  24  27
HETATM   27  C   UNL     1     -45.793  63.787 -47.151  1.00  0.00     0.053 C 
BRANCH  27  28
HETATM   28  C   UNL     1     -46.043  63.141 -45.781  1.00  0.00     0.091 C 
HETATM   29  C   UNL     1     -47.070  63.900 -44.981  1.00  0.00     0.229 C 
HETATM   30  O   UNL     1     -48.236  64.071 -45.298  1.00  0.00    -0.273 OA
HETATM   31  N   UNL     1     -46.478  64.402 -43.868  1.00  0.00    -0.297 N 
HETATM   32  C   UNL     1     -45.173  64.058 -43.753  1.00  0.00     0.225 C 
HETATM   33  H   UNL     1     -46.950  65.010 -43.217  1.00  0.00     0.171 HD
HETATM   34  O   UNL     1     -44.414  64.430 -42.875  1.00  0.00    -0.273 OA
HETATM   35  C   UNL     1     -44.829  63.093 -44.852  1.00  0.00     0.117 C 
ENDBRANCH  27  28
ENDBRANCH  24  27
ENDBRANCH   2  21
TORSDOF 7
ENDMDL
MODEL 6
REMARK VINA RESULT:      -8.3      2.753      3.502
REMARK  7 active torsions:
REMARK  status: ('A' for Active; 'I' for Inactive)
REMARK    1  A    between atoms: C_4  and  C_5 
REMARK    2  A    between atoms: C_5  and  N_6 
REMARK    3  A    between atoms: N_6  and  C_7 
REMARK    4  A    between atoms: C_11  and  N_12 
REMARK       I    between atoms: N_12  and  C_13 
REMARK    5  A    between atoms: C_13  and  C_14 
REMARK    6  A    between atoms: C_17  and  C_18 
REMARK    7  A    between atoms: C_18  and  C_19 
ROOT
HETATM    1  N   UNL     1     -43.823  57.407 -52.674  1.00  0.00    -0.323 N 
HETATM    2  C   UNL     1     -42.451  57.312 -52.832  1.00  0.00     0.256 C 
HETATM    3  O   UNL     1     -41.644  58.219 -52.658  1.00  0.00    -0.267 OA
HETATM    4  H   UNL     1     -44.373  56.580 -52.854  1.00  0.00     0.169 HD
ENDROOT
BRANCH   1   5
HETATM    5  C   UNL     1     -44.575  58.568 -52.390  1.00  0.00     0.036 A 
HETATM    6  C   UNL     1     -44.772  59.087 -51.112  1.00  0.00     0.055 A 
HETATM    7  C   UNL     1     -45.460  60.296 -50.942  1.00  0.00     0.057 A 
HETATM    8  C   UNL     1     -45.957  61.024 -52.042  1.00  0.00     0.030 A 
HETATM    9 CL   UNL     1     -45.625  60.922 -49.334  1.00  0.00    -0.082 Cl
HETATM   10  C   UNL     1     -45.819  60.449 -53.309  1.00  0.00     0.027 A 
HETATM   11  C   UNL     1     -45.122  59.249 -53.484  1.00  0.00     0.031 A 
BRANCH   8  12
HETATM   12  N   UNL     1     -46.642  62.242 -51.857  1.00  0.00    -0.287 NA
HETATM   13  H   UNL     1     -46.018  62.942 -51.450  1.00  0.00     0.128 HD
BRANCH  12  14
HETATM   14  C   UNL     1     -47.394  62.758 -52.996  1.00  0.00     0.131 C 
BRANCH  14  15
HETATM   15  C   UNL     1     -48.874  62.741 -52.696  1.00  0.00    -0.045 A 
HETATM   16  C   UNL     1     -49.368  63.405 -51.561  1.00  0.00     0.008 A 
HETATM   17  C   UNL     1     -50.734  63.411 -51.281  1.00  0.00     0.001 A 
HETATM   18  C   UNL     1     -51.621  62.752 -52.130  1.00  0.00     0.000 A 
HETATM   19  C   UNL     1     -51.141  62.079 -53.252  1.00  0.00     0.001 A 
HETATM   20  C   UNL     1     -49.773  62.067 -53.533  1.00  0.00     0.008 A 
ENDBRANCH  14  15
ENDBRANCH  12  14
ENDBRANCH   8  12
ENDBRANCH   1   5
BRANCH   2  21
HETATM   21  C   UNL     1     -41.934  55.985 -53.300  1.00  0.00     0.032 A 
HETATM   22  C   UNL     1     -40.833  55.841 -54.153  1.00  0.00     0.017 A 
HETATM   23  C   UNL     1     -40.367  54.566 -54.496  1.00  0.00     0.008 A 
HETATM   24  C   UNL     1     -40.999  53.416 -54.006  1.00  0.00    -0.057 A 
HETATM   25  C   UNL     1     -42.132  53.563 -53.199  1.00  0.00     0.008 A 
HETATM   26  C   UNL     1     -42.592  54.834 -52.845  1.00  0.00     0.017 A 
BRANCH  24  27
HETATM   27  C   UNL     1     -40.466  52.039 -54.339  1.00  0.00     0.053 C 
BRANCH  27  28
HETATM   28  C   UNL     1     -39.374  51.500 -53.403  1.00  0.00     0.091 C 
HETATM   29  C   UNL     1     -39.408  49.996 -53.307  1.00  0.00     0.229 C 
HETATM   30  O   UNL     1     -39.231  49.220 -54.231  1.00  0.00    -0.273 OA
HETATM   31  N   UNL     1     -39.711  49.643 -52.033  1.00  0.00    -0.297 N 
HETATM   32  C   UNL     1     -39.851  50.703 -51.202  1.00  0.00     0.225 C 
HETATM   33  H   UNL     1     -39.863  48.689 -51.745  1.00  0.00     0.171 HD
HETATM   34  O   UNL     1     -40.176  50.648 -50.028  1.00  0.00    -0.273 OA
HETATM   35  C   UNL     1     -39.482  51.954 -51.947  1.00  0.00     0.117 C 
ENDBRANCH  27  28
ENDBRANCH  24  27
ENDBRANCH   2  21
TORSDOF 7
ENDMDL
MODEL 7
REMARK VINA RESULT:      -8.2      3.537     10.799
REMARK  7 active torsions:
REMARK  status: ('A' for Active; 'I' for Inactive)
REMARK    1  A    between atoms: C_4  and  C_5 
REMARK    2  A    between atoms: C_5  and  N_6 
REMARK    3  A    between atoms: N_6  and  C_7 
REMARK    4  A    between atoms: C_11  and  N_12 
REMARK       I    between atoms: N_12  and  C_13 
REMARK    5  A    between atoms: C_13  and  C_14 
REMARK    6  A    between atoms: C_17  and  C_18 
REMARK    7  A    between atoms: C_18  and  C_19 
ROOT
HETATM    1  N   UNL     1     -44.228  58.136 -51.624  1.00  0.00    -0.323 N 
HETATM    2  C   UNL     1     -43.741  59.433 -51.639  1.00  0.00     0.256 C 
HETATM    3  O   UNL     1     -42.848  59.856 -52.365  1.00  0.00    -0.267 OA
HETATM    4  H   UNL     1     -44.966  57.921 -50.970  1.00  0.00     0.169 HD
ENDROOT
BRANCH   1   5
HETATM    5  C   UNL     1     -43.736  57.028 -52.349  1.00  0.00     0.036 A 
HETATM    6  C   UNL     1     -43.722  56.939 -53.739  1.00  0.00     0.055 A 
HETATM    7  C   UNL     1     -43.130  55.835 -54.367  1.00  0.00     0.057 A 
HETATM    8  C   UNL     1     -42.527  54.799 -53.625  1.00  0.00     0.030 A 
HETATM    9 CL   UNL     1     -43.091  55.805 -56.100  1.00  0.00    -0.082 Cl
HETATM   10  C   UNL     1     -42.620  54.866 -52.232  1.00  0.00     0.027 A 
HETATM   11  C   UNL     1     -43.199  55.974 -51.601  1.00  0.00     0.031 A 
BRANCH   8  12
HETATM   12  N   UNL     1     -41.930  53.696 -54.270  1.00  0.00    -0.287 NA
HETATM   13  H   UNL     1     -42.234  53.648 -55.245  1.00  0.00     0.128 HD
BRANCH  12  14
HETATM   14  C   UNL     1     -40.486  53.549 -54.127  1.00  0.00     0.131 C 
BRANCH  14  15
HETATM   15  C   UNL     1     -40.154  52.194 -53.548  1.00  0.00    -0.045 A 
HETATM   16  C   UNL     1     -39.833  52.072 -52.186  1.00  0.00     0.008 A 
HETATM   17  C   UNL     1     -39.541  50.824 -51.635  1.00  0.00     0.001 A 
HETATM   18  C   UNL     1     -39.563  49.686 -52.439  1.00  0.00     0.000 A 
HETATM   19  C   UNL     1     -39.868  49.797 -53.795  1.00  0.00     0.001 A 
HETATM   20  C   UNL     1     -40.157  51.045 -54.350  1.00  0.00     0.008 A 
ENDBRANCH  14  15
ENDBRANCH  12  14
ENDBRANCH   8  12
ENDBRANCH   1   5
BRANCH   2  21
HETATM   21  C   UNL     1     -44.347  60.373 -50.639  1.00  0.00     0.032 A 
HETATM   22  C   UNL     1     -45.716  60.658 -50.578  1.00  0.00     0.017 A 
HETATM   23  C   UNL     1     -46.218  61.496 -49.575  1.00  0.00     0.008 A 
HETATM   24  C   UNL     1     -45.363  62.074 -48.628  1.00  0.00    -0.057 A 
HETATM   25  C   UNL     1     -43.989  61.831 -48.726  1.00  0.00     0.008 A 
HETATM   26  C   UNL     1     -43.486  60.985 -49.718  1.00  0.00     0.017 A 
BRANCH  24  27
HETATM   27  C   UNL     1     -45.912  62.942 -47.516  1.00  0.00     0.053 C 
BRANCH  27  28
HETATM   28  C   UNL     1     -46.385  62.198 -46.259  1.00  0.00     0.091 C 
HETATM   29  C   UNL     1     -45.234  61.588 -45.500  1.00  0.00     0.229 C 
HETATM   30  O   UNL     1     -44.312  62.204 -44.990  1.00  0.00    -0.273 OA
HETATM   31  N   UNL     1     -45.364  60.238 -45.511  1.00  0.00    -0.297 N 
HETATM   32  C   UNL     1     -46.484  59.813 -46.142  1.00  0.00     0.225 C 
HETATM   33  H   UNL     1     -44.672  59.613 -45.130  1.00  0.00     0.171 HD
HETATM   34  O   UNL     1     -46.795  58.650 -46.333  1.00  0.00    -0.273 OA
HETATM   35  C   UNL     1     -47.312  61.009 -46.516  1.00  0.00     0.117 C 
ENDBRANCH  27  28
ENDBRANCH  24  27
ENDBRANCH   2  21
TORSDOF 7
ENDMDL
MODEL 8
REMARK VINA RESULT:      -8.0      1.626      2.565
REMARK  7 active torsions:
REMARK  status: ('A' for Active; 'I' for Inactive)
REMARK    1  A    between atoms: C_4  and  C_5 
REMARK    2  A    between atoms: C_5  and  N_6 
REMARK    3  A    between atoms: N_6  and  C_7 
REMARK    4  A    between atoms: C_11  and  N_12 
REMARK       I    between atoms: N_12  and  C_13 
REMARK    5  A    between atoms: C_13  and  C_14 
REMARK    6  A    between atoms: C_17  and  C_18 
REMARK    7  A    between atoms: C_18  and  C_19 
ROOT
HETATM    1  N   UNL     1     -43.132  59.015 -51.621  1.00  0.00    -0.323 N 
HETATM    2  C   UNL     1     -42.812  58.858 -52.959  1.00  0.00     0.256 C 
HETATM    3  O   UNL     1     -43.023  59.675 -53.848  1.00  0.00    -0.267 OA
HETATM    4  H   UNL     1     -42.905  58.259 -50.993  1.00  0.00     0.169 HD
ENDROOT
BRANCH   1   5
HETATM    5  C   UNL     1     -43.851  60.079 -51.031  1.00  0.00     0.036 A 
HETATM    6  C   UNL     1     -43.264  61.223 -50.494  1.00  0.00     0.055 A 
HETATM    7  C   UNL     1     -44.069  62.264 -50.012  1.00  0.00     0.057 A 
HETATM    8  C   UNL     1     -45.476  62.197 -50.064  1.00  0.00     0.030 A 
HETATM    9 CL   UNL     1     -43.285  63.688 -49.406  1.00  0.00    -0.082 Cl
HETATM   10  C   UNL     1     -46.046  61.010 -50.534  1.00  0.00     0.027 A 
HETATM   11  C   UNL     1     -45.246  59.973 -51.029  1.00  0.00     0.031 A 
BRANCH   8  12
HETATM   12  N   UNL     1     -46.272  63.255 -49.581  1.00  0.00    -0.287 NA
HETATM   13  H   UNL     1     -46.780  63.696 -50.350  1.00  0.00     0.128 HD
BRANCH  12  14
HETATM   14  C   UNL     1     -47.130  62.968 -48.436  1.00  0.00     0.131 C 
BRANCH  14  15
HETATM   15  C   UNL     1     -46.293  62.736 -47.201  1.00  0.00    -0.045 A 
HETATM   16  C   UNL     1     -45.838  63.829 -46.446  1.00  0.00     0.008 A 
HETATM   17  C   UNL     1     -45.078  63.629 -45.294  1.00  0.00     0.001 A 
HETATM   18  C   UNL     1     -44.761  62.335 -44.886  1.00  0.00     0.000 A 
HETATM   19  C   UNL     1     -45.196  61.242 -45.635  1.00  0.00     0.001 A 
HETATM   20  C   UNL     1     -45.953  61.440 -46.791  1.00  0.00     0.008 A 
ENDBRANCH  14  15
ENDBRANCH  12  14
ENDBRANCH   8  12
ENDBRANCH   1   5
BRANCH   2  21
HETATM   21  C   UNL     1     -42.191  57.546 -53.335  1.00  0.00     0.032 A 
HETATM   22  C   UNL     1     -41.936  57.162 -54.657  1.00  0.00     0.017 A 
HETATM   23  C   UNL     1     -41.293  55.948 -54.929  1.00  0.00     0.008 A 
HETATM   24  C   UNL     1     -40.909  55.092 -53.889  1.00  0.00    -0.057 A 
HETATM   25  C   UNL     1     -41.216  55.452 -52.572  1.00  0.00     0.008 A 
HETATM   26  C   UNL     1     -41.845  56.669 -52.298  1.00  0.00     0.017 A 
BRANCH  24  27
HETATM   27  C   UNL     1     -40.173  53.802 -54.180  1.00  0.00     0.053 C 
BRANCH  27  28
HETATM   28  C   UNL     1     -40.739  52.543 -53.508  1.00  0.00     0.091 C 
HETATM   29  C   UNL     1     -39.817  52.014 -52.439  1.00  0.00     0.229 C 
HETATM   30  O   UNL     1     -39.487  52.608 -51.425  1.00  0.00    -0.273 OA
HETATM   31  N   UNL     1     -39.377  50.784 -52.805  1.00  0.00    -0.297 N 
HETATM   32  C   UNL     1     -39.904  50.353 -53.976  1.00  0.00     0.225 C 
HETATM   33  H   UNL     1     -38.690  50.264 -52.282  1.00  0.00     0.171 HD
HETATM   34  O   UNL     1     -39.623  49.311 -54.542  1.00  0.00    -0.273 OA
HETATM   35  C   UNL     1     -40.937  51.342 -54.434  1.00  0.00     0.117 C 
ENDBRANCH  27  28
ENDBRANCH  24  27
ENDBRANCH   2  21
TORSDOF 7
ENDMDL
MODEL 9
REMARK VINA RESULT:      -8.0      6.497     11.144
REMARK  7 active torsions:
REMARK  status: ('A' for Active; 'I' for Inactive)
REMARK    1  A    between atoms: C_4  and  C_5 
REMARK    2  A    between atoms: C_5  and  N_6 
REMARK    3  A    between atoms: N_6  and  C_7 
REMARK    4  A    between atoms: C_11  and  N_12 
REMARK       I    between atoms: N_12  and  C_13 
REMARK    5  A    between atoms: C_13  and  C_14 
REMARK    6  A    between atoms: C_17  and  C_18 
REMARK    7  A    between atoms: C_18  and  C_19 
ROOT
HETATM    1  N   UNL     1     -44.331  56.695 -55.534  1.00  0.00    -0.323 N 
HETATM    2  C   UNL     1     -43.841  57.439 -56.594  1.00  0.00     0.256 C 
HETATM    3  O   UNL     1     -42.658  57.595 -56.875  1.00  0.00    -0.267 OA
HETATM    4  H   UNL     1     -45.332  56.653 -55.414  1.00  0.00     0.169 HD
ENDROOT
BRANCH   1   5
HETATM    5  C   UNL     1     -43.586  56.062 -54.515  1.00  0.00     0.036 A 
HETATM    6  C   UNL     1     -43.087  56.709 -53.386  1.00  0.00     0.055 A 
HETATM    7  C   UNL     1     -42.436  55.975 -52.385  1.00  0.00     0.057 A 
HETATM    8  C   UNL     1     -42.277  54.577 -52.478  1.00  0.00     0.030 A 
HETATM    9 CL   UNL     1     -41.886  56.824 -50.977  1.00  0.00    -0.082 Cl
HETATM   10  C   UNL     1     -42.714  53.957 -53.653  1.00  0.00     0.027 A 
HETATM   11  C   UNL     1     -43.376  54.684 -54.649  1.00  0.00     0.031 A 
BRANCH   8  12
HETATM   12  N   UNL     1     -41.626  53.851 -51.461  1.00  0.00    -0.287 NA
HETATM   13  H   UNL     1     -42.155  53.006 -51.234  1.00  0.00     0.128 HD
BRANCH  12  14
HETATM   14  C   UNL     1     -40.203  53.587 -51.644  1.00  0.00     0.131 C 
BRANCH  14  15
HETATM   15  C   UNL     1     -39.981  52.133 -51.990  1.00  0.00    -0.045 A 
HETATM   16  C   UNL     1     -39.897  51.737 -53.334  1.00  0.00     0.008 A 
HETATM   17  C   UNL     1     -39.676  50.400 -53.667  1.00  0.00     0.001 A 
HETATM   18  C   UNL     1     -39.541  49.446 -52.661  1.00  0.00     0.000 A 
HETATM   19  C   UNL     1     -39.636  49.826 -51.323  1.00  0.00     0.001 A 
HETATM   20  C   UNL     1     -39.861  51.162 -50.987  1.00  0.00     0.008 A 
ENDBRANCH  14  15
ENDBRANCH  12  14
ENDBRANCH   8  12
ENDBRANCH   1   5
BRANCH   2  21
HETATM   21  C   UNL     1     -44.867  58.143 -57.432  1.00  0.00     0.032 A 
HETATM   22  C   UNL     1     -44.554  58.877 -58.581  1.00  0.00     0.017 A 
HETATM   23  C   UNL     1     -45.572  59.453 -59.350  1.00  0.00     0.008 A 
HETATM   24  C   UNL     1     -46.916  59.318 -58.979  1.00  0.00    -0.057 A 
HETATM   25  C   UNL     1     -47.221  58.630 -57.799  1.00  0.00     0.008 A 
HETATM   26  C   UNL     1     -46.208  58.044 -57.036  1.00  0.00     0.017 A 
BRANCH  24  27
HETATM   27  C   UNL     1     -48.019  59.900 -59.835  1.00  0.00     0.053 C 
BRANCH  27  28
HETATM   28  C   UNL     1     -47.958  59.554 -61.330  1.00  0.00     0.091 C 
HETATM   29  C   UNL     1     -49.195  60.007 -62.063  1.00  0.00     0.229 C 
HETATM   30  O   UNL     1     -49.572  61.162 -62.176  1.00  0.00    -0.273 OA
HETATM   31  N   UNL     1     -49.848  58.919 -62.541  1.00  0.00    -0.297 N 
HETATM   32  C   UNL     1     -49.208  57.753 -62.281  1.00  0.00     0.225 C 
HETATM   33  H   UNL     1     -50.742  58.969 -63.003  1.00  0.00     0.171 HD
HETATM   34  O   UNL     1     -49.620  56.639 -62.557  1.00  0.00    -0.273 OA
HETATM   35  C   UNL     1     -47.880  58.060 -61.650  1.00  0.00     0.117 C 
ENDBRANCH  27  28
ENDBRANCH  24  27
ENDBRANCH   2  21
TORSDOF 7
ENDMDL
MODEL 10
REMARK VINA RESULT:      -7.9      2.770      3.658
REMARK  7 active torsions:
REMARK  status: ('A' for Active; 'I' for Inactive)
REMARK    1  A    between atoms: C_4  and  C_5 
REMARK    2  A    between atoms: C_5  and  N_6 
REMARK    3  A    between atoms: N_6  and  C_7 
REMARK    4  A    between atoms: C_11  and  N_12 
REMARK       I    between atoms: N_12  and  C_13 
REMARK    5  A    between atoms: C_13  and  C_14 
REMARK    6  A    between atoms: C_17  and  C_18 
REMARK    7  A    between atoms: C_18  and  C_19 
ROOT
HETATM    1  N   UNL     1     -43.570  57.930 -52.942  1.00  0.00    -0.323 N 
HETATM    2  C   UNL     1     -42.228  57.619 -53.077  1.00  0.00     0.256 C 
HETATM    3  O   UNL     1     -41.301  58.421 -53.068  1.00  0.00    -0.267 OA
HETATM    4  H   UNL     1     -44.233  57.169 -52.971  1.00  0.00     0.169 HD
ENDROOT
BRANCH   1   5
HETATM    5  C   UNL     1     -44.149  59.216 -52.874  1.00  0.00     0.036 A 
HETATM    6  C   UNL     1     -44.714  59.884 -53.958  1.00  0.00     0.055 A 
HETATM    7  C   UNL     1     -45.345  61.121 -53.771  1.00  0.00     0.057 A 
HETATM    8  C   UNL     1     -45.439  61.718 -52.497  1.00  0.00     0.030 A 
HETATM    9 CL   UNL     1     -46.080  61.880 -55.146  1.00  0.00    -0.082 Cl
HETATM   10  C   UNL     1     -44.798  61.071 -51.435  1.00  0.00     0.027 A 
HETATM   11  C   UNL     1     -44.179  59.830 -51.616  1.00  0.00     0.031 A 
BRANCH   8  12
HETATM   12  N   UNL     1     -46.081  62.960 -52.322  1.00  0.00    -0.287 NA
HETATM   13  H   UNL     1     -46.235  63.411 -53.227  1.00  0.00     0.128 HD
BRANCH  12  14
HETATM   14  C   UNL     1     -47.272  62.977 -51.480  1.00  0.00     0.131 C 
BRANCH  14  15
HETATM   15  C   UNL     1     -48.513  63.107 -52.331  1.00  0.00    -0.045 A 
HETATM   16  C   UNL     1     -49.093  64.369 -52.537  1.00  0.00     0.008 A 
HETATM   17  C   UNL     1     -50.229  64.506 -53.335  1.00  0.00     0.001 A 
HETATM   18  C   UNL     1     -50.799  63.384 -53.932  1.00  0.00     0.000 A 
HETATM   19  C   UNL     1     -50.240  62.124 -53.725  1.00  0.00     0.001 A 
HETATM   20  C   UNL     1     -49.105  61.983 -52.923  1.00  0.00     0.008 A 
ENDBRANCH  14  15
ENDBRANCH  12  14
ENDBRANCH   8  12
ENDBRANCH   1   5
BRANCH   2  21
HETATM   21  C   UNL     1     -41.909  56.170 -53.297  1.00  0.00     0.032 A 
HETATM   22  C   UNL     1     -42.571  55.125 -52.642  1.00  0.00     0.017 A 
HETATM   23  C   UNL     1     -42.264  53.793 -52.946  1.00  0.00     0.008 A 
HETATM   24  C   UNL     1     -41.282  53.483 -53.896  1.00  0.00    -0.057 A 
HETATM   25  C   UNL     1     -40.583  54.529 -54.508  1.00  0.00     0.008 A 
HETATM   26  C   UNL     1     -40.897  55.859 -54.215  1.00  0.00     0.017 A 
BRANCH  24  27
HETATM   27  C   UNL     1     -40.983  52.044 -54.258  1.00  0.00     0.053 C 
BRANCH  27  28
HETATM   28  C   UNL     1     -39.679  51.468 -53.687  1.00  0.00     0.091 C 
HETATM   29  C   UNL     1     -39.604  49.972 -53.857  1.00  0.00     0.229 C 
HETATM   30  O   UNL     1     -39.595  49.376 -54.922  1.00  0.00    -0.273 OA
HETATM   31  N   UNL     1     -39.590  49.390 -52.632  1.00  0.00    -0.297 N 
HETATM   32  C   UNL     1     -39.601  50.283 -51.614  1.00  0.00     0.225 C 
HETATM   33  H   UNL     1     -39.618  48.392 -52.494  1.00  0.00     0.171 HD
HETATM   34  O   UNL     1     -39.649  50.009 -50.427  1.00  0.00    -0.273 OA
HETATM   35  C   UNL     1     -39.482  51.667 -52.184  1.00  0.00     0.117 C 
ENDBRANCH  27  28
ENDBRANCH  24  27
ENDBRANCH   2  21
TORSDOF 7
ENDMDL
