MODEL 1
REMARK VINA RESULT:      -8.2      0.000      0.000
REMARK  6 active torsions:
REMARK  status: ('A' for Active; 'I' for Inactive)
REMARK    1  A    between atoms: C_4  and  C_5 
REMARK    2  A    between atoms: C_5  and  C_6 
REMARK    3  A    between atoms: C_8  and  C_9 
REMARK    4  A    between atoms: C_9  and  C_10 
REMARK       I    between atoms: C_10  and  N_11 
REMARK    5  A    between atoms: N_11  and  N_12 
REMARK       I    between atoms: N_12  and  C_13 
REMARK       I    between atoms: C_13  and  N_14 
REMARK    6  A    between atoms: N_14  and  C_15 
ROOT
HETATM    1  C   UNL     1     -40.767  52.605 -54.568  1.00  0.00     0.238 C 
HETATM    2  N   UNL     1     -40.127  53.608 -55.264  1.00  0.00    -0.266 N 
HETATM    3  O   UNL     1     -41.938  52.686 -54.206  1.00  0.00    -0.272 OA
HETATM    4  H   UNL     1     -39.129  53.613 -55.476  1.00  0.00     0.190 HD
ENDROOT
BRANCH   1   5
HETATM    5  C   UNL     1     -39.882  51.411 -54.317  1.00  0.00     0.139 C 
BRANCH   5   6
HETATM    6  C   UNL     1     -39.307  51.410 -52.902  1.00  0.00     0.185 C 
HETATM    7  N   UNL     1     -39.859  52.522 -52.131  1.00  0.00    -0.363 N 
HETATM    8  C   UNL     1     -40.109  52.361 -50.788  1.00  0.00     0.125 C 
HETATM    9  H   UNL     1     -39.486  53.430 -52.407  1.00  0.00     0.161 HD
HETATM   10  N   UNL     1     -40.186  51.212 -50.183  1.00  0.00    -0.159 NA
HETATM   11  N   UNL     1     -39.984  50.091 -50.928  1.00  0.00    -0.244 N 
HETATM   12  C   UNL     1     -39.608  50.059 -52.250  1.00  0.00     0.261 C 
HETATM   13  H   UNL     1     -40.145  49.204 -50.463  1.00  0.00     0.192 HD
HETATM   14  O   UNL     1     -39.477  48.988 -52.843  1.00  0.00    -0.269 OA
BRANCH   8  15
HETATM   15  C   UNL     1     -40.313  53.615 -49.943  1.00  0.00     0.118 C 
BRANCH  15  16
HETATM   16  C   UNL     1     -41.467  54.468 -50.412  1.00  0.00    -0.051 A 
HETATM   17  C   UNL     1     -42.596  53.874 -50.997  1.00  0.00     0.007 A 
HETATM   18  C   UNL     1     -43.686  54.655 -51.388  1.00  0.00     0.001 A 
HETATM   19  C   UNL     1     -43.663  56.035 -51.197  1.00  0.00     0.000 A 
HETATM   20  C   UNL     1     -42.551  56.636 -50.609  1.00  0.00     0.001 A 
HETATM   21  C   UNL     1     -41.464  55.857 -50.213  1.00  0.00     0.007 A 
ENDBRANCH  15  16
ENDBRANCH   8  15
ENDBRANCH   5   6
ENDBRANCH   1   5
BRANCH   2  22
HETATM   22  N   UNL     1     -40.831  54.787 -55.554  1.00  0.00    -0.249 N 
HETATM   23  C   UNL     1     -41.005  55.680 -54.506  1.00  0.00     0.339 C 
HETATM   24  N   UNL     1     -41.761  56.766 -54.886  1.00  0.00    -0.308 N 
HETATM   25  O   UNL     1     -40.485  55.486 -53.412  1.00  0.00    -0.245 OA
HETATM   26  H   UNL     1     -41.976  56.820 -55.872  1.00  0.00     0.170 HD
HETATM   27  H   UNL     1     -41.555  54.685 -56.260  1.00  0.00     0.192 HD
BRANCH  24  28
HETATM   28  C   UNL     1     -42.142  57.868 -54.093  1.00  0.00     0.038 A 
HETATM   29  C   UNL     1     -43.460  58.304 -53.942  1.00  0.00     0.055 A 
HETATM   30  C   UNL     1     -43.758  59.406 -53.128  1.00  0.00     0.058 A 
HETATM   31 CL   UNL     1     -45.416  59.879 -52.989  1.00  0.00    -0.082 Cl
HETATM   32  C   UNL     1     -42.734  60.082 -52.461  1.00  0.00     0.055 A 
HETATM   33 CL   UNL     1     -43.026  61.444 -51.440  1.00  0.00    -0.083 Cl
HETATM   34  C   UNL     1     -41.413  59.656 -52.616  1.00  0.00     0.028 A 
HETATM   35  C   UNL     1     -41.120  58.557 -53.428  1.00  0.00     0.031 A 
ENDBRANCH  24  28
ENDBRANCH   2  22
TORSDOF 6
ENDMDL
MODEL 2
REMARK VINA RESULT:      -8.2      5.278      7.135
REMARK  6 active torsions:
REMARK  status: ('A' for Active; 'I' for Inactive)
REMARK    1  A    between atoms: C_4  and  C_5 
REMARK    2  A    between atoms: C_5  and  C_6 
REMARK    3  A    between atoms: C_8  and  C_9 
REMARK    4  A    between atoms: C_9  and  C_10 
REMARK       I    between atoms: C_10  and  N_11 
REMARK    5  A    between atoms: N_11  and  N_12 
REMARK       I    between atoms: N_12  and  C_13 
REMARK       I    between atoms: C_13  and  N_14 
REMARK    6  A    between atoms: N_14  and  C_15 
ROOT
HETATM    1  C   UNL     1     -41.804  59.170 -54.092  1.00  0.00     0.238 C 
HETATM    2  N   UNL     1     -42.447  59.510 -55.263  1.00  0.00    -0.266 N 
HETATM    3  O   UNL     1     -40.966  59.892 -53.556  1.00  0.00    -0.272 OA
HETATM    4  H   UNL     1     -43.059  58.881 -55.784  1.00  0.00     0.190 HD
ENDROOT
BRANCH   1   5
HETATM    5  C   UNL     1     -42.248  57.837 -53.546  1.00  0.00     0.139 C 
BRANCH   5   6
HETATM    6  C   UNL     1     -42.402  56.789 -54.646  1.00  0.00     0.185 C 
HETATM    7  N   UNL     1     -41.335  55.794 -54.549  1.00  0.00    -0.363 N 
HETATM    8  C   UNL     1     -41.601  54.480 -54.856  1.00  0.00     0.125 C 
HETATM    9  H   UNL     1     -40.426  56.145 -54.850  1.00  0.00     0.161 HD
HETATM   10  N   UNL     1     -42.794  53.966 -54.939  1.00  0.00    -0.159 NA
HETATM   11  N   UNL     1     -43.854  54.794 -54.727  1.00  0.00    -0.244 N 
HETATM   12  C   UNL     1     -43.788  56.152 -54.527  1.00  0.00     0.261 C 
HETATM   13  H   UNL     1     -44.769  54.357 -54.698  1.00  0.00     0.192 HD
HETATM   14  O   UNL     1     -44.808  56.809 -54.317  1.00  0.00    -0.269 OA
BRANCH   8  15
HETATM   15  C   UNL     1     -40.418  53.553 -55.118  1.00  0.00     0.118 C 
BRANCH  15  16
HETATM   16  C   UNL     1     -40.185  52.556 -54.007  1.00  0.00    -0.051 A 
HETATM   17  C   UNL     1     -39.962  51.203 -54.304  1.00  0.00     0.007 A 
HETATM   18  C   UNL     1     -39.699  50.287 -53.283  1.00  0.00     0.001 A 
HETATM   19  C   UNL     1     -39.651  50.711 -51.957  1.00  0.00     0.000 A 
HETATM   20  C   UNL     1     -39.861  52.054 -51.650  1.00  0.00     0.001 A 
HETATM   21  C   UNL     1     -40.119  52.972 -52.669  1.00  0.00     0.007 A 
ENDBRANCH  15  16
ENDBRANCH   8  15
ENDBRANCH   5   6
ENDBRANCH   1   5
BRANCH   2  22
HETATM   22  N   UNL     1     -42.119  60.721 -55.890  1.00  0.00    -0.249 N 
HETATM   23  C   UNL     1     -41.730  60.647 -57.220  1.00  0.00     0.339 C 
HETATM   24  N   UNL     1     -41.370  61.881 -57.712  1.00  0.00    -0.308 N 
HETATM   25  O   UNL     1     -41.766  59.585 -57.834  1.00  0.00    -0.245 OA
HETATM   26  H   UNL     1     -41.546  62.661 -57.095  1.00  0.00     0.170 HD
HETATM   27  H   UNL     1     -41.700  61.415 -55.276  1.00  0.00     0.192 HD
BRANCH  24  28
HETATM   28  C   UNL     1     -40.923  62.190 -59.014  1.00  0.00     0.038 A 
HETATM   29  C   UNL     1     -41.597  61.817 -60.179  1.00  0.00     0.055 A 
HETATM   30  C   UNL     1     -41.091  62.169 -61.439  1.00  0.00     0.058 A 
HETATM   31 CL   UNL     1     -41.987  61.675 -62.833  1.00  0.00    -0.082 Cl
HETATM   32  C   UNL     1     -39.902  62.896 -61.538  1.00  0.00     0.055 A 
HETATM   33 CL   UNL     1     -39.221  63.368 -63.054  1.00  0.00    -0.083 Cl
HETATM   34  C   UNL     1     -39.221  63.264 -60.376  1.00  0.00     0.028 A 
HETATM   35  C   UNL     1     -39.728  62.911 -59.123  1.00  0.00     0.031 A 
ENDBRANCH  24  28
ENDBRANCH   2  22
TORSDOF 6
ENDMDL
MODEL 3
REMARK VINA RESULT:      -8.2      3.775      7.466
REMARK  6 active torsions:
REMARK  status: ('A' for Active; 'I' for Inactive)
REMARK    1  A    between atoms: C_4  and  C_5 
REMARK    2  A    between atoms: C_5  and  C_6 
REMARK    3  A    between atoms: C_8  and  C_9 
REMARK    4  A    between atoms: C_9  and  C_10 
REMARK       I    between atoms: C_10  and  N_11 
REMARK    5  A    between atoms: N_11  and  N_12 
REMARK       I    between atoms: N_12  and  C_13 
REMARK       I    between atoms: C_13  and  N_14 
REMARK    6  A    between atoms: N_14  and  C_15 
ROOT
HETATM    1  C   UNL     1     -43.143  57.429 -56.317  1.00  0.00     0.238 C 
HETATM    2  N   UNL     1     -42.970  56.094 -56.610  1.00  0.00    -0.266 N 
HETATM    3  O   UNL     1     -42.290  58.103 -55.743  1.00  0.00    -0.272 OA
HETATM    4  H   UNL     1     -43.703  55.488 -56.982  1.00  0.00     0.190 HD
ENDROOT
BRANCH   1   5
HETATM    5  C   UNL     1     -44.474  57.963 -56.782  1.00  0.00     0.139 C 
BRANCH   5   6
HETATM    6  C   UNL     1     -45.231  58.674 -55.663  1.00  0.00     0.185 C 
HETATM    7  N   UNL     1     -44.945  58.040 -54.377  1.00  0.00    -0.363 N 
HETATM    8  C   UNL     1     -44.861  58.813 -53.242  1.00  0.00     0.125 C 
HETATM    9  H   UNL     1     -45.397  57.133 -54.264  1.00  0.00     0.161 HD
HETATM   10  N   UNL     1     -44.712  60.105 -53.237  1.00  0.00    -0.159 NA
HETATM   11  N   UNL     1     -44.657  60.740 -54.439  1.00  0.00    -0.244 N 
HETATM   12  C   UNL     1     -44.840  60.154 -55.668  1.00  0.00     0.261 C 
HETATM   13  H   UNL     1     -44.441  61.731 -54.417  1.00  0.00     0.192 HD
HETATM   14  O   UNL     1     -44.742  60.814 -56.703  1.00  0.00    -0.269 OA
BRANCH   8  15
HETATM   15  C   UNL     1     -44.947  58.110 -51.891  1.00  0.00     0.118 C 
BRANCH  15  16
HETATM   16  C   UNL     1     -43.621  57.560 -51.420  1.00  0.00    -0.051 A 
HETATM   17  C   UNL     1     -42.496  58.393 -51.342  1.00  0.00     0.007 A 
HETATM   18  C   UNL     1     -41.280  57.901 -50.862  1.00  0.00     0.001 A 
HETATM   19  C   UNL     1     -41.175  56.573 -50.453  1.00  0.00     0.000 A 
HETATM   20  C   UNL     1     -42.288  55.737 -50.518  1.00  0.00     0.001 A 
HETATM   21  C   UNL     1     -43.505  56.229 -50.992  1.00  0.00     0.007 A 
ENDBRANCH  15  16
ENDBRANCH   8  15
ENDBRANCH   5   6
ENDBRANCH   1   5
BRANCH   2  22
HETATM   22  N   UNL     1     -41.779  55.462 -56.219  1.00  0.00    -0.249 N 
HETATM   23  C   UNL     1     -41.874  54.548 -55.180  1.00  0.00     0.339 C 
HETATM   24  N   UNL     1     -40.640  54.041 -54.838  1.00  0.00    -0.308 N 
HETATM   25  O   UNL     1     -42.960  54.243 -54.698  1.00  0.00    -0.245 OA
HETATM   26  H   UNL     1     -39.880  54.304 -55.448  1.00  0.00     0.170 HD
HETATM   27  H   UNL     1     -40.945  56.035 -56.319  1.00  0.00     0.192 HD
BRANCH  24  28
HETATM   28  C   UNL     1     -40.349  53.095 -53.833  1.00  0.00     0.038 A 
HETATM   29  C   UNL     1     -40.438  53.358 -52.464  1.00  0.00     0.055 A 
HETATM   30  C   UNL     1     -40.138  52.361 -51.525  1.00  0.00     0.058 A 
HETATM   31 CL   UNL     1     -40.278  52.764 -49.849  1.00  0.00    -0.082 Cl
HETATM   32  C   UNL     1     -39.742  51.092 -51.954  1.00  0.00     0.055 A 
HETATM   33 CL   UNL     1     -39.359  49.814 -50.857  1.00  0.00    -0.083 Cl
HETATM   34  C   UNL     1     -39.642  50.826 -53.321  1.00  0.00     0.028 A 
HETATM   35  C   UNL     1     -39.943  51.823 -54.253  1.00  0.00     0.031 A 
ENDBRANCH  24  28
ENDBRANCH   2  22
TORSDOF 6
ENDMDL
MODEL 4
REMARK VINA RESULT:      -8.1      5.939      9.708
REMARK  6 active torsions:
REMARK  status: ('A' for Active; 'I' for Inactive)
REMARK    1  A    between atoms: C_4  and  C_5 
REMARK    2  A    between atoms: C_5  and  C_6 
REMARK    3  A    between atoms: C_8  and  C_9 
REMARK    4  A    between atoms: C_9  and  C_10 
REMARK       I    between atoms: C_10  and  N_11 
REMARK    5  A    between atoms: N_11  and  N_12 
REMARK       I    between atoms: N_12  and  C_13 
REMARK       I    between atoms: C_13  and  N_14 
REMARK    6  A    between atoms: N_14  and  C_15 
ROOT
HETATM    1  C   UNL     1     -43.336  57.465 -57.300  1.00  0.00     0.238 C 
HETATM    2  N   UNL     1     -43.194  56.225 -56.715  1.00  0.00    -0.266 N 
HETATM    3  O   UNL     1     -42.588  58.409 -57.053  1.00  0.00    -0.272 OA
HETATM    4  H   UNL     1     -43.865  55.462 -56.816  1.00  0.00     0.190 HD
ENDROOT
BRANCH   1   5
HETATM    5  C   UNL     1     -44.487  57.526 -58.270  1.00  0.00     0.139 C 
BRANCH   5   6
HETATM    6  C   UNL     1     -44.035  57.915 -59.676  1.00  0.00     0.185 C 
HETATM    7  N   UNL     1     -43.746  59.346 -59.736  1.00  0.00    -0.363 N 
HETATM    8  C   UNL     1     -42.717  59.800 -60.529  1.00  0.00     0.125 C 
HETATM    9  H   UNL     1     -44.583  59.929 -59.719  1.00  0.00     0.161 HD
HETATM   10  N   UNL     1     -41.768  59.050 -61.008  1.00  0.00    -0.159 NA
HETATM   11  N   UNL     1     -41.807  57.720 -60.723  1.00  0.00    -0.244 N 
HETATM   12  C   UNL     1     -42.814  57.071 -60.050  1.00  0.00     0.261 C 
HETATM   13  H   UNL     1     -41.008  57.171 -61.020  1.00  0.00     0.192 HD
HETATM   14  O   UNL     1     -42.741  55.864 -59.818  1.00  0.00    -0.269 OA
BRANCH   8  15
HETATM   15  C   UNL     1     -42.681  61.286 -60.873  1.00  0.00     0.118 C 
BRANCH  15  16
HETATM   16  C   UNL     1     -41.405  61.967 -60.435  1.00  0.00    -0.051 A 
HETATM   17  C   UNL     1     -40.599  62.631 -61.371  1.00  0.00     0.007 A 
HETATM   18  C   UNL     1     -39.445  63.303 -60.963  1.00  0.00     0.001 A 
HETATM   19  C   UNL     1     -39.085  63.323 -59.617  1.00  0.00     0.000 A 
HETATM   20  C   UNL     1     -39.883  62.675 -58.676  1.00  0.00     0.001 A 
HETATM   21  C   UNL     1     -41.040  62.008 -59.081  1.00  0.00     0.007 A 
ENDBRANCH  15  16
ENDBRANCH   8  15
ENDBRANCH   5   6
ENDBRANCH   1   5
BRANCH   2  22
HETATM   22  N   UNL     1     -42.169  56.030 -55.777  1.00  0.00    -0.249 N 
HETATM   23  C   UNL     1     -42.020  54.745 -55.277  1.00  0.00     0.339 C 
HETATM   24  N   UNL     1     -41.031  54.684 -54.321  1.00  0.00    -0.308 N 
HETATM   25  O   UNL     1     -42.692  53.813 -55.709  1.00  0.00    -0.245 OA
HETATM   26  H   UNL     1     -40.489  55.528 -54.206  1.00  0.00     0.170 HD
HETATM   27  H   UNL     1     -41.984  56.833 -55.180  1.00  0.00     0.192 HD
BRANCH  24  28
HETATM   28  C   UNL     1     -40.604  53.551 -53.598  1.00  0.00     0.038 A 
HETATM   29  C   UNL     1     -40.211  52.349 -54.190  1.00  0.00     0.055 A 
HETATM   30  C   UNL     1     -39.791  51.269 -53.401  1.00  0.00     0.058 A 
HETATM   31 CL   UNL     1     -39.316  49.816 -54.211  1.00  0.00    -0.082 Cl
HETATM   32  C   UNL     1     -39.766  51.387 -52.009  1.00  0.00     0.055 A 
HETATM   33 CL   UNL     1     -39.258  50.100 -50.973  1.00  0.00    -0.083 Cl
HETATM   34  C   UNL     1     -40.165  52.583 -51.411  1.00  0.00     0.028 A 
HETATM   35  C   UNL     1     -40.583  53.657 -52.202  1.00  0.00     0.031 A 
ENDBRANCH  24  28
ENDBRANCH   2  22
TORSDOF 6
ENDMDL
MODEL 5
REMARK VINA RESULT:      -8.1      4.216      5.829
REMARK  6 active torsions:
REMARK  status: ('A' for Active; 'I' for Inactive)
REMARK    1  A    between atoms: C_4  and  C_5 
REMARK    2  A    between atoms: C_5  and  C_6 
REMARK    3  A    between atoms: C_8  and  C_9 
REMARK    4  A    between atoms: C_9  and  C_10 
REMARK       I    between atoms: C_10  and  N_11 
REMARK    5  A    between atoms: N_11  and  N_12 
REMARK       I    between atoms: N_12  and  C_13 
REMARK       I    between atoms: C_13  and  N_14 
REMARK    6  A    between atoms: N_14  and  C_15 
ROOT
HETATM    1  C   UNL     1     -42.740  54.667 -55.216  1.00  0.00     0.238 C 
HETATM    2  N   UNL     1     -43.292  55.542 -56.127  1.00  0.00    -0.266 N 
HETATM    3  O   UNL     1     -41.561  54.323 -55.251  1.00  0.00    -0.272 OA
HETATM    4  H   UNL     1     -44.289  55.755 -56.188  1.00  0.00     0.190 HD
ENDROOT
BRANCH   1   5
HETATM    5  C   UNL     1     -43.731  54.195 -54.183  1.00  0.00     0.139 C 
BRANCH   5   6
HETATM    6  C   UNL     1     -43.244  54.455 -52.759  1.00  0.00     0.185 C 
HETATM    7  N   UNL     1     -42.004  53.723 -52.509  1.00  0.00    -0.363 N 
HETATM    8  C   UNL     1     -41.035  54.282 -51.708  1.00  0.00     0.125 C 
HETATM    9  H   UNL     1     -42.142  52.718 -52.402  1.00  0.00     0.161 HD
HETATM   10  N   UNL     1     -40.977  55.541 -51.386  1.00  0.00    -0.159 NA
HETATM   11  N   UNL     1     -41.958  56.359 -51.857  1.00  0.00    -0.244 N 
HETATM   12  C   UNL     1     -43.065  55.962 -52.568  1.00  0.00     0.261 C 
HETATM   13  H   UNL     1     -41.843  57.351 -51.680  1.00  0.00     0.192 HD
HETATM   14  O   UNL     1     -43.884  56.788 -52.974  1.00  0.00    -0.269 OA
BRANCH   8  15
HETATM   15  C   UNL     1     -39.946  53.366 -51.157  1.00  0.00     0.118 C 
BRANCH  15  16
HETATM   16  C   UNL     1     -39.861  52.041 -51.879  1.00  0.00    -0.051 A 
HETATM   17  C   UNL     1     -39.796  52.000 -53.279  1.00  0.00     0.007 A 
HETATM   18  C   UNL     1     -39.669  50.781 -53.948  1.00  0.00     0.001 A 
HETATM   19  C   UNL     1     -39.602  49.590 -53.227  1.00  0.00     0.000 A 
HETATM   20  C   UNL     1     -39.657  49.619 -51.835  1.00  0.00     0.001 A 
HETATM   21  C   UNL     1     -39.778  50.837 -51.164  1.00  0.00     0.007 A 
ENDBRANCH  15  16
ENDBRANCH   8  15
ENDBRANCH   5   6
ENDBRANCH   1   5
BRANCH   2  22
HETATM   22  N   UNL     1     -42.484  56.049 -57.156  1.00  0.00    -0.249 N 
HETATM   23  C   UNL     1     -42.689  57.375 -57.511  1.00  0.00     0.339 C 
HETATM   24  N   UNL     1     -41.890  57.745 -58.569  1.00  0.00    -0.308 N 
HETATM   25  O   UNL     1     -43.471  58.086 -56.888  1.00  0.00    -0.245 OA
HETATM   26  H   UNL     1     -41.204  57.061 -58.854  1.00  0.00     0.170 HD
HETATM   27  H   UNL     1     -42.224  55.368 -57.864  1.00  0.00     0.192 HD
BRANCH  24  28
HETATM   28  C   UNL     1     -41.827  59.006 -59.198  1.00  0.00     0.038 A 
HETATM   29  C   UNL     1     -41.541  60.199 -58.529  1.00  0.00     0.055 A 
HETATM   30  C   UNL     1     -41.490  61.413 -59.227  1.00  0.00     0.058 A 
HETATM   31 CL   UNL     1     -41.124  62.845 -58.328  1.00  0.00    -0.082 Cl
HETATM   32  C   UNL     1     -41.728  61.441 -60.604  1.00  0.00     0.055 A 
HETATM   33 CL   UNL     1     -41.678  62.898 -61.530  1.00  0.00    -0.083 Cl
HETATM   34  C   UNL     1     -42.023  60.253 -61.275  1.00  0.00     0.028 A 
HETATM   35  C   UNL     1     -42.073  59.045 -60.575  1.00  0.00     0.031 A 
ENDBRANCH  24  28
ENDBRANCH   2  22
TORSDOF 6
ENDMDL
MODEL 6
REMARK VINA RESULT:      -8.1      4.298      8.343
REMARK  6 active torsions:
REMARK  status: ('A' for Active; 'I' for Inactive)
REMARK    1  A    between atoms: C_4  and  C_5 
REMARK    2  A    between atoms: C_5  and  C_6 
REMARK    3  A    between atoms: C_8  and  C_9 
REMARK    4  A    between atoms: C_9  and  C_10 
REMARK       I    between atoms: C_10  and  N_11 
REMARK    5  A    between atoms: N_11  and  N_12 
REMARK       I    between atoms: N_12  and  C_13 
REMARK       I    between atoms: C_13  and  N_14 
REMARK    6  A    between atoms: N_14  and  C_15 
ROOT
HETATM    1  C   UNL     1     -42.555  59.033 -51.077  1.00  0.00     0.238 C 
HETATM    2  N   UNL     1     -42.863  57.735 -50.731  1.00  0.00    -0.266 N 
HETATM    3  O   UNL     1     -41.404  59.416 -51.275  1.00  0.00    -0.272 OA
HETATM    4  H   UNL     1     -43.793  57.420 -50.453  1.00  0.00     0.190 HD
ENDROOT
BRANCH   1   5
HETATM    5  C   UNL     1     -43.773  59.912 -51.195  1.00  0.00     0.139 C 
BRANCH   5   6
HETATM    6  C   UNL     1     -43.980  60.420 -52.620  1.00  0.00     0.185 C 
HETATM    7  N   UNL     1     -43.050  59.757 -53.532  1.00  0.00    -0.363 N 
HETATM    8  C   UNL     1     -43.452  59.458 -54.814  1.00  0.00     0.125 C 
HETATM    9  H   UNL     1     -42.087  60.079 -53.433  1.00  0.00     0.161 HD
HETATM   10  N   UNL     1     -44.690  59.433 -55.214  1.00  0.00    -0.159 NA
HETATM   11  N   UNL     1     -45.654  59.747 -54.306  1.00  0.00    -0.244 N 
HETATM   12  C   UNL     1     -45.437  60.183 -53.021  1.00  0.00     0.261 C 
HETATM   13  H   UNL     1     -46.614  59.626 -54.607  1.00  0.00     0.192 HD
HETATM   14  O   UNL     1     -46.382  60.415 -52.266  1.00  0.00    -0.269 OA
BRANCH   8  15
HETATM   15  C   UNL     1     -42.374  59.129 -55.843  1.00  0.00     0.118 C 
BRANCH  15  16
HETATM   16  C   UNL     1     -42.575  57.787 -56.507  1.00  0.00    -0.051 A 
HETATM   17  C   UNL     1     -42.449  56.604 -55.765  1.00  0.00     0.007 A 
HETATM   18  C   UNL     1     -42.680  55.363 -56.363  1.00  0.00     0.001 A 
HETATM   19  C   UNL     1     -43.043  55.290 -57.706  1.00  0.00     0.000 A 
HETATM   20  C   UNL     1     -43.180  56.460 -58.452  1.00  0.00     0.001 A 
HETATM   21  C   UNL     1     -42.954  57.700 -57.854  1.00  0.00     0.007 A 
ENDBRANCH  15  16
ENDBRANCH   8  15
ENDBRANCH   5   6
ENDBRANCH   1   5
BRANCH   2  22
HETATM   22  N   UNL     1     -41.820  56.810 -50.571  1.00  0.00    -0.249 N 
HETATM   23  C   UNL     1     -41.799  55.739 -51.454  1.00  0.00     0.339 C 
HETATM   24  N   UNL     1     -40.775  54.865 -51.165  1.00  0.00    -0.308 N 
HETATM   25  O   UNL     1     -42.597  55.665 -52.383  1.00  0.00    -0.245 OA
HETATM   26  H   UNL     1     -40.131  55.173 -50.451  1.00  0.00     0.170 HD
HETATM   27  H   UNL     1     -41.510  56.682 -49.611  1.00  0.00     0.192 HD
BRANCH  24  28
HETATM   28  C   UNL     1     -40.447  53.672 -51.843  1.00  0.00     0.038 A 
HETATM   29  C   UNL     1     -40.067  52.490 -51.204  1.00  0.00     0.055 A 
HETATM   30  C   UNL     1     -39.764  51.342 -51.949  1.00  0.00     0.058 A 
HETATM   31 CL   UNL     1     -39.307  49.917 -51.083  1.00  0.00    -0.082 Cl
HETATM   32  C   UNL     1     -39.836  51.373 -53.344  1.00  0.00     0.055 A 
HETATM   33 CL   UNL     1     -39.480  49.998 -54.327  1.00  0.00    -0.083 Cl
HETATM   34  C   UNL     1     -40.207  52.554 -53.988  1.00  0.00     0.028 A 
HETATM   35  C   UNL     1     -40.509  53.696 -53.241  1.00  0.00     0.031 A 
ENDBRANCH  24  28
ENDBRANCH   2  22
TORSDOF 6
ENDMDL
MODEL 7
REMARK VINA RESULT:      -7.8      4.246      7.833
REMARK  6 active torsions:
REMARK  status: ('A' for Active; 'I' for Inactive)
REMARK    1  A    between atoms: C_4  and  C_5 
REMARK    2  A    between atoms: C_5  and  C_6 
REMARK    3  A    between atoms: C_8  and  C_9 
REMARK    4  A    between atoms: C_9  and  C_10 
REMARK       I    between atoms: C_10  and  N_11 
REMARK    5  A    between atoms: N_11  and  N_12 
REMARK       I    between atoms: N_12  and  C_13 
REMARK       I    between atoms: C_13  and  N_14 
REMARK    6  A    between atoms: N_14  and  C_15 
ROOT
HETATM    1  C   UNL     1     -43.437  57.583 -57.294  1.00  0.00     0.238 C 
HETATM    2  N   UNL     1     -43.339  56.210 -57.220  1.00  0.00    -0.266 N 
HETATM    3  O   UNL     1     -42.493  58.333 -57.057  1.00  0.00    -0.272 OA
HETATM    4  H   UNL     1     -44.133  55.573 -57.301  1.00  0.00     0.190 HD
ENDROOT
BRANCH   1   5
HETATM    5  C   UNL     1     -44.810  58.051 -57.704  1.00  0.00     0.139 C 
BRANCH   5   6
HETATM    6  C   UNL     1     -45.656  58.471 -56.504  1.00  0.00     0.185 C 
HETATM    7  N   UNL     1     -45.009  58.058 -55.261  1.00  0.00    -0.363 N 
HETATM    8  C   UNL     1     -45.106  58.858 -54.145  1.00  0.00     0.125 C 
HETATM    9  H   UNL     1     -45.060  57.054 -55.092  1.00  0.00     0.161 HD
HETATM   10  N   UNL     1     -45.467  60.108 -54.161  1.00  0.00    -0.159 NA
HETATM   11  N   UNL     1     -45.793  60.656 -55.363  1.00  0.00    -0.244 N 
HETATM   12  C   UNL     1     -45.870  59.985 -56.560  1.00  0.00     0.261 C 
HETATM   13  H   UNL     1     -45.976  61.654 -55.370  1.00  0.00     0.192 HD
HETATM   14  O   UNL     1     -46.148  60.582 -57.601  1.00  0.00    -0.269 OA
BRANCH   8  15
HETATM   15  C   UNL     1     -44.765  58.242 -52.792  1.00  0.00     0.118 C 
BRANCH  15  16
HETATM   16  C   UNL     1     -43.296  58.326 -52.452  1.00  0.00    -0.051 A 
HETATM   17  C   UNL     1     -42.864  59.090 -51.358  1.00  0.00     0.007 A 
HETATM   18  C   UNL     1     -41.512  59.132 -51.011  1.00  0.00     0.001 A 
HETATM   19  C   UNL     1     -40.577  58.410 -51.750  1.00  0.00     0.000 A 
HETATM   20  C   UNL     1     -40.994  57.641 -52.834  1.00  0.00     0.001 A 
HETATM   21  C   UNL     1     -42.346  57.593 -53.178  1.00  0.00     0.007 A 
ENDBRANCH  15  16
ENDBRANCH   8  15
ENDBRANCH   5   6
ENDBRANCH   1   5
BRANCH   2  22
HETATM   22  N   UNL     1     -42.118  55.637 -56.834  1.00  0.00    -0.249 N 
HETATM   23  C   UNL     1     -42.162  54.727 -55.788  1.00  0.00     0.339 C 
HETATM   24  N   UNL     1     -40.904  54.279 -55.452  1.00  0.00    -0.308 N 
HETATM   25  O   UNL     1     -43.230  54.375 -55.296  1.00  0.00    -0.245 OA
HETATM   26  H   UNL     1     -40.161  54.573 -56.070  1.00  0.00     0.170 HD
HETATM   27  H   UNL     1     -41.311  56.247 -56.944  1.00  0.00     0.192 HD
BRANCH  24  28
HETATM   28  C   UNL     1     -40.562  53.355 -54.443  1.00  0.00     0.038 A 
HETATM   29  C   UNL     1     -40.226  52.021 -54.687  1.00  0.00     0.055 A 
HETATM   30  C   UNL     1     -39.890  51.166 -53.629  1.00  0.00     0.058 A 
HETATM   31 CL   UNL     1     -39.480  49.530 -54.014  1.00  0.00    -0.082 Cl
HETATM   32  C   UNL     1     -39.892  51.642 -52.315  1.00  0.00     0.055 A 
HETATM   33 CL   UNL     1     -39.486  50.647 -50.962  1.00  0.00    -0.083 Cl
HETATM   34  C   UNL     1     -40.235  52.971 -52.065  1.00  0.00     0.028 A 
HETATM   35  C   UNL     1     -40.570  53.821 -53.123  1.00  0.00     0.031 A 
ENDBRANCH  24  28
ENDBRANCH   2  22
TORSDOF 6
ENDMDL
MODEL 8
REMARK VINA RESULT:      -7.8     15.355     18.585
REMARK  6 active torsions:
REMARK  status: ('A' for Active; 'I' for Inactive)
REMARK    1  A    between atoms: C_4  and  C_5 
REMARK    2  A    between atoms: C_5  and  C_6 
REMARK    3  A    between atoms: C_8  and  C_9 
REMARK    4  A    between atoms: C_9  and  C_10 
REMARK       I    between atoms: C_10  and  N_11 
REMARK    5  A    between atoms: N_11  and  N_12 
REMARK       I    between atoms: N_12  and  C_13 
REMARK       I    between atoms: C_13  and  N_14 
REMARK    6  A    between atoms: N_14  and  C_15 
ROOT
HETATM    1  C   UNL     1     -34.173  40.476 -52.449  1.00  0.00     0.238 C 
HETATM    2  N   UNL     1     -32.806  40.639 -52.514  1.00  0.00    -0.266 N 
HETATM    3  O   UNL     1     -34.736  39.430 -52.763  1.00  0.00    -0.272 OA
HETATM    4  H   UNL     1     -32.326  41.529 -52.367  1.00  0.00     0.190 HD
ENDROOT
BRANCH   1   5
HETATM    5  C   UNL     1     -34.886  41.705 -51.946  1.00  0.00     0.139 C 
BRANCH   5   6
HETATM    6  C   UNL     1     -35.804  42.311 -53.005  1.00  0.00     0.185 C 
HETATM    7  N   UNL     1     -35.177  42.231 -54.323  1.00  0.00    -0.363 N 
HETATM    8  C   UNL     1     -35.956  42.006 -55.434  1.00  0.00     0.125 C 
HETATM    9  H   UNL     1     -34.408  42.890 -54.446  1.00  0.00     0.161 HD
HETATM   10  N   UNL     1     -37.175  41.554 -55.403  1.00  0.00    -0.159 NA
HETATM   11  N   UNL     1     -37.727  41.305 -54.184  1.00  0.00    -0.244 N 
HETATM   12  C   UNL     1     -37.147  41.579 -52.968  1.00  0.00     0.261 C 
HETATM   13  H   UNL     1     -38.638  40.861 -54.182  1.00  0.00     0.192 HD
HETATM   14  O   UNL     1     -37.720  41.289 -51.917  1.00  0.00    -0.269 OA
BRANCH   8  15
HETATM   15  C   UNL     1     -35.353  42.306 -56.803  1.00  0.00     0.118 C 
BRANCH  15  16
HETATM   16  C   UNL     1     -36.046  41.579 -57.931  1.00  0.00    -0.051 A 
HETATM   17  C   UNL     1     -36.883  42.276 -58.815  1.00  0.00     0.007 A 
HETATM   18  C   UNL     1     -37.488  41.617 -59.888  1.00  0.00     0.001 A 
HETATM   19  C   UNL     1     -37.261  40.258 -60.093  1.00  0.00     0.000 A 
HETATM   20  C   UNL     1     -36.424  39.556 -59.227  1.00  0.00     0.001 A 
HETATM   21  C   UNL     1     -35.815  40.214 -58.158  1.00  0.00     0.007 A 
ENDBRANCH  15  16
ENDBRANCH   8  15
ENDBRANCH   5   6
ENDBRANCH   1   5
BRANCH   2  22
HETATM   22  N   UNL     1     -32.017  39.577 -52.981  1.00  0.00    -0.249 N 
HETATM   23  C   UNL     1     -31.660  39.611 -54.321  1.00  0.00     0.339 C 
HETATM   24  N   UNL     1     -30.945  38.491 -54.684  1.00  0.00    -0.308 N 
HETATM   25  O   UNL     1     -31.942  40.572 -55.030  1.00  0.00    -0.245 OA
HETATM   26  H   UNL     1     -30.686  37.879 -53.923  1.00  0.00     0.170 HD
HETATM   27  H   UNL     1     -32.196  38.685 -52.525  1.00  0.00     0.192 HD
BRANCH  24  28
HETATM   28  C   UNL     1     -30.420  38.182 -55.955  1.00  0.00     0.038 A 
HETATM   29  C   UNL     1     -31.197  37.790 -57.047  1.00  0.00     0.055 A 
HETATM   30  C   UNL     1     -30.600  37.507 -58.283  1.00  0.00     0.058 A 
HETATM   31 CL   UNL     1     -31.632  37.033 -59.588  1.00  0.00    -0.082 Cl
HETATM   32  C   UNL     1     -29.214  37.610 -58.432  1.00  0.00     0.055 A 
HETATM   33 CL   UNL     1     -28.408  37.280 -59.924  1.00  0.00    -0.083 Cl
HETATM   34  C   UNL     1     -28.431  37.993 -57.341  1.00  0.00     0.028 A 
HETATM   35  C   UNL     1     -29.031  38.275 -56.111  1.00  0.00     0.031 A 
ENDBRANCH  24  28
ENDBRANCH   2  22
TORSDOF 6
ENDMDL
MODEL 9
REMARK VINA RESULT:      -7.8      7.511     10.181
REMARK  6 active torsions:
REMARK  status: ('A' for Active; 'I' for Inactive)
REMARK    1  A    between atoms: C_4  and  C_5 
REMARK    2  A    between atoms: C_5  and  C_6 
REMARK    3  A    between atoms: C_8  and  C_9 
REMARK    4  A    between atoms: C_9  and  C_10 
REMARK       I    between atoms: C_10  and  N_11 
REMARK    5  A    between atoms: N_11  and  N_12 
REMARK       I    between atoms: N_12  and  C_13 
REMARK       I    between atoms: C_13  and  N_14 
REMARK    6  A    between atoms: N_14  and  C_15 
ROOT
HETATM    1  C   UNL     1     -43.661  60.879 -50.037  1.00  0.00     0.238 C 
HETATM    2  N   UNL     1     -43.694  59.548 -50.391  1.00  0.00    -0.266 N 
HETATM    3  O   UNL     1     -42.701  61.609 -50.272  1.00  0.00    -0.272 OA
HETATM    4  H   UNL     1     -44.428  58.897 -50.108  1.00  0.00     0.190 HD
ENDROOT
BRANCH   1   5
HETATM    5  C   UNL     1     -44.922  61.333 -49.347  1.00  0.00     0.139 C 
BRANCH   5   6
HETATM    6  C   UNL     1     -44.791  61.293 -47.826  1.00  0.00     0.185 C 
HETATM    7  N   UNL     1     -44.816  62.649 -47.281  1.00  0.00    -0.363 N 
HETATM    8  C   UNL     1     -45.422  62.883 -46.067  1.00  0.00     0.125 C 
HETATM    9  H   UNL     1     -43.959  63.172 -47.457  1.00  0.00     0.161 HD
HETATM   10  N   UNL     1     -46.248  62.065 -45.484  1.00  0.00    -0.159 NA
HETATM   11  N   UNL     1     -46.516  60.885 -46.107  1.00  0.00    -0.244 N 
HETATM   12  C   UNL     1     -45.919  60.429 -47.258  1.00  0.00     0.261 C 
HETATM   13  H   UNL     1     -47.235  60.306 -45.688  1.00  0.00     0.192 HD
HETATM   14  O   UNL     1     -46.253  59.355 -47.759  1.00  0.00    -0.269 OA
BRANCH   8  15
HETATM   15  C   UNL     1     -45.106  64.192 -45.351  1.00  0.00     0.118 C 
BRANCH  15  16
HETATM   16  C   UNL     1     -44.832  64.014 -43.876  1.00  0.00    -0.051 A 
HETATM   17  C   UNL     1     -43.664  63.367 -43.446  1.00  0.00     0.007 A 
HETATM   18  C   UNL     1     -43.383  63.242 -42.084  1.00  0.00     0.001 A 
HETATM   19  C   UNL     1     -44.262  63.765 -41.137  1.00  0.00     0.000 A 
HETATM   20  C   UNL     1     -45.421  64.417 -41.552  1.00  0.00     0.001 A 
HETATM   21  C   UNL     1     -45.701  64.548 -42.913  1.00  0.00     0.007 A 
ENDBRANCH  15  16
ENDBRANCH   8  15
ENDBRANCH   5   6
ENDBRANCH   1   5
BRANCH   2  22
HETATM   22  N   UNL     1     -42.577  58.987 -51.029  1.00  0.00    -0.249 N 
HETATM   23  C   UNL     1     -42.636  57.629 -51.305  1.00  0.00     0.339 C 
HETATM   24  N   UNL     1     -41.465  57.175 -51.870  1.00  0.00    -0.308 N 
HETATM   25  O   UNL     1     -43.654  56.979 -51.087  1.00  0.00    -0.245 OA
HETATM   26  H   UNL     1     -40.793  57.891 -52.106  1.00  0.00     0.170 HD
HETATM   27  H   UNL     1     -41.689  59.418 -50.782  1.00  0.00     0.192 HD
BRANCH  24  28
HETATM   28  C   UNL     1     -41.162  55.860 -52.280  1.00  0.00     0.038 A 
HETATM   29  C   UNL     1     -40.955  54.796 -51.399  1.00  0.00     0.055 A 
HETATM   30  C   UNL     1     -40.665  53.514 -51.886  1.00  0.00     0.058 A 
HETATM   31 CL   UNL     1     -40.426  52.249 -50.731  1.00  0.00    -0.082 Cl
HETATM   32  C   UNL     1     -40.576  53.291 -53.263  1.00  0.00     0.055 A 
HETATM   33 CL   UNL     1     -40.225  51.738 -53.935  1.00  0.00    -0.083 Cl
HETATM   34  C   UNL     1     -40.774  54.353 -54.147  1.00  0.00     0.028 A 
HETATM   35  C   UNL     1     -41.064  55.629 -53.657  1.00  0.00     0.031 A 
ENDBRANCH  24  28
ENDBRANCH   2  22
TORSDOF 6
ENDMDL
MODEL 10
REMARK VINA RESULT:      -7.7      2.863      3.510
REMARK  6 active torsions:
REMARK  status: ('A' for Active; 'I' for Inactive)
REMARK    1  A    between atoms: C_4  and  C_5 
REMARK    2  A    between atoms: C_5  and  C_6 
REMARK    3  A    between atoms: C_8  and  C_9 
REMARK    4  A    between atoms: C_9  and  C_10 
REMARK       I    between atoms: C_10  and  N_11 
REMARK    5  A    between atoms: N_11  and  N_12 
REMARK       I    between atoms: N_12  and  C_13 
REMARK       I    between atoms: C_13  and  N_14 
REMARK    6  A    between atoms: N_14  and  C_15 
ROOT
HETATM    1  C   UNL     1     -41.259  53.442 -54.534  1.00  0.00     0.238 C 
HETATM    2  N   UNL     1     -40.740  54.362 -55.419  1.00  0.00    -0.266 N 
HETATM    3  O   UNL     1     -42.194  53.695 -53.778  1.00  0.00    -0.272 OA
HETATM    4  H   UNL     1     -39.896  54.213 -55.973  1.00  0.00     0.190 HD
ENDROOT
BRANCH   1   5
HETATM    5  C   UNL     1     -40.565  52.105 -54.605  1.00  0.00     0.139 C 
BRANCH   5   6
HETATM    6  C   UNL     1     -39.696  51.843 -53.377  1.00  0.00     0.185 C 
HETATM    7  N   UNL     1     -40.216  52.575 -52.224  1.00  0.00    -0.363 N 
HETATM    8  C   UNL     1     -40.135  52.015 -50.970  1.00  0.00     0.125 C 
HETATM    9  H   UNL     1     -40.047  53.580 -52.273  1.00  0.00     0.161 HD
HETATM   10  N   UNL     1     -39.911  50.755 -50.736  1.00  0.00    -0.159 NA
HETATM   11  N   UNL     1     -39.721  49.937 -51.807  1.00  0.00    -0.244 N 
HETATM   12  C   UNL     1     -39.648  50.336 -53.121  1.00  0.00     0.261 C 
HETATM   13  H   UNL     1     -39.647  48.945 -51.611  1.00  0.00     0.192 HD
HETATM   14  O   UNL     1     -39.501  49.510 -54.023  1.00  0.00    -0.269 OA
BRANCH   8  15
HETATM   15  C   UNL     1     -40.323  52.931 -49.764  1.00  0.00     0.118 C 
BRANCH  15  16
HETATM   16  C   UNL     1     -41.086  54.194 -50.089  1.00  0.00    -0.051 A 
HETATM   17  C   UNL     1     -42.452  54.136 -50.399  1.00  0.00     0.007 A 
HETATM   18  C   UNL     1     -43.172  55.306 -50.653  1.00  0.00     0.001 A 
HETATM   19  C   UNL     1     -42.538  56.545 -50.595  1.00  0.00     0.000 A 
HETATM   20  C   UNL     1     -41.183  56.616 -50.279  1.00  0.00     0.001 A 
HETATM   21  C   UNL     1     -40.463  55.449 -50.020  1.00  0.00     0.007 A 
ENDBRANCH  15  16
ENDBRANCH   8  15
ENDBRANCH   5   6
ENDBRANCH   1   5
BRANCH   2  22
HETATM   22  N   UNL     1     -41.283  55.655 -55.448  1.00  0.00    -0.249 N 
HETATM   23  C   UNL     1     -42.359  55.858 -56.301  1.00  0.00     0.339 C 
HETATM   24  N   UNL     1     -42.768  57.173 -56.298  1.00  0.00    -0.308 N 
HETATM   25  O   UNL     1     -42.863  54.927 -56.921  1.00  0.00    -0.245 OA
HETATM   26  H   UNL     1     -42.322  57.763 -55.610  1.00  0.00     0.170 HD
HETATM   27  H   UNL     1     -40.609  56.401 -55.295  1.00  0.00     0.192 HD
BRANCH  24  28
HETATM   28  C   UNL     1     -43.823  57.746 -57.037  1.00  0.00     0.038 A 
HETATM   29  C   UNL     1     -43.712  58.158 -58.367  1.00  0.00     0.055 A 
HETATM   30  C   UNL     1     -44.812  58.713 -59.036  1.00  0.00     0.058 A 
HETATM   31 CL   UNL     1     -44.594  59.193 -60.683  1.00  0.00    -0.082 Cl
HETATM   32  C   UNL     1     -46.033  58.863 -58.372  1.00  0.00     0.055 A 
HETATM   33 CL   UNL     1     -47.431  59.536 -59.133  1.00  0.00    -0.083 Cl
HETATM   34  C   UNL     1     -46.147  58.461 -57.041  1.00  0.00     0.028 A 
HETATM   35  C   UNL     1     -45.048  57.908 -56.378  1.00  0.00     0.031 A 
ENDBRANCH  24  28
ENDBRANCH   2  22
TORSDOF 6
ENDMDL
