MODEL 1
REMARK VINA RESULT:      -8.3      0.000      0.000
REMARK  5 active torsions:
REMARK  status: ('A' for Active; 'I' for Inactive)
REMARK    1  A    between atoms: C_7  and  C_8 
REMARK    2  A    between atoms: C_11  and  N_12 
REMARK       I    between atoms: N_12  and  C_13 
REMARK    3  A    between atoms: C_13  and  C_14 
REMARK    4  A    between atoms: C_16  and  O_17 
REMARK    5  A    between atoms: C_20  and  O_21 
ROOT
HETATM    1  C   UNL     1     -41.959  56.402 -52.133  1.00  0.00     0.017 A 
HETATM    2  C   UNL     1     -41.315  57.310 -51.283  1.00  0.00     0.018 A 
HETATM    3  C   UNL     1     -41.955  58.483 -50.862  1.00  0.00     0.030 A 
HETATM    4  C   UNL     1     -43.256  58.769 -51.277  1.00  0.00     0.035 A 
HETATM    5  C   UNL     1     -43.886  57.891 -52.165  1.00  0.00     0.030 A 
HETATM    6  C   UNL     1     -43.245  56.722 -52.589  1.00  0.00     0.018 A 
ENDROOT
BRANCH   4   7
HETATM    7  N   UNL     1     -44.008  59.873 -50.822  1.00  0.00    -0.323 N 
HETATM    8  C   UNL     1     -45.264  59.844 -50.244  1.00  0.00     0.256 C 
HETATM    9  O   UNL     1     -45.915  58.856 -49.931  1.00  0.00    -0.267 OA
HETATM   10  H   UNL     1     -43.637  60.780 -51.072  1.00  0.00     0.169 HD
BRANCH   8  11
HETATM   11  C   UNL     1     -45.885  61.183 -50.061  1.00  0.00     0.037 A 
HETATM   12  C   UNL     1     -45.905  61.724 -48.772  1.00  0.00     0.054 A 
HETATM   13  C   UNL     1     -46.530  62.946 -48.530  1.00  0.00     0.071 A 
HETATM   14  C   UNL     1     -47.112  63.633 -49.595  1.00  0.00     0.073 A 
HETATM   15  C   UNL     1     -47.074  63.111 -50.896  1.00  0.00     0.071 A 
HETATM   16  C   UNL     1     -46.456  61.882 -51.132  1.00  0.00     0.054 A 
BRANCH  13  17
HETATM   17  O   UNL     1     -46.507  63.350 -47.225  1.00  0.00    -0.356 OA
HETATM   18  C   UNL     1     -46.909  62.398 -46.248  1.00  0.00     0.210 C 
ENDBRANCH  13  17
BRANCH  15  19
HETATM   19  O   UNL     1     -47.679  63.898 -51.838  1.00  0.00    -0.356 OA
HETATM   20  C   UNL     1     -49.077  63.721 -52.036  1.00  0.00     0.210 C 
ENDBRANCH  15  19
ENDBRANCH   8  11
ENDBRANCH   4   7
BRANCH   1  21
HETATM   21  C   UNL     1     -41.356  55.127 -52.512  1.00  0.00     0.180 A 
HETATM   22  O   UNL     1     -40.737  54.416 -51.513  1.00  0.00    -0.289 OA
HETATM   23  C   UNL     1     -40.369  53.251 -52.117  1.00  0.00     0.106 A 
HETATM   24  C   UNL     1     -40.763  53.316 -53.441  1.00  0.00     0.094 A 
HETATM   25  C   UNL     1     -39.730  52.166 -51.533  1.00  0.00     0.040 A 
HETATM   26  C   UNL     1     -40.514  52.221 -54.279  1.00  0.00     0.041 A 
HETATM   27  N   UNL     1     -41.379  54.517 -53.686  1.00  0.00    -0.221 NA
HETATM   28  C   UNL     1     -39.874  51.090 -53.735  1.00  0.00    -0.060 A 
HETATM   29  C   UNL     1     -39.611  49.884 -54.591  1.00  0.00     0.048 C 
HETATM   30  C   UNL     1     -39.492  51.075 -52.380  1.00  0.00     0.009 A 
ENDBRANCH   1  21
TORSDOF 5
ENDMDL
MODEL 2
REMARK VINA RESULT:      -8.2      0.445      2.196
REMARK  5 active torsions:
REMARK  status: ('A' for Active; 'I' for Inactive)
REMARK    1  A    between atoms: C_7  and  C_8 
REMARK    2  A    between atoms: C_11  and  N_12 
REMARK       I    between atoms: N_12  and  C_13 
REMARK    3  A    between atoms: C_13  and  C_14 
REMARK    4  A    between atoms: C_16  and  O_17 
REMARK    5  A    between atoms: C_20  and  O_21 
ROOT
HETATM    1  C   UNL     1     -41.994  56.357 -52.157  1.00  0.00     0.017 A 
HETATM    2  C   UNL     1     -41.349  57.289 -51.334  1.00  0.00     0.018 A 
HETATM    3  C   UNL     1     -41.998  58.462 -50.927  1.00  0.00     0.030 A 
HETATM    4  C   UNL     1     -43.308  58.724 -51.328  1.00  0.00     0.035 A 
HETATM    5  C   UNL     1     -43.940  57.821 -52.189  1.00  0.00     0.030 A 
HETATM    6  C   UNL     1     -43.291  56.651 -52.599  1.00  0.00     0.018 A 
ENDROOT
BRANCH   4   7
HETATM    7  N   UNL     1     -44.067  59.827 -50.883  1.00  0.00    -0.323 N 
HETATM    8  C   UNL     1     -45.313  59.795 -50.284  1.00  0.00     0.256 C 
HETATM    9  O   UNL     1     -45.945  58.804 -49.939  1.00  0.00    -0.267 OA
HETATM   10  H   UNL     1     -43.713  60.734 -51.159  1.00  0.00     0.169 HD
BRANCH   8  11
HETATM   11  C   UNL     1     -45.948  61.129 -50.119  1.00  0.00     0.037 A 
HETATM   12  C   UNL     1     -46.560  61.704 -51.237  1.00  0.00     0.054 A 
HETATM   13  C   UNL     1     -47.116  62.980 -51.158  1.00  0.00     0.071 A 
HETATM   14  C   UNL     1     -47.076  63.663 -49.942  1.00  0.00     0.073 A 
HETATM   15  C   UNL     1     -46.488  63.084 -48.809  1.00  0.00     0.071 A 
HETATM   16  C   UNL     1     -45.924  61.811 -48.895  1.00  0.00     0.054 A 
BRANCH  13  17
HETATM   17  O   UNL     1     -47.656  63.440 -52.326  1.00  0.00    -0.356 OA
HETATM   18  C   UNL     1     -49.071  63.576 -52.372  1.00  0.00     0.210 C 
ENDBRANCH  13  17
BRANCH  15  19
HETATM   19  O   UNL     1     -46.529  63.868 -47.689  1.00  0.00    -0.356 OA
HETATM   20  C   UNL     1     -47.794  64.056 -47.067  1.00  0.00     0.210 C 
ENDBRANCH  15  19
ENDBRANCH   8  11
ENDBRANCH   4   7
BRANCH   1  21
HETATM   21  C   UNL     1     -41.380  55.082 -52.519  1.00  0.00     0.180 A 
HETATM   22  O   UNL     1     -40.782  54.375 -51.506  1.00  0.00    -0.289 OA
HETATM   23  C   UNL     1     -40.399  53.208 -52.098  1.00  0.00     0.106 A 
HETATM   24  C   UNL     1     -40.765  53.270 -53.431  1.00  0.00     0.094 A 
HETATM   25  C   UNL     1     -39.770  52.127 -51.498  1.00  0.00     0.040 A 
HETATM   26  C   UNL     1     -40.495  52.173 -54.261  1.00  0.00     0.041 A 
HETATM   27  N   UNL     1     -41.378  54.469 -53.692  1.00  0.00    -0.221 NA
HETATM   28  C   UNL     1     -39.865  51.045 -53.701  1.00  0.00    -0.060 A 
HETATM   29  C   UNL     1     -39.581  49.837 -54.548  1.00  0.00     0.048 C 
HETATM   30  C   UNL     1     -39.512  51.034 -52.337  1.00  0.00     0.009 A 
ENDBRANCH   1  21
TORSDOF 5
ENDMDL
MODEL 3
REMARK VINA RESULT:      -8.2     19.657     22.108
REMARK  5 active torsions:
REMARK  status: ('A' for Active; 'I' for Inactive)
REMARK    1  A    between atoms: C_7  and  C_8 
REMARK    2  A    between atoms: C_11  and  N_12 
REMARK       I    between atoms: N_12  and  C_13 
REMARK    3  A    between atoms: C_13  and  C_14 
REMARK    4  A    between atoms: C_16  and  O_17 
REMARK    5  A    between atoms: C_20  and  O_21 
ROOT
HETATM    1  C   UNL     1     -33.931  40.782 -53.060  1.00  0.00     0.017 A 
HETATM    2  C   UNL     1     -32.623  40.286 -53.000  1.00  0.00     0.018 A 
HETATM    3  C   UNL     1     -31.979  40.095 -51.771  1.00  0.00     0.030 A 
HETATM    4  C   UNL     1     -32.634  40.390 -50.574  1.00  0.00     0.035 A 
HETATM    5  C   UNL     1     -33.922  40.931 -50.629  1.00  0.00     0.030 A 
HETATM    6  C   UNL     1     -34.564  41.125 -51.858  1.00  0.00     0.018 A 
ENDROOT
BRANCH   4   7
HETATM    7  N   UNL     1     -32.098  40.133 -49.295  1.00  0.00    -0.323 N 
HETATM    8  C   UNL     1     -31.928  38.899 -48.695  1.00  0.00     0.256 C 
HETATM    9  O   UNL     1     -32.117  37.798 -49.195  1.00  0.00    -0.267 OA
HETATM   10  H   UNL     1     -31.954  40.950 -48.716  1.00  0.00     0.169 HD
BRANCH   8  11
HETATM   11  C   UNL     1     -31.535  38.964 -47.262  1.00  0.00     0.037 A 
HETATM   12  C   UNL     1     -32.206  38.129 -46.362  1.00  0.00     0.054 A 
HETATM   13  C   UNL     1     -31.924  38.192 -44.999  1.00  0.00     0.071 A 
HETATM   14  C   UNL     1     -30.947  39.080 -44.547  1.00  0.00     0.073 A 
HETATM   15  C   UNL     1     -30.252  39.902 -45.445  1.00  0.00     0.071 A 
HETATM   16  C   UNL     1     -30.544  39.844 -46.808  1.00  0.00     0.054 A 
BRANCH  13  17
HETATM   17  O   UNL     1     -32.667  37.348 -44.223  1.00  0.00    -0.356 OA
HETATM   18  C   UNL     1     -34.077  37.374 -44.409  1.00  0.00     0.210 C 
ENDBRANCH  13  17
BRANCH  15  19
HETATM   19  O   UNL     1     -29.321  40.717 -44.860  1.00  0.00    -0.356 OA
HETATM   20  C   UNL     1     -28.960  40.434 -43.513  1.00  0.00     0.210 C 
ENDBRANCH  15  19
ENDBRANCH   8  11
ENDBRANCH   4   7
BRANCH   1  21
HETATM   21  C   UNL     1     -34.662  40.901 -54.319  1.00  0.00     0.180 A 
HETATM   22  O   UNL     1     -35.943  40.406 -54.338  1.00  0.00    -0.289 OA
HETATM   23  C   UNL     1     -36.408  40.741 -55.575  1.00  0.00     0.106 A 
HETATM   24  C   UNL     1     -35.394  41.401 -56.245  1.00  0.00     0.094 A 
HETATM   25  C   UNL     1     -37.672  40.496 -56.094  1.00  0.00     0.040 A 
HETATM   26  C   UNL     1     -35.631  41.871 -57.544  1.00  0.00     0.041 A 
HETATM   27  N   UNL     1     -34.284  41.488 -55.443  1.00  0.00    -0.221 NA
HETATM   28  C   UNL     1     -36.900  41.655 -58.116  1.00  0.00    -0.060 A 
HETATM   29  C   UNL     1     -37.205  42.164 -59.496  1.00  0.00     0.048 C 
HETATM   30  C   UNL     1     -37.898  40.976 -57.391  1.00  0.00     0.009 A 
ENDBRANCH   1  21
TORSDOF 5
ENDMDL
MODEL 4
REMARK VINA RESULT:      -7.8     19.663     22.129
REMARK  5 active torsions:
REMARK  status: ('A' for Active; 'I' for Inactive)
REMARK    1  A    between atoms: C_7  and  C_8 
REMARK    2  A    between atoms: C_11  and  N_12 
REMARK       I    between atoms: N_12  and  C_13 
REMARK    3  A    between atoms: C_13  and  C_14 
REMARK    4  A    between atoms: C_16  and  O_17 
REMARK    5  A    between atoms: C_20  and  O_21 
ROOT
HETATM    1  C   UNL     1     -34.158  40.771 -53.048  1.00  0.00     0.017 A 
HETATM    2  C   UNL     1     -32.787  40.508 -52.943  1.00  0.00     0.018 A 
HETATM    3  C   UNL     1     -32.185  40.304 -51.694  1.00  0.00     0.030 A 
HETATM    4  C   UNL     1     -32.944  40.352 -50.524  1.00  0.00     0.035 A 
HETATM    5  C   UNL     1     -34.305  40.663 -50.620  1.00  0.00     0.030 A 
HETATM    6  C   UNL     1     -34.905  40.870 -51.867  1.00  0.00     0.018 A 
ENDROOT
BRANCH   4   7
HETATM    7  N   UNL     1     -32.440  40.059 -49.240  1.00  0.00    -0.323 N 
HETATM    8  C   UNL     1     -32.063  38.820 -48.755  1.00  0.00     0.256 C 
HETATM    9  O   UNL     1     -32.004  37.767 -49.375  1.00  0.00    -0.267 OA
HETATM   10  H   UNL     1     -32.491  40.818 -48.573  1.00  0.00     0.169 HD
BRANCH   8  11
HETATM   11  C   UNL     1     -31.770  38.797 -47.297  1.00  0.00     0.037 A 
HETATM   12  C   UNL     1     -30.812  39.690 -46.808  1.00  0.00     0.054 A 
HETATM   13  C   UNL     1     -30.451  39.670 -45.462  1.00  0.00     0.071 A 
HETATM   14  C   UNL     1     -31.076  38.763 -44.606  1.00  0.00     0.073 A 
HETATM   15  C   UNL     1     -32.056  37.881 -45.082  1.00  0.00     0.071 A 
HETATM   16  C   UNL     1     -32.407  37.898 -46.432  1.00  0.00     0.054 A 
BRANCH  13  17
HETATM   17  O   UNL     1     -29.484  40.571 -45.117  1.00  0.00    -0.356 OA
HETATM   18  C   UNL     1     -28.996  40.513 -43.782  1.00  0.00     0.210 C 
ENDBRANCH  13  17
BRANCH  15  19
HETATM   19  O   UNL     1     -32.584  37.055 -44.127  1.00  0.00    -0.356 OA
HETATM   20  C   UNL     1     -34.000  37.028 -43.996  1.00  0.00     0.210 C 
ENDBRANCH  15  19
ENDBRANCH   8  11
ENDBRANCH   4   7
BRANCH   1  21
HETATM   21  C   UNL     1     -34.831  40.893 -54.339  1.00  0.00     0.180 A 
HETATM   22  O   UNL     1     -36.059  40.289 -54.454  1.00  0.00    -0.289 OA
HETATM   23  C   UNL     1     -36.488  40.648 -55.698  1.00  0.00     0.106 A 
HETATM   24  C   UNL     1     -35.504  41.430 -56.276  1.00  0.00     0.094 A 
HETATM   25  C   UNL     1     -37.695  40.320 -56.298  1.00  0.00     0.040 A 
HETATM   26  C   UNL     1     -35.715  41.946 -57.562  1.00  0.00     0.041 A 
HETATM   27  N   UNL     1     -34.450  41.571 -55.409  1.00  0.00    -0.221 NA
HETATM   28  C   UNL     1     -36.928  41.650 -58.215  1.00  0.00    -0.060 A 
HETATM   29  C   UNL     1     -37.207  42.204 -59.583  1.00  0.00     0.048 C 
HETATM   30  C   UNL     1     -37.896  40.847 -57.581  1.00  0.00     0.009 A 
ENDBRANCH   1  21
TORSDOF 5
ENDMDL
MODEL 5
REMARK VINA RESULT:      -7.7      1.502      3.169
REMARK  5 active torsions:
REMARK  status: ('A' for Active; 'I' for Inactive)
REMARK    1  A    between atoms: C_7  and  C_8 
REMARK    2  A    between atoms: C_11  and  N_12 
REMARK       I    between atoms: N_12  and  C_13 
REMARK    3  A    between atoms: C_13  and  C_14 
REMARK    4  A    between atoms: C_16  and  O_17 
REMARK    5  A    between atoms: C_20  and  O_21 
ROOT
HETATM    1  C   UNL     1     -43.382  57.439 -51.720  1.00  0.00     0.017 A 
HETATM    2  C   UNL     1     -42.698  58.660 -51.667  1.00  0.00     0.018 A 
HETATM    3  C   UNL     1     -43.349  59.835 -51.269  1.00  0.00     0.030 A 
HETATM    4  C   UNL     1     -44.697  59.812 -50.911  1.00  0.00     0.035 A 
HETATM    5  C   UNL     1     -45.398  58.606 -51.009  1.00  0.00     0.030 A 
HETATM    6  C   UNL     1     -44.748  57.433 -51.410  1.00  0.00     0.018 A 
ENDROOT
BRANCH   4   7
HETATM    7  N   UNL     1     -45.401  60.925 -50.404  1.00  0.00    -0.323 N 
HETATM    8  C   UNL     1     -45.317  61.454 -49.129  1.00  0.00     0.256 C 
HETATM    9  O   UNL     1     -44.550  61.121 -48.235  1.00  0.00    -0.267 OA
HETATM   10  H   UNL     1     -46.137  61.278 -51.001  1.00  0.00     0.169 HD
BRANCH   8  11
HETATM   11  C   UNL     1     -46.335  62.496 -48.830  1.00  0.00     0.037 A 
HETATM   12  C   UNL     1     -47.051  63.037 -49.903  1.00  0.00     0.054 A 
HETATM   13  C   UNL     1     -47.972  64.061 -49.690  1.00  0.00     0.071 A 
HETATM   14  C   UNL     1     -48.188  64.521 -48.391  1.00  0.00     0.073 A 
HETATM   15  C   UNL     1     -47.494  63.967 -47.306  1.00  0.00     0.071 A 
HETATM   16  C   UNL     1     -46.565  62.949 -47.525  1.00  0.00     0.054 A 
BRANCH  13  17
HETATM   17  O   UNL     1     -48.583  64.524 -50.821  1.00  0.00    -0.356 OA
HETATM   18  C   UNL     1     -49.487  63.640 -51.473  1.00  0.00     0.210 C 
ENDBRANCH  13  17
BRANCH  15  19
HETATM   19  O   UNL     1     -47.813  64.513 -46.093  1.00  0.00    -0.356 OA
HETATM   20  C   UNL     1     -47.722  63.669 -44.952  1.00  0.00     0.210 C 
ENDBRANCH  15  19
ENDBRANCH   8  11
ENDBRANCH   4   7
BRANCH   1  21
HETATM   21  C   UNL     1     -42.708  56.182 -52.038  1.00  0.00     0.180 A 
HETATM   22  O   UNL     1     -42.976  55.632 -53.267  1.00  0.00    -0.289 OA
HETATM   23  C   UNL     1     -42.149  54.550 -53.331  1.00  0.00     0.106 A 
HETATM   24  C   UNL     1     -41.440  54.488 -52.146  1.00  0.00     0.094 A 
HETATM   25  C   UNL     1     -42.007  53.662 -54.388  1.00  0.00     0.040 A 
HETATM   26  C   UNL     1     -40.499  53.464 -51.970  1.00  0.00     0.041 A 
HETATM   27  N   UNL     1     -41.810  55.523 -51.325  1.00  0.00    -0.221 NA
HETATM   28  C   UNL     1     -40.309  52.538 -53.015  1.00  0.00    -0.060 A 
HETATM   29  C   UNL     1     -39.293  51.440 -52.879  1.00  0.00     0.048 C 
HETATM   30  C   UNL     1     -41.059  52.646 -54.202  1.00  0.00     0.009 A 
ENDBRANCH   1  21
TORSDOF 5
ENDMDL
MODEL 6
REMARK VINA RESULT:      -7.4      6.742      8.563
REMARK  5 active torsions:
REMARK  status: ('A' for Active; 'I' for Inactive)
REMARK    1  A    between atoms: C_7  and  C_8 
REMARK    2  A    between atoms: C_11  and  N_12 
REMARK       I    between atoms: N_12  and  C_13 
REMARK    3  A    between atoms: C_13  and  C_14 
REMARK    4  A    between atoms: C_16  and  O_17 
REMARK    5  A    between atoms: C_20  and  O_21 
ROOT
HETATM    1  C   UNL     1     -41.948  55.218 -55.483  1.00  0.00     0.017 A 
HETATM    2  C   UNL     1     -42.710  54.740 -56.556  1.00  0.00     0.018 A 
HETATM    3  C   UNL     1     -43.181  55.608 -57.550  1.00  0.00     0.030 A 
HETATM    4  C   UNL     1     -42.893  56.972 -57.495  1.00  0.00     0.035 A 
HETATM    5  C   UNL     1     -42.174  57.463 -56.401  1.00  0.00     0.030 A 
HETATM    6  C   UNL     1     -41.707  56.597 -55.406  1.00  0.00     0.018 A 
ENDROOT
BRANCH   4   7
HETATM    7  N   UNL     1     -43.241  57.895 -58.503  1.00  0.00    -0.323 N 
HETATM    8  C   UNL     1     -42.793  57.909 -59.812  1.00  0.00     0.256 C 
HETATM    9  O   UNL     1     -42.092  57.072 -60.366  1.00  0.00    -0.267 OA
HETATM   10  H   UNL     1     -43.764  58.701 -58.188  1.00  0.00     0.169 HD
BRANCH   8  11
HETATM   11  C   UNL     1     -43.172  59.128 -60.576  1.00  0.00     0.037 A 
HETATM   12  C   UNL     1     -42.143  59.923 -61.090  1.00  0.00     0.054 A 
HETATM   13  C   UNL     1     -42.436  61.109 -61.759  1.00  0.00     0.071 A 
HETATM   14  C   UNL     1     -43.771  61.479 -61.931  1.00  0.00     0.073 A 
HETATM   15  C   UNL     1     -44.810  60.675 -61.442  1.00  0.00     0.071 A 
HETATM   16  C   UNL     1     -44.511  59.493 -60.763  1.00  0.00     0.054 A 
BRANCH  13  17
HETATM   17  O   UNL     1     -41.344  61.810 -62.186  1.00  0.00    -0.356 OA
HETATM   18  C   UNL     1     -40.637  62.561 -61.207  1.00  0.00     0.210 C 
ENDBRANCH  13  17
BRANCH  15  19
HETATM   19  O   UNL     1     -46.064  61.161 -61.690  1.00  0.00    -0.356 OA
HETATM   20  C   UNL     1     -47.094  60.213 -61.943  1.00  0.00     0.210 C 
ENDBRANCH  15  19
ENDBRANCH   8  11
ENDBRANCH   4   7
BRANCH   1  21
HETATM   21  C   UNL     1     -41.363  54.327 -54.485  1.00  0.00     0.180 A 
HETATM   22  O   UNL     1     -41.500  54.699 -53.170  1.00  0.00    -0.289 OA
HETATM   23  C   UNL     1     -40.967  53.654 -52.474  1.00  0.00     0.106 A 
HETATM   24  C   UNL     1     -40.523  52.718 -53.390  1.00  0.00     0.094 A 
HETATM   25  C   UNL     1     -40.885  53.516 -51.096  1.00  0.00     0.040 A 
HETATM   26  C   UNL     1     -39.946  51.530 -52.921  1.00  0.00     0.041 A 
HETATM   27  N   UNL     1     -40.769  53.158 -54.666  1.00  0.00    -0.221 NA
HETATM   28  C   UNL     1     -39.845  51.334 -51.530  1.00  0.00    -0.060 A 
HETATM   29  C   UNL     1     -39.257  50.064 -50.984  1.00  0.00     0.048 C 
HETATM   30  C   UNL     1     -40.311  52.321 -50.640  1.00  0.00     0.009 A 
ENDBRANCH   1  21
TORSDOF 5
ENDMDL
MODEL 7
REMARK VINA RESULT:      -7.4      6.647      8.564
REMARK  5 active torsions:
REMARK  status: ('A' for Active; 'I' for Inactive)
REMARK    1  A    between atoms: C_7  and  C_8 
REMARK    2  A    between atoms: C_11  and  N_12 
REMARK       I    between atoms: N_12  and  C_13 
REMARK    3  A    between atoms: C_13  and  C_14 
REMARK    4  A    between atoms: C_16  and  O_17 
REMARK    5  A    between atoms: C_20  and  O_21 
ROOT
HETATM    1  C   UNL     1     -41.892  55.185 -55.350  1.00  0.00     0.017 A 
HETATM    2  C   UNL     1     -42.667  54.721 -56.420  1.00  0.00     0.018 A 
HETATM    3  C   UNL     1     -43.121  55.596 -57.416  1.00  0.00     0.030 A 
HETATM    4  C   UNL     1     -42.804  56.954 -57.364  1.00  0.00     0.035 A 
HETATM    5  C   UNL     1     -42.072  57.431 -56.272  1.00  0.00     0.030 A 
HETATM    6  C   UNL     1     -41.622  56.558 -55.277  1.00  0.00     0.018 A 
ENDROOT
BRANCH   4   7
HETATM    7  N   UNL     1     -43.134  57.882 -58.374  1.00  0.00    -0.323 N 
HETATM    8  C   UNL     1     -42.716  57.864 -59.692  1.00  0.00     0.256 C 
HETATM    9  O   UNL     1     -42.066  56.992 -60.253  1.00  0.00    -0.267 OA
HETATM   10  H   UNL     1     -43.614  58.713 -58.055  1.00  0.00     0.169 HD
BRANCH   8  11
HETATM   11  C   UNL     1     -43.058  59.091 -60.460  1.00  0.00     0.037 A 
HETATM   12  C   UNL     1     -44.407  59.333 -60.737  1.00  0.00     0.054 A 
HETATM   13  C   UNL     1     -44.782  60.433 -61.507  1.00  0.00     0.071 A 
HETATM   14  C   UNL     1     -43.795  61.301 -61.976  1.00  0.00     0.073 A 
HETATM   15  C   UNL     1     -42.443  61.081 -61.680  1.00  0.00     0.071 A 
HETATM   16  C   UNL     1     -42.071  59.973 -60.918  1.00  0.00     0.054 A 
BRANCH  13  17
HETATM   17  O   UNL     1     -46.125  60.542 -61.732  1.00  0.00    -0.356 OA
HETATM   18  C   UNL     1     -46.986  59.850 -60.836  1.00  0.00     0.210 C 
ENDBRANCH  13  17
BRANCH  15  19
HETATM   19  O   UNL     1     -41.591  62.017 -62.201  1.00  0.00    -0.356 OA
HETATM   20  C   UNL     1     -40.517  62.453 -61.378  1.00  0.00     0.210 C 
ENDBRANCH  15  19
ENDBRANCH   8  11
ENDBRANCH   4   7
BRANCH   1  21
HETATM   21  C   UNL     1     -41.324  54.283 -54.351  1.00  0.00     0.180 A 
HETATM   22  O   UNL     1     -41.526  54.616 -53.034  1.00  0.00    -0.289 OA
HETATM   23  C   UNL     1     -40.993  53.568 -52.343  1.00  0.00     0.106 A 
HETATM   24  C   UNL     1     -40.487  52.668 -53.263  1.00  0.00     0.094 A 
HETATM   25  C   UNL     1     -40.965  53.396 -50.967  1.00  0.00     0.040 A 
HETATM   26  C   UNL     1     -39.896  51.484 -52.801  1.00  0.00     0.041 A 
HETATM   27  N   UNL     1     -40.692  53.136 -54.536  1.00  0.00    -0.221 NA
HETATM   28  C   UNL     1     -39.848  51.254 -51.412  1.00  0.00    -0.060 A 
HETATM   29  C   UNL     1     -39.248  49.987 -50.874  1.00  0.00     0.048 C 
HETATM   30  C   UNL     1     -40.378  52.205 -50.517  1.00  0.00     0.009 A 
ENDBRANCH   1  21
TORSDOF 5
ENDMDL
MODEL 8
REMARK VINA RESULT:      -7.3      2.224     10.940
REMARK  5 active torsions:
REMARK  status: ('A' for Active; 'I' for Inactive)
REMARK    1  A    between atoms: C_7  and  C_8 
REMARK    2  A    between atoms: C_11  and  N_12 
REMARK       I    between atoms: N_12  and  C_13 
REMARK    3  A    between atoms: C_13  and  C_14 
REMARK    4  A    between atoms: C_16  and  O_17 
REMARK    5  A    between atoms: C_20  and  O_21 
ROOT
HETATM    1  C   UNL     1     -44.866  60.217 -49.943  1.00  0.00     0.017 A 
HETATM    2  C   UNL     1     -45.716  59.181 -50.348  1.00  0.00     0.018 A 
HETATM    3  C   UNL     1     -45.265  58.174 -51.212  1.00  0.00     0.030 A 
HETATM    4  C   UNL     1     -43.953  58.180 -51.684  1.00  0.00     0.035 A 
HETATM    5  C   UNL     1     -43.114  59.239 -51.322  1.00  0.00     0.030 A 
HETATM    6  C   UNL     1     -43.565  60.246 -50.462  1.00  0.00     0.018 A 
ENDROOT
BRANCH   4   7
HETATM    7  N   UNL     1     -43.391  57.155 -52.473  1.00  0.00    -0.323 N 
HETATM    8  C   UNL     1     -42.860  55.958 -52.030  1.00  0.00     0.256 C 
HETATM    9  O   UNL     1     -42.866  55.521 -50.886  1.00  0.00    -0.267 OA
HETATM   10  H   UNL     1     -43.244  57.391 -53.446  1.00  0.00     0.169 HD
BRANCH   8  11
HETATM   11  C   UNL     1     -42.152  55.175 -53.078  1.00  0.00     0.037 A 
HETATM   12  C   UNL     1     -42.462  55.445 -54.415  1.00  0.00     0.054 A 
HETATM   13  C   UNL     1     -41.877  54.699 -55.437  1.00  0.00     0.071 A 
HETATM   14  C   UNL     1     -40.962  53.698 -55.110  1.00  0.00     0.073 A 
HETATM   15  C   UNL     1     -40.626  53.439 -53.774  1.00  0.00     0.071 A 
HETATM   16  C   UNL     1     -41.222  54.180 -52.753  1.00  0.00     0.054 A 
BRANCH  13  17
HETATM   17  O   UNL     1     -42.284  55.040 -56.697  1.00  0.00    -0.356 OA
HETATM   18  C   UNL     1     -42.781  56.360 -56.878  1.00  0.00     0.210 C 
ENDBRANCH  13  17
BRANCH  15  19
HETATM   19  O   UNL     1     -39.712  52.434 -53.606  1.00  0.00    -0.356 OA
HETATM   20  C   UNL     1     -39.678  51.786 -52.341  1.00  0.00     0.210 C 
ENDBRANCH  15  19
ENDBRANCH   8  11
ENDBRANCH   4   7
BRANCH   1  21
HETATM   21  C   UNL     1     -45.277  61.226 -48.969  1.00  0.00     0.180 A 
HETATM   22  O   UNL     1     -46.498  61.819 -49.173  1.00  0.00    -0.289 OA
HETATM   23  C   UNL     1     -46.663  62.619 -48.080  1.00  0.00     0.106 A 
HETATM   24  C   UNL     1     -45.540  62.485 -47.284  1.00  0.00     0.094 A 
HETATM   25  C   UNL     1     -47.756  63.420 -47.782  1.00  0.00     0.040 A 
HETATM   26  C   UNL     1     -45.473  63.198 -46.079  1.00  0.00     0.041 A 
HETATM   27  N   UNL     1     -44.659  61.606 -47.862  1.00  0.00    -0.221 NA
HETATM   28  C   UNL     1     -46.559  64.021 -45.723  1.00  0.00    -0.060 A 
HETATM   29  C   UNL     1     -46.541  64.782 -44.428  1.00  0.00     0.048 C 
HETATM   30  C   UNL     1     -47.679  64.122 -46.571  1.00  0.00     0.009 A 
ENDBRANCH   1  21
TORSDOF 5
ENDMDL
MODEL 9
REMARK VINA RESULT:      -7.2      5.381      6.637
REMARK  5 active torsions:
REMARK  status: ('A' for Active; 'I' for Inactive)
REMARK    1  A    between atoms: C_7  and  C_8 
REMARK    2  A    between atoms: C_11  and  N_12 
REMARK       I    between atoms: N_12  and  C_13 
REMARK    3  A    between atoms: C_13  and  C_14 
REMARK    4  A    between atoms: C_16  and  O_17 
REMARK    5  A    between atoms: C_20  and  O_21 
ROOT
HETATM    1  C   UNL     1     -41.505  55.810 -54.303  1.00  0.00     0.017 A 
HETATM    2  C   UNL     1     -42.187  55.930 -55.520  1.00  0.00     0.018 A 
HETATM    3  C   UNL     1     -42.449  57.188 -56.080  1.00  0.00     0.030 A 
HETATM    4  C   UNL     1     -42.029  58.352 -55.436  1.00  0.00     0.035 A 
HETATM    5  C   UNL     1     -41.391  58.241 -54.196  1.00  0.00     0.030 A 
HETATM    6  C   UNL     1     -41.132  56.985 -53.636  1.00  0.00     0.018 A 
ENDROOT
BRANCH   4   7
HETATM    7  N   UNL     1     -42.163  59.648 -55.977  1.00  0.00    -0.323 N 
HETATM    8  C   UNL     1     -41.884  60.043 -57.272  1.00  0.00     0.256 C 
HETATM    9  O   UNL     1     -41.565  59.329 -58.214  1.00  0.00    -0.267 OA
HETATM   10  H   UNL     1     -42.353  60.378 -55.304  1.00  0.00     0.169 HD
BRANCH   8  11
HETATM   11  C   UNL     1     -41.923  61.515 -57.485  1.00  0.00     0.037 A 
HETATM   12  C   UNL     1     -42.901  62.248 -56.807  1.00  0.00     0.054 A 
HETATM   13  C   UNL     1     -43.025  63.620 -57.016  1.00  0.00     0.071 A 
HETATM   14  C   UNL     1     -42.144  64.255 -57.893  1.00  0.00     0.073 A 
HETATM   15  C   UNL     1     -41.144  63.533 -58.558  1.00  0.00     0.071 A 
HETATM   16  C   UNL     1     -41.030  62.157 -58.353  1.00  0.00     0.054 A 
BRANCH  13  17
HETATM   17  O   UNL     1     -44.037  64.216 -56.317  1.00  0.00    -0.356 OA
HETATM   18  C   UNL     1     -45.141  63.395 -55.957  1.00  0.00     0.210 C 
ENDBRANCH  13  17
BRANCH  15  19
HETATM   19  O   UNL     1     -40.353  64.288 -59.380  1.00  0.00    -0.356 OA
HETATM   20  C   UNL     1     -38.958  64.011 -59.380  1.00  0.00     0.210 C 
ENDBRANCH  15  19
ENDBRANCH   8  11
ENDBRANCH   4   7
BRANCH   1  21
HETATM   21  C   UNL     1     -41.132  54.513 -53.743  1.00  0.00     0.180 A 
HETATM   22  O   UNL     1     -40.981  53.478 -54.633  1.00  0.00    -0.289 OA
HETATM   23  C   UNL     1     -40.539  52.444 -53.863  1.00  0.00     0.106 A 
HETATM   24  C   UNL     1     -40.458  52.892 -52.557  1.00  0.00     0.094 A 
HETATM   25  C   UNL     1     -40.202  51.165 -54.284  1.00  0.00     0.040 A 
HETATM   26  C   UNL     1     -40.005  52.013 -51.564  1.00  0.00     0.041 A 
HETATM   27  N   UNL     1     -40.848  54.205 -52.489  1.00  0.00    -0.221 NA
HETATM   28  C   UNL     1     -39.643  50.704 -51.938  1.00  0.00    -0.060 A 
HETATM   29  C   UNL     1     -39.128  49.737 -50.910  1.00  0.00     0.048 C 
HETATM   30  C   UNL     1     -39.745  50.298 -53.283  1.00  0.00     0.009 A 
ENDBRANCH   1  21
TORSDOF 5
ENDMDL
MODEL 10
REMARK VINA RESULT:      -7.1      4.855      6.084
REMARK  5 active torsions:
REMARK  status: ('A' for Active; 'I' for Inactive)
REMARK    1  A    between atoms: C_7  and  C_8 
REMARK    2  A    between atoms: C_11  and  N_12 
REMARK       I    between atoms: N_12  and  C_13 
REMARK    3  A    between atoms: C_13  and  C_14 
REMARK    4  A    between atoms: C_16  and  O_17 
REMARK    5  A    between atoms: C_20  and  O_21 
ROOT
HETATM    1  C   UNL     1     -41.333  55.935 -54.262  1.00  0.00     0.017 A 
HETATM    2  C   UNL     1     -41.027  57.120 -53.582  1.00  0.00     0.018 A 
HETATM    3  C   UNL     1     -41.443  58.364 -54.076  1.00  0.00     0.030 A 
HETATM    4  C   UNL     1     -42.180  58.447 -55.258  1.00  0.00     0.035 A 
HETATM    5  C   UNL     1     -42.447  57.271 -55.967  1.00  0.00     0.030 A 
HETATM    6  C   UNL     1     -42.028  56.030 -55.475  1.00  0.00     0.018 A 
ENDROOT
BRANCH   4   7
HETATM    7  N   UNL     1     -42.723  59.644 -55.769  1.00  0.00    -0.323 N 
HETATM    8  C   UNL     1     -42.153  60.484 -56.708  1.00  0.00     0.256 C 
HETATM    9  O   UNL     1     -41.121  60.298 -57.342  1.00  0.00    -0.267 OA
HETATM   10  H   UNL     1     -43.550  59.980 -55.294  1.00  0.00     0.169 HD
BRANCH   8  11
HETATM   11  C   UNL     1     -42.868  61.775 -56.890  1.00  0.00     0.037 A 
HETATM   12  C   UNL     1     -42.322  62.704 -57.782  1.00  0.00     0.054 A 
HETATM   13  C   UNL     1     -42.914  63.956 -57.945  1.00  0.00     0.071 A 
HETATM   14  C   UNL     1     -44.070  64.259 -57.225  1.00  0.00     0.073 A 
HETATM   15  C   UNL     1     -44.639  63.324 -56.349  1.00  0.00     0.071 A 
HETATM   16  C   UNL     1     -44.037  62.076 -56.181  1.00  0.00     0.054 A 
BRANCH  13  17
HETATM   17  O   UNL     1     -42.269  64.782 -58.821  1.00  0.00    -0.356 OA
HETATM   18  C   UNL     1     -42.544  64.596 -60.204  1.00  0.00     0.210 C 
ENDBRANCH  13  17
BRANCH  15  19
HETATM   19  O   UNL     1     -45.773  63.758 -55.718  1.00  0.00    -0.356 OA
HETATM   20  C   UNL     1     -46.514  62.800 -54.974  1.00  0.00     0.210 C 
ENDBRANCH  15  19
ENDBRANCH   8  11
ENDBRANCH   4   7
BRANCH   1  21
HETATM   21  C   UNL     1     -40.997  54.619 -53.724  1.00  0.00     0.180 A 
HETATM   22  O   UNL     1     -40.847  53.601 -54.634  1.00  0.00    -0.289 OA
HETATM   23  C   UNL     1     -40.441  52.541 -53.878  1.00  0.00     0.106 A 
HETATM   24  C   UNL     1     -40.379  52.959 -52.561  1.00  0.00     0.094 A 
HETATM   25  C   UNL     1     -40.120  51.266 -54.321  1.00  0.00     0.040 A 
HETATM   26  C   UNL     1     -39.963  52.049 -51.579  1.00  0.00     0.041 A 
HETATM   27  N   UNL     1     -40.745  54.278 -52.471  1.00  0.00    -0.221 NA
HETATM   28  C   UNL     1     -39.619  50.742 -51.975  1.00  0.00    -0.060 A 
HETATM   29  C   UNL     1     -39.143  49.743 -50.959  1.00  0.00     0.048 C 
HETATM   30  C   UNL     1     -39.700  50.368 -53.331  1.00  0.00     0.009 A 
ENDBRANCH   1  21
TORSDOF 5
ENDMDL
