MODEL 1
REMARK VINA RESULT:      -8.0      0.000      0.000
REMARK  9 active torsions:
REMARK  status: ('A' for Active; 'I' for Inactive)
REMARK    1  A    between atoms: C_4  and  C_5 
REMARK    2  A    between atoms: C_7  and  C_8 
REMARK    3  A    between atoms: C_8  and  C_9 
REMARK       I    between atoms: C_9  and  N_10 
REMARK    4  A    between atoms: N_10  and  C_11 
REMARK    5  A    between atoms: C_11  and  C_12 
REMARK    6  A    between atoms: C_12  and  N_13 
REMARK    7  A    between atoms: C_27  and  C_28 
REMARK    8  A    between atoms: C_28  and  O_29 
REMARK    9  A    between atoms: O_29  and  C_30 
ROOT
HETATM    1  C   UNL     1     -42.511  58.227 -58.102  1.00  0.00     0.166 C 
HETATM    2  N   UNL     1     -42.496  58.229 -56.606  1.00  0.00    -0.319 N 
HETATM    3  C   UNL     1     -42.845  57.382 -55.683  1.00  0.00     0.011 C 
HETATM    4  C   UNL     1     -41.917  59.527 -55.978  1.00  0.00     0.170 C 
HETATM    5  S   UNL     1     -41.857  59.457 -54.250  1.00  0.00    -0.086 SA
HETATM    6  C   UNL     1     -42.746  57.890 -54.257  1.00  0.00     0.135 C 
HETATM    7  N   UNL     1     -41.526  60.569 -56.615  1.00  0.00    -0.229 NA
HETATM    8  C   UNL     1     -41.652  60.599 -57.980  1.00  0.00     0.048 C 
HETATM    9  C   UNL     1     -41.149  61.888 -58.597  1.00  0.00     0.071 C 
HETATM   10  C   UNL     1     -42.142  59.562 -58.689  1.00  0.00     0.069 C 
ENDROOT
BRANCH   3  11
HETATM   11  C   UNL     1     -43.460  56.043 -55.997  1.00  0.00     0.156 C 
BRANCH  11  12
HETATM   12  C   UNL     1     -42.564  54.848 -55.735  1.00  0.00     0.223 C 
HETATM   13  N   UNL     1     -41.211  55.115 -55.731  1.00  0.00    -0.359 N 
HETATM   14  H   UNL     1     -40.948  56.098 -55.752  1.00  0.00     0.162 HD
HETATM   15  O   UNL     1     -43.017  53.729 -55.533  1.00  0.00    -0.273 OA
BRANCH  13  16
HETATM   16  C   UNL     1     -40.265  54.265 -54.994  1.00  0.00     0.150 C 
BRANCH  16  17
HETATM   17  C   UNL     1     -40.589  53.947 -53.518  1.00  0.00     0.254 C 
BRANCH  17  18
HETATM   18  N   UNL     1     -40.580  52.453 -53.239  1.00  0.00    -0.070 N 
HETATM   19  H   UNL     1     -41.524  52.225 -52.901  1.00  0.00     0.279 HD
HETATM   20  C   UNL     1     -40.298  51.621 -54.471  1.00  0.00     0.235 C 
HETATM   21  C   UNL     1     -40.392  50.142 -54.126  1.00  0.00     0.028 C 
HETATM   22  C   UNL     1     -39.456  49.768 -52.983  1.00  0.00     0.003 C 
HETATM   23  C   UNL     1     -39.705  50.651 -51.766  1.00  0.00     0.028 C 
HETATM   24  C   UNL     1     -39.613  52.129 -52.114  1.00  0.00     0.235 C 
ENDBRANCH  17  18
ENDBRANCH  16  17
ENDBRANCH  13  16
ENDBRANCH  11  12
ENDBRANCH   3  11
BRANCH   1  25
HETATM   25  C   UNL     1     -43.835  57.679 -58.628  1.00  0.00    -0.030 A 
HETATM   26  C   UNL     1     -43.817  56.591 -59.525  1.00  0.00     0.016 A 
HETATM   27  C   UNL     1     -45.004  56.011 -59.989  1.00  0.00    -0.061 A 
HETATM   28  C   UNL     1     -44.958  54.864 -60.957  1.00  0.00     0.048 C 
HETATM   29  C   UNL     1     -46.224  56.568 -59.596  1.00  0.00     0.007 A 
HETATM   30  C   UNL     1     -46.257  57.672 -58.744  1.00  0.00     0.001 A 
HETATM   31  C   UNL     1     -45.073  58.228 -58.259  1.00  0.00     0.009 A 
ENDBRANCH   1  25
BRANCH  10  32
HETATM   32  C   UNL     1     -42.319  59.669 -60.154  1.00  0.00     0.294 C 
HETATM   33  O   UNL     1     -41.646  59.033 -60.943  1.00  0.00    -0.259 OA
BRANCH  32  34
HETATM   34  O   UNL     1     -43.386  60.462 -60.398  1.00  0.00    -0.313 OA
BRANCH  34  35
HETATM   35  C   UNL     1     -44.096  60.261 -61.637  1.00  0.00     0.124 C 
HETATM   36  C   UNL     1     -45.582  60.301 -61.300  1.00  0.00     0.040 C 
HETATM   37  C   UNL     1     -43.738  61.379 -62.608  1.00  0.00     0.040 C 
ENDBRANCH  34  35
ENDBRANCH  32  34
ENDBRANCH  10  32
TORSDOF 9
ENDMDL
MODEL 2
REMARK VINA RESULT:      -8.0      2.944      9.138
REMARK  9 active torsions:
REMARK  status: ('A' for Active; 'I' for Inactive)
REMARK    1  A    between atoms: C_4  and  C_5 
REMARK    2  A    between atoms: C_7  and  C_8 
REMARK    3  A    between atoms: C_8  and  C_9 
REMARK       I    between atoms: C_9  and  N_10 
REMARK    4  A    between atoms: N_10  and  C_11 
REMARK    5  A    between atoms: C_11  and  C_12 
REMARK    6  A    between atoms: C_12  and  N_13 
REMARK    7  A    between atoms: C_27  and  C_28 
REMARK    8  A    between atoms: C_28  and  O_29 
REMARK    9  A    between atoms: O_29  and  C_30 
ROOT
HETATM    1  C   UNL     1     -43.516  55.435 -54.084  1.00  0.00     0.166 C 
HETATM    2  N   UNL     1     -43.727  56.530 -55.081  1.00  0.00    -0.319 N 
HETATM    3  C   UNL     1     -43.566  56.647 -56.366  1.00  0.00     0.011 C 
HETATM    4  C   UNL     1     -44.287  57.845 -54.471  1.00  0.00     0.170 C 
HETATM    5  S   UNL     1     -44.578  59.060 -55.669  1.00  0.00    -0.086 SA
HETATM    6  C   UNL     1     -43.813  58.031 -56.935  1.00  0.00     0.135 C 
HETATM    7  N   UNL     1     -44.513  58.069 -53.228  1.00  0.00    -0.229 NA
HETATM    8  C   UNL     1     -44.207  57.096 -52.312  1.00  0.00     0.048 C 
HETATM    9  C   UNL     1     -44.529  57.497 -50.887  1.00  0.00     0.071 C 
HETATM   10  C   UNL     1     -43.706  55.896 -52.665  1.00  0.00     0.069 C 
ENDROOT
BRANCH   3  11
HETATM   11  C   UNL     1     -43.014  55.535 -57.222  1.00  0.00     0.156 C 
BRANCH  11  12
HETATM   12  C   UNL     1     -43.357  55.630 -58.696  1.00  0.00     0.223 C 
HETATM   13  N   UNL     1     -44.663  55.325 -59.019  1.00  0.00    -0.359 N 
HETATM   14  H   UNL     1     -45.304  55.215 -58.236  1.00  0.00     0.162 HD
HETATM   15  O   UNL     1     -42.530  55.964 -59.535  1.00  0.00    -0.273 OA
BRANCH  13  16
HETATM   16  C   UNL     1     -45.297  55.862 -60.231  1.00  0.00     0.150 C 
BRANCH  16  17
HETATM   17  C   UNL     1     -45.739  57.341 -60.213  1.00  0.00     0.254 C 
BRANCH  17  18
HETATM   18  N   UNL     1     -46.767  57.646 -61.291  1.00  0.00    -0.070 N 
HETATM   19  H   UNL     1     -46.230  57.800 -62.154  1.00  0.00     0.279 HD
HETATM   20  C   UNL     1     -47.736  56.508 -61.523  1.00  0.00     0.235 C 
HETATM   21  C   UNL     1     -48.673  56.857 -62.672  1.00  0.00     0.028 C 
HETATM   22  C   UNL     1     -49.410  58.167 -62.420  1.00  0.00     0.003 C 
HETATM   23  C   UNL     1     -48.430  59.295 -62.126  1.00  0.00     0.028 C 
HETATM   24  C   UNL     1     -47.493  58.943 -60.980  1.00  0.00     0.235 C 
ENDBRANCH  17  18
ENDBRANCH  16  17
ENDBRANCH  13  16
ENDBRANCH  11  12
ENDBRANCH   3  11
BRANCH   1  25
HETATM   25  C   UNL     1     -42.178  54.739 -54.322  1.00  0.00    -0.030 A 
HETATM   26  C   UNL     1     -42.110  53.334 -54.223  1.00  0.00     0.016 A 
HETATM   27  C   UNL     1     -40.923  52.642 -54.492  1.00  0.00    -0.061 A 
HETATM   28  C   UNL     1     -40.873  51.146 -54.363  1.00  0.00     0.048 C 
HETATM   29  C   UNL     1     -39.774  53.372 -54.804  1.00  0.00     0.007 A 
HETATM   30  C   UNL     1     -39.814  54.766 -54.863  1.00  0.00     0.001 A 
HETATM   31  C   UNL     1     -41.007  55.451 -54.625  1.00  0.00     0.009 A 
ENDBRANCH   1  25
BRANCH  10  32
HETATM   32  C   UNL     1     -43.330  54.904 -51.633  1.00  0.00     0.294 C 
HETATM   33  O   UNL     1     -44.019  53.935 -51.374  1.00  0.00    -0.259 OA
BRANCH  32  34
HETATM   34  O   UNL     1     -42.099  55.215 -51.170  1.00  0.00    -0.313 OA
BRANCH  34  35
HETATM   35  C   UNL     1     -41.455  54.263 -50.298  1.00  0.00     0.124 C 
HETATM   36  C   UNL     1     -40.199  53.789 -51.021  1.00  0.00     0.040 C 
HETATM   37  C   UNL     1     -41.091  54.951 -48.988  1.00  0.00     0.040 C 
ENDBRANCH  34  35
ENDBRANCH  32  34
ENDBRANCH  10  32
TORSDOF 9
ENDMDL
MODEL 3
REMARK VINA RESULT:      -7.6      2.703      4.391
REMARK  9 active torsions:
REMARK  status: ('A' for Active; 'I' for Inactive)
REMARK    1  A    between atoms: C_4  and  C_5 
REMARK    2  A    between atoms: C_7  and  C_8 
REMARK    3  A    between atoms: C_8  and  C_9 
REMARK       I    between atoms: C_9  and  N_10 
REMARK    4  A    between atoms: N_10  and  C_11 
REMARK    5  A    between atoms: C_11  and  C_12 
REMARK    6  A    between atoms: C_12  and  N_13 
REMARK    7  A    between atoms: C_27  and  C_28 
REMARK    8  A    between atoms: C_28  and  O_29 
REMARK    9  A    between atoms: O_29  and  C_30 
ROOT
HETATM    1  C   UNL     1     -42.146  58.354 -56.052  1.00  0.00     0.166 C 
HETATM    2  N   UNL     1     -42.333  59.330 -54.934  1.00  0.00    -0.319 N 
HETATM    3  C   UNL     1     -41.981  59.373 -53.683  1.00  0.00     0.011 C 
HETATM    4  C   UNL     1     -43.111  60.614 -55.336  1.00  0.00     0.170 C 
HETATM    5  S   UNL     1     -43.244  61.743 -54.030  1.00  0.00    -0.086 SA
HETATM    6  C   UNL     1     -42.514  60.552 -52.892  1.00  0.00     0.135 C 
HETATM    7  N   UNL     1     -43.630  60.860 -56.482  1.00  0.00    -0.229 NA
HETATM    8  C   UNL     1     -43.551  59.906 -57.464  1.00  0.00     0.048 C 
HETATM    9  C   UNL     1     -44.205  60.333 -58.763  1.00  0.00     0.071 C 
HETATM   10  C   UNL     1     -42.919  58.729 -57.287  1.00  0.00     0.069 C 
ENDROOT
BRANCH   3  11
HETATM   11  C   UNL     1     -41.232  58.251 -53.009  1.00  0.00     0.156 C 
BRANCH  11  12
HETATM   12  C   UNL     1     -41.824  57.785 -51.693  1.00  0.00     0.223 C 
HETATM   13  N   UNL     1     -43.064  57.187 -51.782  1.00  0.00    -0.359 N 
HETATM   14  H   UNL     1     -43.394  56.979 -52.722  1.00  0.00     0.162 HD
HETATM   15  O   UNL     1     -41.233  57.925 -50.630  1.00  0.00    -0.273 OA
BRANCH  13  16
HETATM   16  C   UNL     1     -43.526  56.230 -50.767  1.00  0.00     0.150 C 
BRANCH  16  17
HETATM   17  C   UNL     1     -43.368  54.726 -51.076  1.00  0.00     0.254 C 
BRANCH  17  18
HETATM   18  N   UNL     1     -42.084  54.152 -50.499  1.00  0.00    -0.070 N 
HETATM   19  H   UNL     1     -42.308  53.188 -50.220  1.00  0.00     0.279 HD
HETATM   20  C   UNL     1     -40.951  54.113 -51.500  1.00  0.00     0.235 C 
HETATM   21  C   UNL     1     -39.733  53.449 -50.872  1.00  0.00     0.028 C 
HETATM   22  C   UNL     1     -39.309  54.148 -49.587  1.00  0.00     0.003 C 
HETATM   23  C   UNL     1     -40.472  54.239 -48.608  1.00  0.00     0.028 C 
HETATM   24  C   UNL     1     -41.689  54.900 -49.238  1.00  0.00     0.235 C 
ENDBRANCH  17  18
ENDBRANCH  16  17
ENDBRANCH  13  16
ENDBRANCH  11  12
ENDBRANCH   3  11
BRANCH   1  25
HETATM   25  C   UNL     1     -42.418  56.930 -55.577  1.00  0.00    -0.030 A 
HETATM   26  C   UNL     1     -41.364  55.992 -55.584  1.00  0.00     0.016 A 
HETATM   27  C   UNL     1     -41.545  54.691 -55.100  1.00  0.00    -0.061 A 
HETATM   28  C   UNL     1     -40.410  53.707 -55.135  1.00  0.00     0.048 C 
HETATM   29  C   UNL     1     -42.813  54.306 -54.659  1.00  0.00     0.007 A 
HETATM   30  C   UNL     1     -43.876  55.209 -54.687  1.00  0.00     0.001 A 
HETATM   31  C   UNL     1     -43.686  56.514 -55.140  1.00  0.00     0.009 A 
ENDBRANCH   1  25
BRANCH  10  32
HETATM   32  C   UNL     1     -42.919  57.707 -58.357  1.00  0.00     0.294 C 
HETATM   33  O   UNL     1     -41.934  57.463 -59.030  1.00  0.00    -0.259 OA
BRANCH  32  34
HETATM   34  O   UNL     1     -44.110  57.069 -58.339  1.00  0.00    -0.313 OA
BRANCH  34  35
HETATM   35  C   UNL     1     -44.535  56.416 -59.553  1.00  0.00     0.124 C 
HETATM   36  C   UNL     1     -44.209  54.936 -59.389  1.00  0.00     0.040 C 
HETATM   37  C   UNL     1     -46.034  56.617 -59.732  1.00  0.00     0.040 C 
ENDBRANCH  34  35
ENDBRANCH  32  34
ENDBRANCH  10  32
TORSDOF 9
ENDMDL
MODEL 4
REMARK VINA RESULT:      -7.6      2.722      4.333
REMARK  9 active torsions:
REMARK  status: ('A' for Active; 'I' for Inactive)
REMARK    1  A    between atoms: C_4  and  C_5 
REMARK    2  A    between atoms: C_7  and  C_8 
REMARK    3  A    between atoms: C_8  and  C_9 
REMARK       I    between atoms: C_9  and  N_10 
REMARK    4  A    between atoms: N_10  and  C_11 
REMARK    5  A    between atoms: C_11  and  C_12 
REMARK    6  A    between atoms: C_12  and  N_13 
REMARK    7  A    between atoms: C_27  and  C_28 
REMARK    8  A    between atoms: C_28  and  O_29 
REMARK    9  A    between atoms: O_29  and  C_30 
ROOT
HETATM    1  C   UNL     1     -42.911  58.207 -54.929  1.00  0.00     0.166 C 
HETATM    2  N   UNL     1     -43.408  58.704 -53.609  1.00  0.00    -0.319 N 
HETATM    3  C   UNL     1     -43.112  58.462 -52.366  1.00  0.00     0.011 C 
HETATM    4  C   UNL     1     -44.527  59.776 -53.714  1.00  0.00     0.170 C 
HETATM    5  S   UNL     1     -45.023  60.371 -52.166  1.00  0.00    -0.086 SA
HETATM    6  C   UNL     1     -43.993  59.146 -51.337  1.00  0.00     0.135 C 
HETATM    7  N   UNL     1     -45.072  60.201 -54.795  1.00  0.00    -0.229 NA
HETATM    8  C   UNL     1     -44.688  59.653 -55.991  1.00  0.00     0.048 C 
HETATM    9  C   UNL     1     -45.411  60.251 -57.180  1.00  0.00     0.071 C 
HETATM   10  C   UNL     1     -43.734  58.705 -56.085  1.00  0.00     0.069 C 
ENDROOT
BRANCH   3  11
HETATM   11  C   UNL     1     -42.075  57.447 -51.957  1.00  0.00     0.156 C 
BRANCH  11  12
HETATM   12  C   UNL     1     -42.630  56.121 -51.475  1.00  0.00     0.223 C 
HETATM   13  N   UNL     1     -41.771  55.047 -51.582  1.00  0.00    -0.359 N 
HETATM   14  H   UNL     1     -40.808  55.268 -51.828  1.00  0.00     0.162 HD
HETATM   15  O   UNL     1     -43.760  56.019 -51.016  1.00  0.00    -0.273 OA
BRANCH  13  16
HETATM   16  C   UNL     1     -41.906  53.870 -50.714  1.00  0.00     0.150 C 
BRANCH  16  17
HETATM   17  C   UNL     1     -40.648  53.387 -49.960  1.00  0.00     0.254 C 
BRANCH  17  18
HETATM   18  N   UNL     1     -39.947  52.248 -50.684  1.00  0.00    -0.070 N 
HETATM   19  H   UNL     1     -38.942  52.392 -50.524  1.00  0.00     0.279 HD
HETATM   20  C   UNL     1     -40.330  50.885 -50.151  1.00  0.00     0.235 C 
HETATM   21  C   UNL     1     -39.524  49.809 -50.865  1.00  0.00     0.028 C 
HETATM   22  C   UNL     1     -39.703  49.880 -52.377  1.00  0.00     0.003 C 
HETATM   23  C   UNL     1     -39.376  51.274 -52.898  1.00  0.00     0.028 C 
HETATM   24  C   UNL     1     -40.180  52.347 -52.180  1.00  0.00     0.235 C 
ENDBRANCH  17  18
ENDBRANCH  16  17
ENDBRANCH  13  16
ENDBRANCH  11  12
ENDBRANCH   3  11
BRANCH   1  25
HETATM   25  C   UNL     1     -42.751  56.689 -54.909  1.00  0.00    -0.030 A 
HETATM   26  C   UNL     1     -41.468  56.133 -55.093  1.00  0.00     0.016 A 
HETATM   27  C   UNL     1     -41.257  54.751 -55.022  1.00  0.00    -0.061 A 
HETATM   28  C   UNL     1     -39.883  54.183 -55.239  1.00  0.00     0.048 C 
HETATM   29  C   UNL     1     -42.355  53.911 -54.823  1.00  0.00     0.007 A 
HETATM   30  C   UNL     1     -43.637  54.443 -54.683  1.00  0.00     0.001 A 
HETATM   31  C   UNL     1     -43.840  55.823 -54.723  1.00  0.00     0.009 A 
ENDBRANCH   1  25
BRANCH  10  32
HETATM   32  C   UNL     1     -43.402  58.098 -57.394  1.00  0.00     0.294 C 
HETATM   33  O   UNL     1     -42.325  58.261 -57.936  1.00  0.00    -0.259 OA
BRANCH  32  34
HETATM   34  O   UNL     1     -44.421  57.290 -57.761  1.00  0.00    -0.313 OA
BRANCH  34  35
HETATM   35  C   UNL     1     -44.415  56.781 -59.110  1.00  0.00     0.124 C 
HETATM   36  C   UNL     1     -43.788  55.393 -59.050  1.00  0.00     0.040 C 
HETATM   37  C   UNL     1     -45.848  56.699 -59.621  1.00  0.00     0.040 C 
ENDBRANCH  34  35
ENDBRANCH  32  34
ENDBRANCH  10  32
TORSDOF 9
ENDMDL
MODEL 5
REMARK VINA RESULT:      -7.4      4.009      7.138
REMARK  9 active torsions:
REMARK  status: ('A' for Active; 'I' for Inactive)
REMARK    1  A    between atoms: C_4  and  C_5 
REMARK    2  A    between atoms: C_7  and  C_8 
REMARK    3  A    between atoms: C_8  and  C_9 
REMARK       I    between atoms: C_9  and  N_10 
REMARK    4  A    between atoms: N_10  and  C_11 
REMARK    5  A    between atoms: C_11  and  C_12 
REMARK    6  A    between atoms: C_12  and  N_13 
REMARK    7  A    between atoms: C_27  and  C_28 
REMARK    8  A    between atoms: C_28  and  O_29 
REMARK    9  A    between atoms: O_29  and  C_30 
ROOT
HETATM    1  C   UNL     1     -44.239  58.854 -52.784  1.00  0.00     0.166 C 
HETATM    2  N   UNL     1     -43.871  59.244 -54.180  1.00  0.00    -0.319 N 
HETATM    3  C   UNL     1     -42.957  58.873 -55.027  1.00  0.00     0.011 C 
HETATM    4  C   UNL     1     -44.790  60.334 -54.798  1.00  0.00     0.170 C 
HETATM    5  S   UNL     1     -44.369  60.704 -56.436  1.00  0.00    -0.086 SA
HETATM    6  C   UNL     1     -42.905  59.660 -56.323  1.00  0.00     0.135 C 
HETATM    7  N   UNL     1     -45.756  60.936 -54.207  1.00  0.00    -0.229 NA
HETATM    8  C   UNL     1     -46.009  60.652 -52.890  1.00  0.00     0.048 C 
HETATM    9  C   UNL     1     -47.176  61.435 -52.325  1.00  0.00     0.071 C 
HETATM   10  C   UNL     1     -45.304  59.737 -52.195  1.00  0.00     0.069 C 
ENDROOT
BRANCH   3  11
HETATM   11  C   UNL     1     -41.907  57.843 -54.694  1.00  0.00     0.156 C 
BRANCH  11  12
HETATM   12  C   UNL     1     -42.316  56.405 -54.951  1.00  0.00     0.223 C 
HETATM   13  N   UNL     1     -41.277  55.529 -55.186  1.00  0.00    -0.359 N 
HETATM   14  H   UNL     1     -40.340  55.891 -55.018  1.00  0.00     0.162 HD
HETATM   15  O   UNL     1     -43.488  56.051 -54.939  1.00  0.00    -0.273 OA
BRANCH  13  16
HETATM   16  C   UNL     1     -41.413  54.091 -54.920  1.00  0.00     0.150 C 
BRANCH  16  17
HETATM   17  C   UNL     1     -40.120  53.280 -54.688  1.00  0.00     0.254 C 
BRANCH  17  18
HETATM   18  N   UNL     1     -40.284  52.238 -53.592  1.00  0.00    -0.070 N 
HETATM   19  H   UNL     1     -41.284  52.000 -53.580  1.00  0.00     0.279 HD
HETATM   20  C   UNL     1     -39.492  50.976 -53.852  1.00  0.00     0.235 C 
HETATM   21  C   UNL     1     -39.777  49.956 -52.759  1.00  0.00     0.028 C 
HETATM   22  C   UNL     1     -39.483  50.516 -51.373  1.00  0.00     0.003 C 
HETATM   23  C   UNL     1     -40.236  51.820 -51.142  1.00  0.00     0.028 C 
HETATM   24  C   UNL     1     -39.951  52.837 -52.237  1.00  0.00     0.235 C 
ENDBRANCH  17  18
ENDBRANCH  16  17
ENDBRANCH  13  16
ENDBRANCH  11  12
ENDBRANCH   3  11
BRANCH   1  25
HETATM   25  C   UNL     1     -42.993  58.741 -51.909  1.00  0.00    -0.030 A 
HETATM   26  C   UNL     1     -42.674  57.495 -51.328  1.00  0.00     0.016 A 
HETATM   27  C   UNL     1     -41.511  57.323 -50.569  1.00  0.00    -0.061 A 
HETATM   28  C   UNL     1     -41.203  55.990 -49.948  1.00  0.00     0.048 C 
HETATM   29  C   UNL     1     -40.688  58.427 -50.338  1.00  0.00     0.007 A 
HETATM   30  C   UNL     1     -41.012  59.676 -50.869  1.00  0.00     0.001 A 
HETATM   31  C   UNL     1     -42.156  59.838 -51.651  1.00  0.00     0.009 A 
ENDBRANCH   1  25
BRANCH  10  32
HETATM   32  C   UNL     1     -45.574  59.514 -50.756  1.00  0.00     0.294 C 
HETATM   33  O   UNL     1     -46.263  58.596 -50.354  1.00  0.00    -0.259 OA
BRANCH  32  34
HETATM   34  O   UNL     1     -44.846  60.401 -50.043  1.00  0.00    -0.313 OA
BRANCH  34  35
HETATM   35  C   UNL     1     -45.563  61.343 -49.219  1.00  0.00     0.124 C 
HETATM   36  C   UNL     1     -45.339  60.917 -47.773  1.00  0.00     0.040 C 
HETATM   37  C   UNL     1     -45.008  62.741 -49.458  1.00  0.00     0.040 C 
ENDBRANCH  34  35
ENDBRANCH  32  34
ENDBRANCH  10  32
TORSDOF 9
ENDMDL
MODEL 6
REMARK VINA RESULT:      -7.2      2.822      7.769
REMARK  9 active torsions:
REMARK  status: ('A' for Active; 'I' for Inactive)
REMARK    1  A    between atoms: C_4  and  C_5 
REMARK    2  A    between atoms: C_7  and  C_8 
REMARK    3  A    between atoms: C_8  and  C_9 
REMARK       I    between atoms: C_9  and  N_10 
REMARK    4  A    between atoms: N_10  and  C_11 
REMARK    5  A    between atoms: C_11  and  C_12 
REMARK    6  A    between atoms: C_12  and  N_13 
REMARK    7  A    between atoms: C_27  and  C_28 
REMARK    8  A    between atoms: C_28  and  O_29 
REMARK    9  A    between atoms: O_29  and  C_30 
ROOT
HETATM    1  C   UNL     1     -43.388  57.559 -55.517  1.00  0.00     0.166 C 
HETATM    2  N   UNL     1     -42.850  57.995 -56.843  1.00  0.00    -0.319 N 
HETATM    3  C   UNL     1     -42.785  57.464 -58.028  1.00  0.00     0.011 C 
HETATM    4  C   UNL     1     -42.235  59.422 -56.840  1.00  0.00     0.170 C 
HETATM    5  S   UNL     1     -41.688  59.910 -58.409  1.00  0.00    -0.086 SA
HETATM    6  C   UNL     1     -42.023  58.266 -59.065  1.00  0.00     0.135 C 
HETATM    7  N   UNL     1     -42.106  60.192 -55.822  1.00  0.00    -0.229 NA
HETATM    8  C   UNL     1     -42.498  59.734 -54.591  1.00  0.00     0.048 C 
HETATM    9  C   UNL     1     -42.290  60.747 -53.485  1.00  0.00     0.071 C 
HETATM   10  C   UNL     1     -43.046  58.516 -54.408  1.00  0.00     0.069 C 
ENDROOT
BRANCH   3  11
HETATM   11  C   UNL     1     -43.286  56.073 -58.325  1.00  0.00     0.156 C 
BRANCH  11  12
HETATM   12  C   UNL     1     -44.083  55.939 -59.608  1.00  0.00     0.223 C 
HETATM   13  N   UNL     1     -45.416  55.623 -59.445  1.00  0.00    -0.359 N 
HETATM   14  H   UNL     1     -45.770  55.658 -58.491  1.00  0.00     0.162 HD
HETATM   15  O   UNL     1     -43.576  56.111 -60.709  1.00  0.00    -0.273 OA
BRANCH  13  16
HETATM   16  C   UNL     1     -46.416  55.976 -60.461  1.00  0.00     0.150 C 
BRANCH  16  17
HETATM   17  C   UNL     1     -47.065  57.374 -60.373  1.00  0.00     0.254 C 
BRANCH  17  18
HETATM   18  N   UNL     1     -46.324  58.292 -59.415  1.00  0.00    -0.070 N 
HETATM   19  H   UNL     1     -45.426  57.828 -59.221  1.00  0.00     0.279 HD
HETATM   20  C   UNL     1     -46.042  59.658 -60.002  1.00  0.00     0.235 C 
HETATM   21  C   UNL     1     -45.225  60.482 -59.018  1.00  0.00     0.028 C 
HETATM   22  C   UNL     1     -45.917  60.595 -57.665  1.00  0.00     0.003 C 
HETATM   23  C   UNL     1     -46.253  59.218 -57.109  1.00  0.00     0.028 C 
HETATM   24  C   UNL     1     -47.067  58.395 -58.096  1.00  0.00     0.235 C 
ENDBRANCH  17  18
ENDBRANCH  16  17
ENDBRANCH  13  16
ENDBRANCH  11  12
ENDBRANCH   3  11
BRANCH   1  25
HETATM   25  C   UNL     1     -42.984  56.117 -55.219  1.00  0.00    -0.030 A 
HETATM   26  C   UNL     1     -41.619  55.767 -55.256  1.00  0.00     0.016 A 
HETATM   27  C   UNL     1     -41.190  54.475 -54.930  1.00  0.00    -0.061 A 
HETATM   28  C   UNL     1     -39.731  54.122 -54.994  1.00  0.00     0.048 C 
HETATM   29  C   UNL     1     -42.148  53.505 -54.622  1.00  0.00     0.007 A 
HETATM   30  C   UNL     1     -43.505  53.825 -54.623  1.00  0.00     0.001 A 
HETATM   31  C   UNL     1     -43.928  55.122 -54.918  1.00  0.00     0.009 A 
ENDBRANCH   1  25
BRANCH  10  32
HETATM   32  C   UNL     1     -43.392  58.043 -53.048  1.00  0.00     0.294 C 
HETATM   33  O   UNL     1     -44.534  58.031 -52.630  1.00  0.00    -0.259 OA
BRANCH  32  34
HETATM   34  O   UNL     1     -42.274  57.551 -52.470  1.00  0.00    -0.313 OA
BRANCH  34  35
HETATM   35  C   UNL     1     -42.407  56.952 -51.165  1.00  0.00     0.124 C 
HETATM   36  C   UNL     1     -42.601  55.457 -51.388  1.00  0.00     0.040 C 
HETATM   37  C   UNL     1     -41.138  57.213 -50.362  1.00  0.00     0.040 C 
ENDBRANCH  34  35
ENDBRANCH  32  34
ENDBRANCH  10  32
TORSDOF 9
ENDMDL
MODEL 7
REMARK VINA RESULT:      -7.0      3.717      6.574
REMARK  9 active torsions:
REMARK  status: ('A' for Active; 'I' for Inactive)
REMARK    1  A    between atoms: C_4  and  C_5 
REMARK    2  A    between atoms: C_7  and  C_8 
REMARK    3  A    between atoms: C_8  and  C_9 
REMARK       I    between atoms: C_9  and  N_10 
REMARK    4  A    between atoms: N_10  and  C_11 
REMARK    5  A    between atoms: C_11  and  C_12 
REMARK    6  A    between atoms: C_12  and  N_13 
REMARK    7  A    between atoms: C_27  and  C_28 
REMARK    8  A    between atoms: C_28  and  O_29 
REMARK    9  A    between atoms: O_29  and  C_30 
ROOT
HETATM    1  C   UNL     1     -45.120  58.682 -53.428  1.00  0.00     0.166 C 
HETATM    2  N   UNL     1     -44.914  58.484 -54.896  1.00  0.00    -0.319 N 
HETATM    3  C   UNL     1     -44.493  57.506 -55.642  1.00  0.00     0.011 C 
HETATM    4  C   UNL     1     -45.303  59.715 -55.762  1.00  0.00     0.170 C 
HETATM    5  S   UNL     1     -45.112  59.418 -57.457  1.00  0.00    -0.086 SA
HETATM    6  C   UNL     1     -44.345  57.824 -57.118  1.00  0.00     0.135 C 
HETATM    7  N   UNL     1     -45.711  60.851 -55.328  1.00  0.00    -0.229 NA
HETATM    8  C   UNL     1     -45.785  61.056 -53.975  1.00  0.00     0.048 C 
HETATM    9  C   UNL     1     -46.283  62.438 -53.608  1.00  0.00     0.071 C 
HETATM   10  C   UNL     1     -45.478  60.099 -53.076  1.00  0.00     0.069 C 
ENDROOT
BRANCH   3  11
HETATM   11  C   UNL     1     -44.025  56.191 -55.072  1.00  0.00     0.156 C 
BRANCH  11  12
HETATM   12  C   UNL     1     -42.712  55.681 -55.634  1.00  0.00     0.223 C 
HETATM   13  N   UNL     1     -41.602  55.919 -54.851  1.00  0.00    -0.359 N 
HETATM   14  H   UNL     1     -41.783  56.274 -53.914  1.00  0.00     0.162 HD
HETATM   15  O   UNL     1     -42.650  55.090 -56.705  1.00  0.00    -0.273 OA
BRANCH  13  16
HETATM   16  C   UNL     1     -40.405  55.072 -54.941  1.00  0.00     0.150 C 
BRANCH  16  17
HETATM   17  C   UNL     1     -40.569  53.565 -54.645  1.00  0.00     0.254 C 
BRANCH  17  18
HETATM   18  N   UNL     1     -40.138  53.208 -53.232  1.00  0.00    -0.070 N 
HETATM   19  H   UNL     1     -39.236  53.679 -53.087  1.00  0.00     0.279 HD
HETATM   20  C   UNL     1     -41.109  53.692 -52.177  1.00  0.00     0.235 C 
HETATM   21  C   UNL     1     -40.564  53.372 -50.792  1.00  0.00     0.028 C 
HETATM   22  C   UNL     1     -40.271  51.886 -50.630  1.00  0.00     0.003 C 
HETATM   23  C   UNL     1     -39.342  51.392 -51.732  1.00  0.00     0.028 C 
HETATM   24  C   UNL     1     -39.887  51.715 -53.115  1.00  0.00     0.235 C 
ENDBRANCH  17  18
ENDBRANCH  16  17
ENDBRANCH  13  16
ENDBRANCH  11  12
ENDBRANCH   3  11
BRANCH   1  25
HETATM   25  C   UNL     1     -43.930  58.144 -52.638  1.00  0.00    -0.030 A 
HETATM   26  C   UNL     1     -42.645  58.666 -52.896  1.00  0.00     0.016 A 
HETATM   27  C   UNL     1     -41.530  58.252 -52.158  1.00  0.00    -0.061 A 
HETATM   28  C   UNL     1     -40.170  58.812 -52.464  1.00  0.00     0.048 C 
HETATM   29  C   UNL     1     -41.694  57.258 -51.191  1.00  0.00     0.007 A 
HETATM   30  C   UNL     1     -42.950  56.700 -50.954  1.00  0.00     0.001 A 
HETATM   31  C   UNL     1     -44.066  57.137 -51.670  1.00  0.00     0.009 A 
ENDBRANCH   1  25
BRANCH  10  32
HETATM   32  C   UNL     1     -45.512  60.392 -51.625  1.00  0.00     0.294 C 
HETATM   33  O   UNL     1     -46.316  59.876 -50.872  1.00  0.00    -0.259 OA
BRANCH  32  34
HETATM   34  O   UNL     1     -44.463  61.190 -51.326  1.00  0.00    -0.313 OA
BRANCH  34  35
HETATM   35  C   UNL     1     -44.017  61.217 -49.955  1.00  0.00     0.124 C 
HETATM   36  C   UNL     1     -42.541  60.837 -49.969  1.00  0.00     0.040 C 
HETATM   37  C   UNL     1     -44.202  62.623 -49.395  1.00  0.00     0.040 C 
ENDBRANCH  34  35
ENDBRANCH  32  34
ENDBRANCH  10  32
TORSDOF 9
ENDMDL
MODEL 8
REMARK VINA RESULT:      -7.0      1.771      2.585
REMARK  9 active torsions:
REMARK  status: ('A' for Active; 'I' for Inactive)
REMARK    1  A    between atoms: C_4  and  C_5 
REMARK    2  A    between atoms: C_7  and  C_8 
REMARK    3  A    between atoms: C_8  and  C_9 
REMARK       I    between atoms: C_9  and  N_10 
REMARK    4  A    between atoms: N_10  and  C_11 
REMARK    5  A    between atoms: C_11  and  C_12 
REMARK    6  A    between atoms: C_12  and  N_13 
REMARK    7  A    between atoms: C_27  and  C_28 
REMARK    8  A    between atoms: C_28  and  O_29 
REMARK    9  A    between atoms: O_29  and  C_30 
ROOT
HETATM    1  C   UNL     1     -43.281  59.026 -57.410  1.00  0.00     0.166 C 
HETATM    2  N   UNL     1     -43.899  58.815 -56.064  1.00  0.00    -0.319 N 
HETATM    3  C   UNL     1     -43.978  57.816 -55.236  1.00  0.00     0.011 C 
HETATM    4  C   UNL     1     -44.604  60.073 -55.485  1.00  0.00     0.170 C 
HETATM    5  S   UNL     1     -45.245  59.803 -53.900  1.00  0.00    -0.086 SA
HETATM    6  C   UNL     1     -44.832  58.052 -54.004  1.00  0.00     0.135 C 
HETATM    7  N   UNL     1     -44.740  61.205 -56.073  1.00  0.00    -0.229 NA
HETATM    8  C   UNL     1     -44.270  61.349 -57.353  1.00  0.00     0.048 C 
HETATM    9  C   UNL     1     -44.497  62.735 -57.919  1.00  0.00     0.071 C 
HETATM   10  C   UNL     1     -43.638  60.357 -58.012  1.00  0.00     0.069 C 
ENDROOT
BRANCH   3  11
HETATM   11  C   UNL     1     -43.402  56.457 -55.541  1.00  0.00     0.156 C 
BRANCH  11  12
HETATM   12  C   UNL     1     -42.165  56.091 -54.744  1.00  0.00     0.223 C 
HETATM   13  N   UNL     1     -42.336  55.082 -53.819  1.00  0.00    -0.359 N 
HETATM   14  H   UNL     1     -43.221  54.580 -53.862  1.00  0.00     0.162 HD
HETATM   15  O   UNL     1     -41.091  56.649 -54.921  1.00  0.00    -0.273 OA
BRANCH  13  16
HETATM   16  C   UNL     1     -41.208  54.253 -53.373  1.00  0.00     0.150 C 
BRANCH  16  17
HETATM   17  C   UNL     1     -40.600  53.263 -54.389  1.00  0.00     0.254 C 
BRANCH  17  18
HETATM   18  N   UNL     1     -39.897  52.100 -53.707  1.00  0.00    -0.070 N 
HETATM   19  H   UNL     1     -38.897  52.216 -53.916  1.00  0.00     0.279 HD
HETATM   20  C   UNL     1     -40.078  52.098 -52.205  1.00  0.00     0.235 C 
HETATM   21  C   UNL     1     -39.276  50.959 -51.592  1.00  0.00     0.028 C 
HETATM   22  C   UNL     1     -39.657  49.612 -52.195  1.00  0.00     0.003 C 
HETATM   23  C   UNL     1     -39.532  49.641 -53.713  1.00  0.00     0.028 C 
HETATM   24  C   UNL     1     -40.332  50.782 -54.322  1.00  0.00     0.235 C 
ENDBRANCH  17  18
ENDBRANCH  16  17
ENDBRANCH  13  16
ENDBRANCH  11  12
ENDBRANCH   3  11
BRANCH   1  25
HETATM   25  C   UNL     1     -43.579  57.845 -58.331  1.00  0.00    -0.030 A 
HETATM   26  C   UNL     1     -44.912  57.601 -58.722  1.00  0.00     0.016 A 
HETATM   27  C   UNL     1     -45.231  56.570 -59.614  1.00  0.00    -0.061 A 
HETATM   28  C   UNL     1     -46.661  56.320 -60.001  1.00  0.00     0.048 C 
HETATM   29  C   UNL     1     -44.209  55.736 -60.073  1.00  0.00     0.007 A 
HETATM   30  C   UNL     1     -42.891  55.938 -59.662  1.00  0.00     0.001 A 
HETATM   31  C   UNL     1     -42.572  56.985 -58.797  1.00  0.00     0.009 A 
ENDBRANCH   1  25
BRANCH  10  32
HETATM   32  C   UNL     1     -43.208  60.542 -59.416  1.00  0.00     0.294 C 
HETATM   33  O   UNL     1     -43.997  60.607 -60.340  1.00  0.00    -0.259 OA
BRANCH  32  34
HETATM   34  O   UNL     1     -41.870  60.732 -59.431  1.00  0.00    -0.313 OA
BRANCH  34  35
HETATM   35  C   UNL     1     -41.390  62.071 -59.673  1.00  0.00     0.124 C 
HETATM   36  C   UNL     1     -40.366  62.371 -58.585  1.00  0.00     0.040 C 
HETATM   37  C   UNL     1     -40.741  62.129 -61.051  1.00  0.00     0.040 C 
ENDBRANCH  34  35
ENDBRANCH  32  34
ENDBRANCH  10  32
TORSDOF 9
ENDMDL
MODEL 9
REMARK VINA RESULT:      -6.9      3.727      8.994
REMARK  9 active torsions:
REMARK  status: ('A' for Active; 'I' for Inactive)
REMARK    1  A    between atoms: C_4  and  C_5 
REMARK    2  A    between atoms: C_7  and  C_8 
REMARK    3  A    between atoms: C_8  and  C_9 
REMARK       I    between atoms: C_9  and  N_10 
REMARK    4  A    between atoms: N_10  and  C_11 
REMARK    5  A    between atoms: C_11  and  C_12 
REMARK    6  A    between atoms: C_12  and  N_13 
REMARK    7  A    between atoms: C_27  and  C_28 
REMARK    8  A    between atoms: C_28  and  O_29 
REMARK    9  A    between atoms: O_29  and  C_30 
ROOT
HETATM    1  C   UNL     1     -42.112  56.891 -54.516  1.00  0.00     0.166 C 
HETATM    2  N   UNL     1     -42.400  57.627 -55.786  1.00  0.00    -0.319 N 
HETATM    3  C   UNL     1     -42.313  58.865 -56.171  1.00  0.00     0.011 C 
HETATM    4  C   UNL     1     -42.906  56.721 -56.944  1.00  0.00     0.170 C 
HETATM    5  S   UNL     1     -43.161  57.602 -58.411  1.00  0.00    -0.086 SA
HETATM    6  C   UNL     1     -42.843  59.159 -57.562  1.00  0.00     0.135 C 
HETATM    7  N   UNL     1     -43.140  55.462 -56.875  1.00  0.00    -0.229 NA
HETATM    8  C   UNL     1     -42.982  54.822 -55.672  1.00  0.00     0.048 C 
HETATM    9  C   UNL     1     -43.292  53.341 -55.741  1.00  0.00     0.071 C 
HETATM   10  C   UNL     1     -42.558  55.455 -54.561  1.00  0.00     0.069 C 
ENDROOT
BRANCH   3  11
HETATM   11  C   UNL     1     -41.871  59.975 -55.251  1.00  0.00     0.156 C 
BRANCH  11  12
HETATM   12  C   UNL     1     -42.986  60.866 -54.739  1.00  0.00     0.223 C 
HETATM   13  N   UNL     1     -42.589  61.881 -53.894  1.00  0.00    -0.359 N 
HETATM   14  H   UNL     1     -41.585  62.031 -53.814  1.00  0.00     0.162 HD
HETATM   15  O   UNL     1     -44.154  60.696 -55.064  1.00  0.00    -0.273 OA
BRANCH  13  16
HETATM   16  C   UNL     1     -43.384  63.108 -53.746  1.00  0.00     0.150 C 
BRANCH  16  17
HETATM   17  C   UNL     1     -43.508  63.715 -52.332  1.00  0.00     0.254 C 
BRANCH  17  18
HETATM   18  N   UNL     1     -44.141  62.747 -51.346  1.00  0.00    -0.070 N 
HETATM   19  H   UNL     1     -43.758  61.822 -51.577  1.00  0.00     0.279 HD
HETATM   20  C   UNL     1     -43.802  63.063 -49.906  1.00  0.00     0.235 C 
HETATM   21  C   UNL     1     -44.399  62.002 -48.992  1.00  0.00     0.028 C 
HETATM   22  C   UNL     1     -45.905  61.872 -49.187  1.00  0.00     0.003 C 
HETATM   23  C   UNL     1     -46.243  61.616 -50.650  1.00  0.00     0.028 C 
HETATM   24  C   UNL     1     -45.642  62.676 -51.562  1.00  0.00     0.235 C 
ENDBRANCH  17  18
ENDBRANCH  16  17
ENDBRANCH  13  16
ENDBRANCH  11  12
ENDBRANCH   3  11
BRANCH   1  25
HETATM   25  C   UNL     1     -42.658  57.657 -53.314  1.00  0.00    -0.030 A 
HETATM   26  C   UNL     1     -41.751  58.212 -52.387  1.00  0.00     0.016 A 
HETATM   27  C   UNL     1     -42.197  58.976 -51.302  1.00  0.00    -0.061 A 
HETATM   28  C   UNL     1     -41.211  59.542 -50.319  1.00  0.00     0.048 C 
HETATM   29  C   UNL     1     -43.571  59.135 -51.109  1.00  0.00     0.007 A 
HETATM   30  C   UNL     1     -44.482  58.556 -51.992  1.00  0.00     0.001 A 
HETATM   31  C   UNL     1     -44.034  57.821 -53.091  1.00  0.00     0.009 A 
ENDBRANCH   1  25
BRANCH  10  32
HETATM   32  C   UNL     1     -42.466  54.734 -53.272  1.00  0.00     0.294 C 
HETATM   33  O   UNL     1     -43.449  54.405 -52.635  1.00  0.00    -0.259 OA
BRANCH  32  34
HETATM   34  O   UNL     1     -41.169  54.435 -53.041  1.00  0.00    -0.313 OA
BRANCH  34  35
HETATM   35  C   UNL     1     -40.835  53.051 -52.810  1.00  0.00     0.124 C 
HETATM   36  C   UNL     1     -40.086  52.570 -54.048  1.00  0.00     0.040 C 
HETATM   37  C   UNL     1     -39.948  52.949 -51.575  1.00  0.00     0.040 C 
ENDBRANCH  34  35
ENDBRANCH  32  34
ENDBRANCH  10  32
TORSDOF 9
ENDMDL
MODEL 10
REMARK VINA RESULT:      -6.9      2.247      3.230
REMARK  9 active torsions:
REMARK  status: ('A' for Active; 'I' for Inactive)
REMARK    1  A    between atoms: C_4  and  C_5 
REMARK    2  A    between atoms: C_7  and  C_8 
REMARK    3  A    between atoms: C_8  and  C_9 
REMARK       I    between atoms: C_9  and  N_10 
REMARK    4  A    between atoms: N_10  and  C_11 
REMARK    5  A    between atoms: C_11  and  C_12 
REMARK    6  A    between atoms: C_12  and  N_13 
REMARK    7  A    between atoms: C_27  and  C_28 
REMARK    8  A    between atoms: C_28  and  O_29 
REMARK    9  A    between atoms: O_29  and  C_30 
ROOT
HETATM    1  C   UNL     1     -43.270  59.258 -56.994  1.00  0.00     0.166 C 
HETATM    2  N   UNL     1     -43.589  58.539 -55.722  1.00  0.00    -0.319 N 
HETATM    3  C   UNL     1     -43.185  57.436 -55.163  1.00  0.00     0.011 C 
HETATM    4  C   UNL     1     -44.631  59.265 -54.826  1.00  0.00     0.170 C 
HETATM    5  S   UNL     1     -44.918  58.432 -53.336  1.00  0.00    -0.086 SA
HETATM    6  C   UNL     1     -43.902  57.049 -53.883  1.00  0.00     0.135 C 
HETATM    7  N   UNL     1     -45.251  60.351 -55.110  1.00  0.00    -0.229 NA
HETATM    8  C   UNL     1     -45.035  60.938 -56.330  1.00  0.00     0.048 C 
HETATM    9  C   UNL     1     -45.830  62.212 -56.528  1.00  0.00     0.071 C 
HETATM   10  C   UNL     1     -44.169  60.439 -57.235  1.00  0.00     0.069 C 
ENDROOT
BRANCH   3  11
HETATM   11  C   UNL     1     -42.190  56.510 -55.814  1.00  0.00     0.156 C 
BRANCH  11  12
HETATM   12  C   UNL     1     -41.348  55.695 -54.852  1.00  0.00     0.223 C 
HETATM   13  N   UNL     1     -41.444  54.326 -54.997  1.00  0.00    -0.359 N 
HETATM   14  H   UNL     1     -41.944  53.998 -55.821  1.00  0.00     0.162 HD
HETATM   15  O   UNL     1     -40.628  56.221 -54.014  1.00  0.00    -0.273 OA
BRANCH  13  16
HETATM   16  C   UNL     1     -40.359  53.433 -54.568  1.00  0.00     0.150 C 
BRANCH  16  17
HETATM   17  C   UNL     1     -40.521  52.710 -53.214  1.00  0.00     0.254 C 
BRANCH  17  18
HETATM   18  N   UNL     1     -40.635  53.684 -52.052  1.00  0.00    -0.070 N 
HETATM   19  H   UNL     1     -40.273  54.581 -52.403  1.00  0.00     0.279 HD
HETATM   20  C   UNL     1     -42.060  53.889 -51.589  1.00  0.00     0.235 C 
HETATM   21  C   UNL     1     -42.097  54.939 -50.487  1.00  0.00     0.028 C 
HETATM   22  C   UNL     1     -41.187  54.567 -49.323  1.00  0.00     0.003 C 
HETATM   23  C   UNL     1     -39.766  54.302 -49.806  1.00  0.00     0.028 C 
HETATM   24  C   UNL     1     -39.733  53.255 -50.909  1.00  0.00     0.235 C 
ENDBRANCH  17  18
ENDBRANCH  16  17
ENDBRANCH  13  16
ENDBRANCH  11  12
ENDBRANCH   3  11
BRANCH   1  25
HETATM   25  C   UNL     1     -43.222  58.283 -58.167  1.00  0.00    -0.030 A 
HETATM   26  C   UNL     1     -44.389  57.569 -58.512  1.00  0.00     0.016 A 
HETATM   27  C   UNL     1     -44.416  56.710 -59.617  1.00  0.00    -0.061 A 
HETATM   28  C   UNL     1     -45.667  55.948 -59.952  1.00  0.00     0.048 C 
HETATM   29  C   UNL     1     -43.243  56.518 -60.349  1.00  0.00     0.007 A 
HETATM   30  C   UNL     1     -42.069  57.183 -59.995  1.00  0.00     0.001 A 
HETATM   31  C   UNL     1     -42.053  58.063 -58.912  1.00  0.00     0.009 A 
ENDBRANCH   1  25
BRANCH  10  32
HETATM   32  C   UNL     1     -44.020  61.074 -58.564  1.00  0.00     0.294 C 
HETATM   33  O   UNL     1     -44.802  60.878 -59.475  1.00  0.00    -0.259 OA
BRANCH  32  34
HETATM   34  O   UNL     1     -42.987  61.943 -58.508  1.00  0.00    -0.313 OA
BRANCH  34  35
HETATM   35  C   UNL     1     -41.837  61.664 -59.333  1.00  0.00     0.124 C 
HETATM   36  C   UNL     1     -41.902  62.627 -60.513  1.00  0.00     0.040 C 
HETATM   37  C   UNL     1     -40.569  61.898 -58.521  1.00  0.00     0.040 C 
ENDBRANCH  34  35
ENDBRANCH  32  34
ENDBRANCH  10  32
TORSDOF 9
ENDMDL
