MODEL 1
REMARK VINA RESULT:      -7.3      0.000      0.000
REMARK  7 active torsions:
REMARK  status: ('A' for Active; 'I' for Inactive)
REMARK    1  A    between atoms: C_2  and  O_3 
REMARK    2  A    between atoms: O_3  and  C_4 
REMARK       I    between atoms: C_4  and  N_5 
REMARK    3  A    between atoms: C_8  and  N_9 
REMARK    4  A    between atoms: C_18  and  C_19 
REMARK    5  A    between atoms: C_19  and  N_20 
REMARK    6  A    between atoms: C_22  and  C_23 
REMARK    7  A    between atoms: C_23  and  O_24 
ROOT
HETATM    1  N   UNL     1     -41.897  56.535 -53.270  1.00  0.00    -0.061 N 
HETATM    2  H   UNL     1     -40.949  56.173 -53.097  1.00  0.00     0.280 HD
HETATM    3  C   UNL     1     -41.735  57.473 -54.475  1.00  0.00     0.276 C 
HETATM    4  C   UNL     1     -43.021  58.023 -55.033  1.00  0.00     0.002 A 
HETATM    5  C   UNL     1     -43.817  58.857 -54.249  1.00  0.00     0.076 A 
HETATM    6  O   UNL     1     -43.447  59.210 -52.984  1.00  0.00    -0.349 OA
HETATM    7  C   UNL     1     -43.535  58.100 -52.080  1.00  0.00     0.203 C 
HETATM    8  C   UNL     1     -42.203  57.354 -52.007  1.00  0.00     0.262 C 
HETATM    9  C   UNL     1     -43.458  57.718 -56.339  1.00  0.00     0.020 A 
HETATM   10  C   UNL     1     -44.678  58.218 -56.855  1.00  0.00    -0.032 A 
HETATM   11  C   UNL     1     -45.442  59.050 -56.025  1.00  0.00     0.011 A 
HETATM   12  C   UNL     1     -45.001  59.393 -54.745  1.00  0.00     0.038 A 
ENDROOT
BRANCH   1  13
HETATM   13  C   UNL     1     -42.801  55.316 -53.529  1.00  0.00     0.191 C 
HETATM   14  C   UNL     1     -42.305  54.495 -54.726  1.00  0.00     0.053 C 
HETATM   15  C   UNL     1     -40.972  53.816 -54.447  1.00  0.00     0.130 C 
HETATM   16  N   UNL     1     -40.973  53.072 -53.199  1.00  0.00    -0.328 N 
HETATM   17  C   UNL     1     -39.970  52.106 -53.060  1.00  0.00     0.362 C 
HETATM   18  C   UNL     1     -41.588  53.662 -52.015  1.00  0.00     0.130 C 
HETATM   19  O   UNL     1     -39.191  51.825 -53.962  1.00  0.00    -0.238 OA
HETATM   20  C   UNL     1     -42.899  54.373 -52.324  1.00  0.00     0.053 C 
BRANCH  17  21
HETATM   21  O   UNL     1     -39.953  51.545 -51.824  1.00  0.00    -0.304 OA
BRANCH  21  22
HETATM   22  C   UNL     1     -39.534  50.171 -51.759  1.00  0.00     0.176 C 
HETATM   23  C   UNL     1     -39.896  49.549 -50.422  1.00  0.00     0.034 C 
ENDBRANCH  21  22
ENDBRANCH  17  21
ENDBRANCH   1  13
BRANCH  10  24
HETATM   24  C   UNL     1     -45.197  57.733 -58.194  1.00  0.00     0.274 C 
BRANCH  24  25
HETATM   25  N   UNL     1     -44.829  58.440 -59.483  1.00  0.00    -0.054 N 
HETATM   26  H   UNL     1     -45.662  58.303 -60.071  1.00  0.00     0.281 HD
HETATM   27  C   UNL     1     -43.647  57.939 -60.335  1.00  0.00     0.287 C 
HETATM   28  C   UNL     1     -42.491  58.771 -59.824  1.00  0.00     0.045 C 
HETATM   29  C   UNL     1     -43.106  60.136 -59.539  1.00  0.00     0.030 C 
HETATM   30  C   UNL     1     -44.608  59.928 -59.384  1.00  0.00     0.236 C 
BRANCH  27  31
HETATM   31  C   UNL     1     -43.380  56.439 -60.403  1.00  0.00     0.289 C 
HETATM   32  O   UNL     1     -42.404  55.881 -59.922  1.00  0.00    -0.263 OA
BRANCH  31  33
HETATM   33  O   UNL     1     -44.421  55.824 -61.024  1.00  0.00    -0.325 OA
HETATM   34  C   UNL     1     -44.967  54.684 -60.348  1.00  0.00     0.213 C 
ENDBRANCH  31  33
ENDBRANCH  27  31
ENDBRANCH  24  25
ENDBRANCH  10  24
TORSDOF 7
ENDMDL
MODEL 2
REMARK VINA RESULT:      -7.2      2.680      6.070
REMARK  7 active torsions:
REMARK  status: ('A' for Active; 'I' for Inactive)
REMARK    1  A    between atoms: C_2  and  O_3 
REMARK    2  A    between atoms: O_3  and  C_4 
REMARK       I    between atoms: C_4  and  N_5 
REMARK    3  A    between atoms: C_8  and  N_9 
REMARK    4  A    between atoms: C_18  and  C_19 
REMARK    5  A    between atoms: C_19  and  N_20 
REMARK    6  A    between atoms: C_22  and  C_23 
REMARK    7  A    between atoms: C_23  and  O_24 
ROOT
HETATM    1  N   UNL     1     -42.804  55.333 -54.690  1.00  0.00    -0.061 N 
HETATM    2  H   UNL     1     -42.928  54.381 -54.319  1.00  0.00     0.280 HD
HETATM    3  C   UNL     1     -44.017  56.112 -54.162  1.00  0.00     0.276 C 
HETATM    4  C   UNL     1     -43.995  57.592 -54.441  1.00  0.00     0.002 A 
HETATM    5  C   UNL     1     -44.034  58.051 -55.756  1.00  0.00     0.076 A 
HETATM    6  O   UNL     1     -44.114  57.186 -56.809  1.00  0.00    -0.349 OA
HETATM    7  C   UNL     1     -42.891  56.457 -56.987  1.00  0.00     0.203 C 
HETATM    8  C   UNL     1     -42.926  55.142 -56.210  1.00  0.00     0.262 C 
HETATM    9  C   UNL     1     -43.934  58.546 -53.403  1.00  0.00     0.020 A 
HETATM   10  C   UNL     1     -43.892  59.936 -53.667  1.00  0.00    -0.032 A 
HETATM   11  C   UNL     1     -43.931  60.344 -55.007  1.00  0.00     0.011 A 
HETATM   12  C   UNL     1     -44.033  59.412 -56.042  1.00  0.00     0.038 A 
ENDROOT
BRANCH   1  13
HETATM   13  C   UNL     1     -41.446  55.841 -54.173  1.00  0.00     0.191 C 
HETATM   14  C   UNL     1     -41.378  55.798 -52.641  1.00  0.00     0.053 C 
HETATM   15  C   UNL     1     -41.382  54.375 -52.103  1.00  0.00     0.130 C 
HETATM   16  N   UNL     1     -40.390  53.530 -52.747  1.00  0.00    -0.328 N 
HETATM   17  C   UNL     1     -40.041  52.362 -52.061  1.00  0.00     0.362 C 
HETATM   18  C   UNL     1     -40.214  53.609 -54.193  1.00  0.00     0.130 C 
HETATM   19  O   UNL     1     -40.464  52.099 -50.942  1.00  0.00    -0.238 OA
HETATM   20  C   UNL     1     -40.257  55.039 -54.715  1.00  0.00     0.053 C 
BRANCH  17  21
HETATM   21  O   UNL     1     -39.212  51.562 -52.779  1.00  0.00    -0.304 OA
BRANCH  21  22
HETATM   22  C   UNL     1     -39.644  50.202 -52.959  1.00  0.00     0.176 C 
HETATM   23  C   UNL     1     -39.917  49.903 -54.423  1.00  0.00     0.034 C 
ENDBRANCH  21  22
ENDBRANCH  17  21
ENDBRANCH   1  13
BRANCH  10  24
HETATM   24  C   UNL     1     -43.654  60.920 -52.539  1.00  0.00     0.274 C 
BRANCH  24  25
HETATM   25  N   UNL     1     -44.760  61.829 -52.043  1.00  0.00    -0.054 N 
HETATM   26  H   UNL     1     -44.260  62.503 -51.447  1.00  0.00     0.281 HD
HETATM   27  C   UNL     1     -45.889  61.269 -51.157  1.00  0.00     0.287 C 
HETATM   28  C   UNL     1     -46.958  60.911 -52.166  1.00  0.00     0.045 C 
HETATM   29  C   UNL     1     -46.864  62.008 -53.220  1.00  0.00     0.030 C 
HETATM   30  C   UNL     1     -45.481  62.634 -53.095  1.00  0.00     0.236 C 
BRANCH  27  31
HETATM   31  C   UNL     1     -45.554  60.168 -50.156  1.00  0.00     0.289 C 
HETATM   32  O   UNL     1     -46.000  59.030 -50.194  1.00  0.00    -0.263 OA
BRANCH  31  33
HETATM   33  O   UNL     1     -44.643  60.635 -49.262  1.00  0.00    -0.325 OA
HETATM   34  C   UNL     1     -45.165  61.447 -48.203  1.00  0.00     0.213 C 
ENDBRANCH  31  33
ENDBRANCH  27  31
ENDBRANCH  24  25
ENDBRANCH  10  24
TORSDOF 7
ENDMDL
MODEL 3
REMARK VINA RESULT:      -7.1      3.513      7.180
REMARK  7 active torsions:
REMARK  status: ('A' for Active; 'I' for Inactive)
REMARK    1  A    between atoms: C_2  and  O_3 
REMARK    2  A    between atoms: O_3  and  C_4 
REMARK       I    between atoms: C_4  and  N_5 
REMARK    3  A    between atoms: C_8  and  N_9 
REMARK    4  A    between atoms: C_18  and  C_19 
REMARK    5  A    between atoms: C_19  and  N_20 
REMARK    6  A    between atoms: C_22  and  C_23 
REMARK    7  A    between atoms: C_23  and  O_24 
ROOT
HETATM    1  N   UNL     1     -43.316  55.968 -52.856  1.00  0.00    -0.061 N 
HETATM    2  H   UNL     1     -43.400  55.011 -52.486  1.00  0.00     0.280 HD
HETATM    3  C   UNL     1     -44.276  56.799 -51.994  1.00  0.00     0.276 C 
HETATM    4  C   UNL     1     -44.227  58.285 -52.237  1.00  0.00     0.002 A 
HETATM    5  C   UNL     1     -44.595  58.798 -53.479  1.00  0.00     0.076 A 
HETATM    6  O   UNL     1     -45.025  57.983 -54.486  1.00  0.00    -0.349 OA
HETATM    7  C   UNL     1     -43.953  57.188 -55.014  1.00  0.00     0.203 C 
HETATM    8  C   UNL     1     -43.866  55.847 -54.286  1.00  0.00     0.262 C 
HETATM    9  C   UNL     1     -43.815  59.190 -51.236  1.00  0.00     0.020 A 
HETATM   10  C   UNL     1     -43.748  60.584 -51.472  1.00  0.00    -0.032 A 
HETATM   11  C   UNL     1     -44.127  61.048 -52.739  1.00  0.00     0.011 A 
HETATM   12  C   UNL     1     -44.577  60.167 -53.724  1.00  0.00     0.038 A 
ENDROOT
BRANCH   1  13
HETATM   13  C   UNL     1     -41.835  56.369 -52.727  1.00  0.00     0.191 C 
HETATM   14  C   UNL     1     -41.281  56.026 -51.338  1.00  0.00     0.053 C 
HETATM   15  C   UNL     1     -41.198  54.525 -51.104  1.00  0.00     0.130 C 
HETATM   16  N   UNL     1     -40.520  53.827 -52.184  1.00  0.00    -0.328 N 
HETATM   17  C   UNL     1     -40.041  52.547 -51.881  1.00  0.00     0.362 C 
HETATM   18  C   UNL     1     -40.814  54.189 -53.566  1.00  0.00     0.130 C 
HETATM   19  O   UNL     1     -40.097  52.068 -50.755  1.00  0.00    -0.238 OA
HETATM   20  C   UNL     1     -40.935  55.693 -53.768  1.00  0.00     0.053 C 
BRANCH  17  21
HETATM   21  O   UNL     1     -39.538  51.908 -52.967  1.00  0.00    -0.304 OA
BRANCH  21  22
HETATM   22  C   UNL     1     -39.736  50.483 -53.010  1.00  0.00     0.176 C 
HETATM   23  C   UNL     1     -39.647  49.961 -54.433  1.00  0.00     0.034 C 
ENDBRANCH  21  22
ENDBRANCH  17  21
ENDBRANCH   1  13
BRANCH  10  24
HETATM   24  C   UNL     1     -43.138  61.505 -50.434  1.00  0.00     0.274 C 
BRANCH  24  25
HETATM   25  N   UNL     1     -43.943  62.626 -49.807  1.00  0.00    -0.054 N 
HETATM   26  H   UNL     1     -43.306  63.000 -49.091  1.00  0.00     0.281 HD
HETATM   27  C   UNL     1     -45.254  62.319 -49.060  1.00  0.00     0.287 C 
HETATM   28  C   UNL     1     -46.301  62.488 -50.140  1.00  0.00     0.045 C 
HETATM   29  C   UNL     1     -45.792  63.653 -50.979  1.00  0.00     0.030 C 
HETATM   30  C   UNL     1     -44.296  63.778 -50.715  1.00  0.00     0.236 C 
BRANCH  27  31
HETATM   31  C   UNL     1     -45.354  61.022 -48.263  1.00  0.00     0.289 C 
HETATM   32  O   UNL     1     -45.982  60.033 -48.616  1.00  0.00    -0.263 OA
BRANCH  31  33
HETATM   33  O   UNL     1     -44.593  61.122 -47.142  1.00  0.00    -0.325 OA
HETATM   34  C   UNL     1     -45.242  60.778 -45.912  1.00  0.00     0.213 C 
ENDBRANCH  31  33
ENDBRANCH  27  31
ENDBRANCH  24  25
ENDBRANCH  10  24
TORSDOF 7
ENDMDL
MODEL 4
REMARK VINA RESULT:      -7.0      2.545      5.595
REMARK  7 active torsions:
REMARK  status: ('A' for Active; 'I' for Inactive)
REMARK    1  A    between atoms: C_2  and  O_3 
REMARK    2  A    between atoms: O_3  and  C_4 
REMARK       I    between atoms: C_4  and  N_5 
REMARK    3  A    between atoms: C_8  and  N_9 
REMARK    4  A    between atoms: C_18  and  C_19 
REMARK    5  A    between atoms: C_19  and  N_20 
REMARK    6  A    between atoms: C_22  and  C_23 
REMARK    7  A    between atoms: C_23  and  O_24 
ROOT
HETATM    1  N   UNL     1     -42.848  55.121 -55.084  1.00  0.00    -0.061 N 
HETATM    2  H   UNL     1     -42.799  54.106 -54.922  1.00  0.00     0.280 HD
HETATM    3  C   UNL     1     -44.243  55.522 -54.586  1.00  0.00     0.276 C 
HETATM    4  C   UNL     1     -44.513  57.004 -54.571  1.00  0.00     0.002 A 
HETATM    5  C   UNL     1     -44.526  57.720 -55.767  1.00  0.00     0.076 A 
HETATM    6  O   UNL     1     -44.320  57.102 -56.967  1.00  0.00    -0.349 OA
HETATM    7  C   UNL     1     -42.958  56.676 -57.114  1.00  0.00     0.203 C 
HETATM    8  C   UNL     1     -42.784  55.242 -56.614  1.00  0.00     0.262 C 
HETATM    9  C   UNL     1     -44.756  57.706 -53.372  1.00  0.00     0.020 A 
HETATM   10  C   UNL     1     -44.988  59.103 -53.357  1.00  0.00    -0.032 A 
HETATM   11  C   UNL     1     -44.987  59.775 -54.587  1.00  0.00     0.011 A 
HETATM   12  C   UNL     1     -44.790  59.085 -55.785  1.00  0.00     0.038 A 
ENDROOT
BRANCH   1  13
HETATM   13  C   UNL     1     -41.685  55.755 -54.300  1.00  0.00     0.191 C 
HETATM   14  C   UNL     1     -41.874  55.592 -52.786  1.00  0.00     0.053 C 
HETATM   15  C   UNL     1     -41.767  54.140 -52.345  1.00  0.00     0.130 C 
HETATM   16  N   UNL     1     -40.570  53.488 -52.849  1.00  0.00    -0.328 N 
HETATM   17  C   UNL     1     -40.180  52.321 -52.183  1.00  0.00     0.362 C 
HETATM   18  C   UNL     1     -40.162  53.711 -54.231  1.00  0.00     0.130 C 
HETATM   19  O   UNL     1     -40.746  51.912 -51.177  1.00  0.00    -0.238 OA
HETATM   20  C   UNL     1     -40.318  55.162 -54.665  1.00  0.00     0.053 C 
BRANCH  17  21
HETATM   21  O   UNL     1     -39.135  51.700 -52.786  1.00  0.00    -0.304 OA
BRANCH  21  22
HETATM   22  C   UNL     1     -39.297  50.293 -53.040  1.00  0.00     0.176 C 
HETATM   23  C   UNL     1     -40.157  50.052 -54.268  1.00  0.00     0.034 C 
ENDBRANCH  21  22
ENDBRANCH  17  21
ENDBRANCH   1  13
BRANCH  10  24
HETATM   24  C   UNL     1     -45.073  59.848 -52.040  1.00  0.00     0.274 C 
BRANCH  24  25
HETATM   25  N   UNL     1     -44.288  61.124 -51.806  1.00  0.00    -0.054 N 
HETATM   26  H   UNL     1     -44.293  61.575 -52.731  1.00  0.00     0.281 HD
HETATM   27  C   UNL     1     -42.804  61.061 -51.397  1.00  0.00     0.287 C 
HETATM   28  C   UNL     1     -42.873  61.104 -49.886  1.00  0.00     0.045 C 
HETATM   29  C   UNL     1     -44.029  62.051 -49.588  1.00  0.00     0.030 C 
HETATM   30  C   UNL     1     -44.896  62.109 -50.840  1.00  0.00     0.236 C 
BRANCH  27  31
HETATM   31  C   UNL     1     -41.936  59.946 -51.971  1.00  0.00     0.289 C 
HETATM   32  O   UNL     1     -41.670  58.901 -51.394  1.00  0.00    -0.263 OA
BRANCH  31  33
HETATM   33  O   UNL     1     -41.561  60.272 -53.235  1.00  0.00    -0.325 OA
HETATM   34  C   UNL     1     -41.332  59.171 -54.124  1.00  0.00     0.213 C 
ENDBRANCH  31  33
ENDBRANCH  27  31
ENDBRANCH  24  25
ENDBRANCH  10  24
TORSDOF 7
ENDMDL
MODEL 5
REMARK VINA RESULT:      -6.7      3.072      8.287
REMARK  7 active torsions:
REMARK  status: ('A' for Active; 'I' for Inactive)
REMARK    1  A    between atoms: C_2  and  O_3 
REMARK    2  A    between atoms: O_3  and  C_4 
REMARK       I    between atoms: C_4  and  N_5 
REMARK    3  A    between atoms: C_8  and  N_9 
REMARK    4  A    between atoms: C_18  and  C_19 
REMARK    5  A    between atoms: C_19  and  N_20 
REMARK    6  A    between atoms: C_22  and  C_23 
REMARK    7  A    between atoms: C_23  and  O_24 
ROOT
HETATM    1  N   UNL     1     -43.700  59.186 -53.795  1.00  0.00    -0.061 N 
HETATM    2  H   UNL     1     -43.548  60.147 -53.462  1.00  0.00     0.280 HD
HETATM    3  C   UNL     1     -42.403  58.827 -54.534  1.00  0.00     0.276 C 
HETATM    4  C   UNL     1     -42.306  57.396 -54.994  1.00  0.00     0.002 A 
HETATM    5  C   UNL     1     -43.205  56.909 -55.942  1.00  0.00     0.076 A 
HETATM    6  O   UNL     1     -44.167  57.710 -56.486  1.00  0.00    -0.349 OA
HETATM    7  C   UNL     1     -45.187  58.033 -55.530  1.00  0.00     0.203 C 
HETATM    8  C   UNL     1     -44.851  59.334 -54.801  1.00  0.00     0.262 C 
HETATM    9  C   UNL     1     -41.324  56.516 -54.492  1.00  0.00     0.020 A 
HETATM   10  C   UNL     1     -41.248  55.165 -54.909  1.00  0.00    -0.032 A 
HETATM   11  C   UNL     1     -42.177  54.726 -55.862  1.00  0.00     0.011 A 
HETATM   12  C   UNL     1     -43.127  55.598 -56.398  1.00  0.00     0.038 A 
ENDROOT
BRANCH   1  13
HETATM   13  C   UNL     1     -43.985  58.322 -52.554  1.00  0.00     0.191 C 
HETATM   14  C   UNL     1     -42.997  58.626 -51.420  1.00  0.00     0.053 C 
HETATM   15  C   UNL     1     -43.184  60.025 -50.852  1.00  0.00     0.130 C 
HETATM   16  N   UNL     1     -44.566  60.307 -50.502  1.00  0.00    -0.328 N 
HETATM   17  C   UNL     1     -44.770  61.373 -49.619  1.00  0.00     0.362 C 
HETATM   18  C   UNL     1     -45.631  59.897 -51.410  1.00  0.00     0.130 C 
HETATM   19  O   UNL     1     -43.847  61.979 -49.088  1.00  0.00    -0.238 OA
HETATM   20  C   UNL     1     -45.403  58.512 -52.000  1.00  0.00     0.053 C 
BRANCH  17  21
HETATM   21  O   UNL     1     -46.084  61.660 -49.441  1.00  0.00    -0.304 OA
BRANCH  21  22
HETATM   22  C   UNL     1     -46.412  62.415 -48.261  1.00  0.00     0.176 C 
HETATM   23  C   UNL     1     -46.501  61.514 -47.041  1.00  0.00     0.034 C 
ENDBRANCH  21  22
ENDBRANCH  17  21
ENDBRANCH   1  13
BRANCH  10  24
HETATM   24  C   UNL     1     -40.294  54.208 -54.224  1.00  0.00     0.274 C 
BRANCH  24  25
HETATM   25  N   UNL     1     -40.805  53.076 -53.355  1.00  0.00    -0.054 N 
HETATM   26  H   UNL     1     -41.730  52.872 -53.757  1.00  0.00     0.281 HD
HETATM   27  C   UNL     1     -41.059  53.301 -51.853  1.00  0.00     0.287 C 
HETATM   28  C   UNL     1     -39.749  52.878 -51.226  1.00  0.00     0.045 C 
HETATM   29  C   UNL     1     -39.291  51.695 -52.071  1.00  0.00     0.030 C 
HETATM   30  C   UNL     1     -40.017  51.791 -53.408  1.00  0.00     0.236 C 
BRANCH  27  31
HETATM   31  C   UNL     1     -41.582  54.660 -51.397  1.00  0.00     0.289 C 
HETATM   32  O   UNL     1     -40.901  55.529 -50.871  1.00  0.00    -0.263 OA
BRANCH  31  33
HETATM   33  O   UNL     1     -42.897  54.768 -51.721  1.00  0.00    -0.325 OA
HETATM   34  C   UNL     1     -43.808  54.866 -50.619  1.00  0.00     0.213 C 
ENDBRANCH  31  33
ENDBRANCH  27  31
ENDBRANCH  24  25
ENDBRANCH  10  24
TORSDOF 7
ENDMDL
MODEL 6
REMARK VINA RESULT:      -6.6      3.225      6.456
REMARK  7 active torsions:
REMARK  status: ('A' for Active; 'I' for Inactive)
REMARK    1  A    between atoms: C_2  and  O_3 
REMARK    2  A    between atoms: O_3  and  C_4 
REMARK       I    between atoms: C_4  and  N_5 
REMARK    3  A    between atoms: C_8  and  N_9 
REMARK    4  A    between atoms: C_18  and  C_19 
REMARK    5  A    between atoms: C_19  and  N_20 
REMARK    6  A    between atoms: C_22  and  C_23 
REMARK    7  A    between atoms: C_23  and  O_24 
ROOT
HETATM    1  N   UNL     1     -43.450  58.074 -51.503  1.00  0.00    -0.061 N 
HETATM    2  H   UNL     1     -44.029  58.146 -50.655  1.00  0.00     0.280 HD
HETATM    3  C   UNL     1     -44.246  57.150 -52.435  1.00  0.00     0.276 C 
HETATM    4  C   UNL     1     -43.681  57.002 -53.823  1.00  0.00     0.002 A 
HETATM    5  C   UNL     1     -42.427  56.420 -54.004  1.00  0.00     0.076 A 
HETATM    6  O   UNL     1     -41.700  55.954 -52.946  1.00  0.00    -0.349 OA
HETATM    7  C   UNL     1     -41.202  57.028 -52.136  1.00  0.00     0.203 C 
HETATM    8  C   UNL     1     -42.183  57.358 -51.012  1.00  0.00     0.262 C 
HETATM    9  C   UNL     1     -44.383  57.441 -54.965  1.00  0.00     0.020 A 
HETATM   10  C   UNL     1     -43.842  57.321 -56.267  1.00  0.00    -0.032 A 
HETATM   11  C   UNL     1     -42.577  56.731 -56.394  1.00  0.00     0.011 A 
HETATM   12  C   UNL     1     -41.889  56.255 -55.275  1.00  0.00     0.038 A 
ENDROOT
BRANCH   1  13
HETATM   13  C   UNL     1     -43.261  59.506 -52.037  1.00  0.00     0.191 C 
HETATM   14  C   UNL     1     -44.607  60.170 -52.350  1.00  0.00     0.053 C 
HETATM   15  C   UNL     1     -45.427  60.432 -51.095  1.00  0.00     0.130 C 
HETATM   16  N   UNL     1     -44.669  61.124 -50.066  1.00  0.00    -0.328 N 
HETATM   17  C   UNL     1     -45.423  61.758 -49.072  1.00  0.00     0.362 C 
HETATM   18  C   UNL     1     -43.296  60.716 -49.794  1.00  0.00     0.130 C 
HETATM   19  O   UNL     1     -46.646  61.818 -49.104  1.00  0.00    -0.238 OA
HETATM   20  C   UNL     1     -42.507  60.418 -51.061  1.00  0.00     0.053 C 
BRANCH  17  21
HETATM   21  O   UNL     1     -44.652  62.270 -48.079  1.00  0.00    -0.304 OA
BRANCH  21  22
HETATM   22  C   UNL     1     -45.233  62.270 -46.764  1.00  0.00     0.176 C 
HETATM   23  C   UNL     1     -44.828  61.030 -45.985  1.00  0.00     0.034 C 
ENDBRANCH  21  22
ENDBRANCH  17  21
ENDBRANCH   1  13
BRANCH  10  24
HETATM   24  C   UNL     1     -44.547  57.957 -57.448  1.00  0.00     0.274 C 
BRANCH  24  25
HETATM   25  N   UNL     1     -45.752  57.300 -58.092  1.00  0.00    -0.054 N 
HETATM   26  H   UNL     1     -45.990  56.548 -57.430  1.00  0.00     0.281 HD
HETATM   27  C   UNL     1     -45.621  56.605 -59.460  1.00  0.00     0.287 C 
HETATM   28  C   UNL     1     -45.997  57.704 -60.430  1.00  0.00     0.045 C 
HETATM   29  C   UNL     1     -47.104  58.471 -59.718  1.00  0.00     0.030 C 
HETATM   30  C   UNL     1     -46.983  58.160 -58.231  1.00  0.00     0.236 C 
BRANCH  27  31
HETATM   31  C   UNL     1     -44.322  55.875 -59.787  1.00  0.00     0.289 C 
HETATM   32  O   UNL     1     -44.007  54.778 -59.347  1.00  0.00    -0.263 OA
BRANCH  31  33
HETATM   33  O   UNL     1     -43.608  56.605 -60.683  1.00  0.00    -0.325 OA
HETATM   34  C   UNL     1     -42.358  57.124 -60.214  1.00  0.00     0.213 C 
ENDBRANCH  31  33
ENDBRANCH  27  31
ENDBRANCH  24  25
ENDBRANCH  10  24
TORSDOF 7
ENDMDL
MODEL 7
REMARK VINA RESULT:      -6.5      2.895      6.754
REMARK  7 active torsions:
REMARK  status: ('A' for Active; 'I' for Inactive)
REMARK    1  A    between atoms: C_2  and  O_3 
REMARK    2  A    between atoms: O_3  and  C_4 
REMARK       I    between atoms: C_4  and  N_5 
REMARK    3  A    between atoms: C_8  and  N_9 
REMARK    4  A    between atoms: C_18  and  C_19 
REMARK    5  A    between atoms: C_19  and  N_20 
REMARK    6  A    between atoms: C_22  and  C_23 
REMARK    7  A    between atoms: C_23  and  O_24 
ROOT
HETATM    1  N   UNL     1     -43.109  57.106 -51.436  1.00  0.00    -0.061 N 
HETATM    2  H   UNL     1     -43.836  57.334 -50.745  1.00  0.00     0.280 HD
HETATM    3  C   UNL     1     -43.655  55.879 -52.179  1.00  0.00     0.276 C 
HETATM    4  C   UNL     1     -42.836  55.433 -53.362  1.00  0.00     0.002 A 
HETATM    5  C   UNL     1     -41.533  54.975 -53.171  1.00  0.00     0.076 A 
HETATM    6  O   UNL     1     -40.982  54.898 -51.925  1.00  0.00    -0.349 OA
HETATM    7  C   UNL     1     -40.716  56.200 -51.385  1.00  0.00     0.203 C 
HETATM    8  C   UNL     1     -41.907  56.701 -50.569  1.00  0.00     0.262 C 
HETATM    9  C   UNL     1     -43.346  55.464 -54.677  1.00  0.00     0.020 A 
HETATM   10  C   UNL     1     -42.568  55.065 -55.790  1.00  0.00    -0.032 A 
HETATM   11  C   UNL     1     -41.264  54.615 -55.544  1.00  0.00     0.011 A 
HETATM   12  C   UNL     1     -40.761  54.540 -54.243  1.00  0.00     0.038 A 
ENDROOT
BRANCH   1  13
HETATM   13  C   UNL     1     -42.924  58.355 -52.318  1.00  0.00     0.191 C 
HETATM   14  C   UNL     1     -44.273  58.915 -52.785  1.00  0.00     0.053 C 
HETATM   15  C   UNL     1     -45.089  59.488 -51.636  1.00  0.00     0.130 C 
HETATM   16  N   UNL     1     -44.330  60.420 -50.819  1.00  0.00    -0.328 N 
HETATM   17  C   UNL     1     -45.082  61.286 -50.017  1.00  0.00     0.362 C 
HETATM   18  C   UNL     1     -42.955  60.097 -50.456  1.00  0.00     0.130 C 
HETATM   19  O   UNL     1     -46.304  61.334 -50.059  1.00  0.00    -0.238 OA
HETATM   20  C   UNL     1     -42.169  59.486 -51.609  1.00  0.00     0.053 C 
BRANCH  17  21
HETATM   21  O   UNL     1     -44.308  62.034 -49.190  1.00  0.00    -0.304 OA
BRANCH  21  22
HETATM   22  C   UNL     1     -44.250  63.442 -49.482  1.00  0.00     0.176 C 
HETATM   23  C   UNL     1     -42.864  63.847 -49.952  1.00  0.00     0.034 C 
ENDBRANCH  21  22
ENDBRANCH  17  21
ENDBRANCH   1  13
BRANCH  10  24
HETATM   24  C   UNL     1     -43.088  55.274 -57.198  1.00  0.00     0.274 C 
BRANCH  24  25
HETATM   25  N   UNL     1     -42.514  56.351 -58.097  1.00  0.00    -0.054 N 
HETATM   26  H   UNL     1     -41.536  56.420 -57.785  1.00  0.00     0.281 HD
HETATM   27  C   UNL     1     -43.059  57.791 -58.032  1.00  0.00     0.287 C 
HETATM   28  C   UNL     1     -44.124  57.792 -59.106  1.00  0.00     0.045 C 
HETATM   29  C   UNL     1     -43.550  56.911 -60.208  1.00  0.00     0.030 C 
HETATM   30  C   UNL     1     -42.477  56.037 -59.571  1.00  0.00     0.236 C 
BRANCH  27  31
HETATM   31  C   UNL     1     -43.505  58.343 -56.682  1.00  0.00     0.289 C 
HETATM   32  O   UNL     1     -44.669  58.458 -56.325  1.00  0.00    -0.263 OA
BRANCH  31  33
HETATM   33  O   UNL     1     -42.411  58.625 -55.927  1.00  0.00    -0.325 OA
HETATM   34  C   UNL     1     -42.153  60.015 -55.693  1.00  0.00     0.213 C 
ENDBRANCH  31  33
ENDBRANCH  27  31
ENDBRANCH  24  25
ENDBRANCH  10  24
TORSDOF 7
ENDMDL
MODEL 8
REMARK VINA RESULT:      -6.5      2.224      8.377
REMARK  7 active torsions:
REMARK  status: ('A' for Active; 'I' for Inactive)
REMARK    1  A    between atoms: C_2  and  O_3 
REMARK    2  A    between atoms: O_3  and  C_4 
REMARK       I    between atoms: C_4  and  N_5 
REMARK    3  A    between atoms: C_8  and  N_9 
REMARK    4  A    between atoms: C_18  and  C_19 
REMARK    5  A    between atoms: C_19  and  N_20 
REMARK    6  A    between atoms: C_22  and  C_23 
REMARK    7  A    between atoms: C_23  and  O_24 
ROOT
HETATM    1  N   UNL     1     -43.990  59.464 -53.762  1.00  0.00    -0.061 N 
HETATM    2  H   UNL     1     -44.847  59.868 -54.162  1.00  0.00     0.280 HD
HETATM    3  C   UNL     1     -44.414  58.958 -52.376  1.00  0.00     0.276 C 
HETATM    4  C   UNL     1     -43.362  58.176 -51.633  1.00  0.00     0.002 A 
HETATM    5  C   UNL     1     -42.174  58.799 -51.252  1.00  0.00     0.076 A 
HETATM    6  O   UNL     1     -41.946  60.118 -51.517  1.00  0.00    -0.349 OA
HETATM    7  C   UNL     1     -41.740  60.346 -52.919  1.00  0.00     0.203 C 
HETATM    8  C   UNL     1     -43.060  60.678 -53.613  1.00  0.00     0.262 C 
HETATM    9  C   UNL     1     -43.537  56.815 -51.305  1.00  0.00     0.020 A 
HETATM   10  C   UNL     1     -42.539  56.076 -50.626  1.00  0.00    -0.032 A 
HETATM   11  C   UNL     1     -41.362  56.749 -50.268  1.00  0.00     0.011 A 
HETATM   12  C   UNL     1     -41.194  58.106 -50.550  1.00  0.00     0.038 A 
ENDROOT
BRANCH   1  13
HETATM   13  C   UNL     1     -43.522  58.360 -54.728  1.00  0.00     0.191 C 
HETATM   14  C   UNL     1     -44.643  57.353 -55.013  1.00  0.00     0.053 C 
HETATM   15  C   UNL     1     -45.785  57.971 -55.806  1.00  0.00     0.130 C 
HETATM   16  N   UNL     1     -45.326  58.674 -56.993  1.00  0.00    -0.328 N 
HETATM   17  C   UNL     1     -46.293  58.912 -57.976  1.00  0.00     0.362 C 
HETATM   18  C   UNL     1     -44.145  59.525 -56.908  1.00  0.00     0.130 C 
HETATM   19  O   UNL     1     -47.436  58.479 -57.901  1.00  0.00    -0.238 OA
HETATM   20  C   UNL     1     -43.031  58.907 -56.074  1.00  0.00     0.053 C 
BRANCH  17  21
HETATM   21  O   UNL     1     -45.826  59.682 -58.991  1.00  0.00    -0.304 OA
BRANCH  21  22
HETATM   22  C   UNL     1     -45.634  59.018 -60.253  1.00  0.00     0.176 C 
HETATM   23  C   UNL     1     -44.158  58.880 -60.581  1.00  0.00     0.034 C 
ENDBRANCH  21  22
ENDBRANCH  17  21
ENDBRANCH   1  13
BRANCH  10  24
HETATM   24  C   UNL     1     -42.689  54.579 -50.444  1.00  0.00     0.274 C 
BRANCH  24  25
HETATM   25  N   UNL     1     -42.501  53.623 -51.605  1.00  0.00    -0.054 N 
HETATM   26  H   UNL     1     -43.028  52.790 -51.310  1.00  0.00     0.281 HD
HETATM   27  C   UNL     1     -41.096  53.104 -51.966  1.00  0.00     0.287 C 
HETATM   28  C   UNL     1     -40.634  54.095 -53.012  1.00  0.00     0.045 C 
HETATM   29  C   UNL     1     -41.894  54.421 -53.805  1.00  0.00     0.030 C 
HETATM   30  C   UNL     1     -43.084  54.058 -52.926  1.00  0.00     0.236 C 
BRANCH  27  31
HETATM   31  C   UNL     1     -40.101  52.847 -50.839  1.00  0.00     0.289 C 
HETATM   32  O   UNL     1     -39.301  53.668 -50.413  1.00  0.00    -0.263 OA
BRANCH  31  33
HETATM   33  O   UNL     1     -40.288  51.592 -50.351  1.00  0.00    -0.325 OA
HETATM   34  C   UNL     1     -39.599  50.543 -51.043  1.00  0.00     0.213 C 
ENDBRANCH  31  33
ENDBRANCH  27  31
ENDBRANCH  24  25
ENDBRANCH  10  24
TORSDOF 7
ENDMDL
MODEL 9
REMARK VINA RESULT:      -6.5      3.044      6.483
REMARK  7 active torsions:
REMARK  status: ('A' for Active; 'I' for Inactive)
REMARK    1  A    between atoms: C_2  and  O_3 
REMARK    2  A    between atoms: O_3  and  C_4 
REMARK       I    between atoms: C_4  and  N_5 
REMARK    3  A    between atoms: C_8  and  N_9 
REMARK    4  A    between atoms: C_18  and  C_19 
REMARK    5  A    between atoms: C_19  and  N_20 
REMARK    6  A    between atoms: C_22  and  C_23 
REMARK    7  A    between atoms: C_23  and  O_24 
ROOT
HETATM    1  N   UNL     1     -43.459  57.883 -52.012  1.00  0.00    -0.061 N 
HETATM    2  H   UNL     1     -44.042  58.556 -51.496  1.00  0.00     0.280 HD
HETATM    3  C   UNL     1     -44.410  57.263 -53.045  1.00  0.00     0.276 C 
HETATM    4  C   UNL     1     -43.757  56.341 -54.041  1.00  0.00     0.002 A 
HETATM    5  C   UNL     1     -43.155  55.161 -53.606  1.00  0.00     0.076 A 
HETATM    6  O   UNL     1     -43.162  54.805 -52.288  1.00  0.00    -0.349 OA
HETATM    7  C   UNL     1     -42.308  55.653 -51.508  1.00  0.00     0.203 C 
HETATM    8  C   UNL     1     -43.091  56.839 -50.946  1.00  0.00     0.262 C 
HETATM    9  C   UNL     1     -43.729  56.634 -55.421  1.00  0.00     0.020 A 
HETATM   10  C   UNL     1     -43.096  55.778 -56.354  1.00  0.00    -0.032 A 
HETATM   11  C   UNL     1     -42.504  54.606 -55.863  1.00  0.00     0.011 A 
HETATM   12  C   UNL     1     -42.561  54.284 -54.506  1.00  0.00     0.038 A 
ENDROOT
BRANCH   1  13
HETATM   13  C   UNL     1     -42.289  58.678 -52.620  1.00  0.00     0.191 C 
HETATM   14  C   UNL     1     -42.788  59.752 -53.594  1.00  0.00     0.053 C 
HETATM   15  C   UNL     1     -43.558  60.859 -52.888  1.00  0.00     0.130 C 
HETATM   16  N   UNL     1     -42.837  61.403 -51.750  1.00  0.00    -0.328 N 
HETATM   17  C   UNL     1     -43.258  62.661 -51.302  1.00  0.00     0.362 C 
HETATM   18  C   UNL     1     -42.147  60.496 -50.839  1.00  0.00     0.130 C 
HETATM   19  O   UNL     1     -44.115  63.317 -51.879  1.00  0.00    -0.238 OA
HETATM   20  C   UNL     1     -41.420  59.373 -51.565  1.00  0.00     0.053 C 
BRANCH  17  21
HETATM   21  O   UNL     1     -42.629  63.046 -50.162  1.00  0.00    -0.304 OA
BRANCH  21  22
HETATM   22  C   UNL     1     -42.948  64.363 -49.679  1.00  0.00     0.176 C 
HETATM   23  C   UNL     1     -43.977  64.303 -48.564  1.00  0.00     0.034 C 
ENDBRANCH  21  22
ENDBRANCH  17  21
ENDBRANCH   1  13
BRANCH  10  24
HETATM   24  C   UNL     1     -42.937  56.208 -57.798  1.00  0.00     0.274 C 
BRANCH  24  25
HETATM   25  N   UNL     1     -43.064  57.663 -58.204  1.00  0.00    -0.054 N 
HETATM   26  H   UNL     1     -43.183  58.148 -57.304  1.00  0.00     0.281 HD
HETATM   27  C   UNL     1     -44.249  58.128 -59.072  1.00  0.00     0.287 C 
HETATM   28  C   UNL     1     -43.693  58.028 -60.476  1.00  0.00     0.045 C 
HETATM   29  C   UNL     1     -42.236  58.450 -60.335  1.00  0.00     0.030 C 
HETATM   30  C   UNL     1     -41.857  58.274 -58.869  1.00  0.00     0.236 C 
BRANCH  27  31
HETATM   31  C   UNL     1     -45.607  57.465 -58.869  1.00  0.00     0.289 C 
HETATM   32  O   UNL     1     -46.440  57.817 -58.044  1.00  0.00    -0.263 OA
BRANCH  31  33
HETATM   33  O   UNL     1     -45.765  56.472 -59.782  1.00  0.00    -0.325 OA
HETATM   34  C   UNL     1     -47.078  56.336 -60.339  1.00  0.00     0.213 C 
ENDBRANCH  31  33
ENDBRANCH  27  31
ENDBRANCH  24  25
ENDBRANCH  10  24
TORSDOF 7
ENDMDL
MODEL 10
REMARK VINA RESULT:      -6.4      2.965      6.293
REMARK  7 active torsions:
REMARK  status: ('A' for Active; 'I' for Inactive)
REMARK    1  A    between atoms: C_2  and  O_3 
REMARK    2  A    between atoms: O_3  and  C_4 
REMARK       I    between atoms: C_4  and  N_5 
REMARK    3  A    between atoms: C_8  and  N_9 
REMARK    4  A    between atoms: C_18  and  C_19 
REMARK    5  A    between atoms: C_19  and  N_20 
REMARK    6  A    between atoms: C_22  and  C_23 
REMARK    7  A    between atoms: C_23  and  O_24 
ROOT
HETATM    1  N   UNL     1     -42.782  55.222 -54.653  1.00  0.00    -0.061 N 
HETATM    2  H   UNL     1     -42.845  54.217 -54.442  1.00  0.00     0.280 HD
HETATM    3  C   UNL     1     -44.000  55.839 -53.953  1.00  0.00     0.276 C 
HETATM    4  C   UNL     1     -44.058  57.344 -53.981  1.00  0.00     0.002 A 
HETATM    5  C   UNL     1     -44.182  58.011 -55.199  1.00  0.00     0.076 A 
HETATM    6  O   UNL     1     -44.275  57.329 -56.377  1.00  0.00    -0.349 OA
HETATM    7  C   UNL     1     -43.030  56.705 -56.724  1.00  0.00     0.203 C 
HETATM    8  C   UNL     1     -42.969  55.279 -56.177  1.00  0.00     0.262 C 
HETATM    9  C   UNL     1     -43.990  58.116 -52.802  1.00  0.00     0.020 A 
HETATM   10  C   UNL     1     -44.023  59.530 -52.831  1.00  0.00    -0.032 A 
HETATM   11  C   UNL     1     -44.145  60.152 -54.082  1.00  0.00     0.011 A 
HETATM   12  C   UNL     1     -44.256  59.399 -55.253  1.00  0.00     0.038 A 
ENDROOT
BRANCH   1  13
HETATM   13  C   UNL     1     -41.424  55.709 -54.114  1.00  0.00     0.191 C 
HETATM   14  C   UNL     1     -41.316  55.500 -52.598  1.00  0.00     0.053 C 
HETATM   15  C   UNL     1     -41.270  54.027 -52.220  1.00  0.00     0.130 C 
HETATM   16  N   UNL     1     -40.274  53.286 -52.976  1.00  0.00    -0.328 N 
HETATM   17  C   UNL     1     -39.878  52.059 -52.430  1.00  0.00     0.362 C 
HETATM   18  C   UNL     1     -40.137  53.527 -54.407  1.00  0.00     0.130 C 
HETATM   19  O   UNL     1     -40.265  51.664 -51.338  1.00  0.00    -0.238 OA
HETATM   20  C   UNL     1     -40.229  55.004 -54.768  1.00  0.00     0.053 C 
BRANCH  17  21
HETATM   21  O   UNL     1     -39.048  51.367 -53.251  1.00  0.00    -0.304 OA
BRANCH  21  22
HETATM   22  C   UNL     1     -39.428  50.009 -53.536  1.00  0.00     0.176 C 
HETATM   23  C   UNL     1     -40.587  49.959 -54.516  1.00  0.00     0.034 C 
ENDBRANCH  21  22
ENDBRANCH  17  21
ENDBRANCH   1  13
BRANCH  10  24
HETATM   24  C   UNL     1     -43.774  60.326 -51.566  1.00  0.00     0.274 C 
BRANCH  24  25
HETATM   25  N   UNL     1     -44.883  61.121 -50.906  1.00  0.00    -0.054 N 
HETATM   26  H   UNL     1     -45.712  60.873 -51.462  1.00  0.00     0.281 HD
HETATM   27  C   UNL     1     -44.843  62.661 -50.908  1.00  0.00     0.287 C 
HETATM   28  C   UNL     1     -44.156  62.978 -49.598  1.00  0.00     0.045 C 
HETATM   29  C   UNL     1     -44.676  61.920 -48.633  1.00  0.00     0.030 C 
HETATM   30  C   UNL     1     -45.197  60.762 -49.476  1.00  0.00     0.236 C 
BRANCH  27  31
HETATM   31  C   UNL     1     -44.268  63.375 -52.127  1.00  0.00     0.289 C 
HETATM   32  O   UNL     1     -43.090  63.352 -52.458  1.00  0.00    -0.263 OA
BRANCH  31  33
HETATM   33  O   UNL     1     -45.273  63.982 -52.810  1.00  0.00    -0.325 OA
HETATM   34  C   UNL     1     -46.311  63.120 -53.293  1.00  0.00     0.213 C 
ENDBRANCH  31  33
ENDBRANCH  27  31
ENDBRANCH  24  25
ENDBRANCH  10  24
TORSDOF 7
ENDMDL
