MODEL 1
REMARK VINA RESULT:      -8.9      0.000      0.000
REMARK  3 active torsions:
REMARK  status: ('A' for Active; 'I' for Inactive)
REMARK    1  A    between atoms: C_7  and  C_8 
REMARK       I    between atoms: C_8  and  N_9 
REMARK    2  A    between atoms: N_9  and  C_10 
REMARK    3  A    between atoms: C_18  and  N_19 
ROOT
HETATM    1  C   UNL     1     -41.477  55.825 -53.620  1.00  0.00     0.262 C 
HETATM    2  N   UNL     1     -42.621  55.689 -54.373  1.00  0.00    -0.305 N 
HETATM    3  O   UNL     1     -40.892  56.870 -53.350  1.00  0.00    -0.267 OA
HETATM    4  H   UNL     1     -42.966  54.749 -54.553  1.00  0.00     0.170 HD
ENDROOT
BRANCH   2   5
HETATM    5  C   UNL     1     -43.377  56.722 -54.886  1.00  0.00     0.163 A 
HETATM    6  N   UNL     1     -44.031  57.629 -54.160  1.00  0.00    -0.155 NA
HETATM    7  N   UNL     1     -44.642  58.409 -55.057  1.00  0.00    -0.275 N 
HETATM    8  H   UNL     1     -45.211  59.174 -54.712  1.00  0.00     0.189 HD
HETATM    9  C   UNL     1     -44.406  58.058 -56.359  1.00  0.00     0.064 A 
HETATM   10  C   UNL     1     -43.571  56.948 -56.285  1.00  0.00     0.042 A 
HETATM   11  C   UNL     1     -44.847  58.617 -57.562  1.00  0.00     0.034 A 
HETATM   12  C   UNL     1     -43.129  56.344 -57.480  1.00  0.00     0.053 A 
HETATM   13  C   UNL     1     -43.553  56.900 -58.702  1.00  0.00     0.103 A 
HETATM   14  C   UNL     1     -44.402  58.016 -58.744  1.00  0.00     0.038 A 
BRANCH  13  15
HETATM   15  N   UNL     1     -43.087  56.302 -59.960  1.00  0.00    -0.116 N 
HETATM   16  O   UNL     1     -43.888  55.603 -60.598  1.00  0.00    -0.532 OA
HETATM   17  O   UNL     1     -41.922  56.533 -60.313  1.00  0.00    -0.532 OA
ENDBRANCH  13  15
ENDBRANCH   2   5
BRANCH   1  18
HETATM   18  C   UNL     1     -40.932  54.523 -53.122  1.00  0.00     0.098 C 
HETATM   19  C   UNL     1     -40.741  54.363 -51.801  1.00  0.00     0.109 C 
HETATM   20  N   UNL     1     -40.265  53.227 -51.198  1.00  0.00    -0.364 N 
HETATM   21  C   UNL     1     -40.066  52.057 -51.942  1.00  0.00     0.046 A 
HETATM   22  H   UNL     1     -40.332  53.158 -50.188  1.00  0.00     0.165 HD
HETATM   23  C   UNL     1     -40.202  52.085 -53.340  1.00  0.00     0.042 A 
HETATM   24  C   UNL     1     -39.667  50.869 -51.325  1.00  0.00     0.030 A 
HETATM   25  C   UNL     1     -39.977  50.936 -54.106  1.00  0.00     0.018 A 
HETATM   26  C   UNL     1     -40.600  53.359 -53.994  1.00  0.00     0.201 C 
HETATM   27  C   UNL     1     -39.602  49.751 -53.474  1.00  0.00     0.001 A 
HETATM   28  C   UNL     1     -39.445  49.718 -52.087  1.00  0.00     0.002 A 
HETATM   29  O   UNL     1     -40.662  53.448 -55.219  1.00  0.00    -0.286 OA
ENDBRANCH   1  18
TORSDOF 3
ENDMDL
MODEL 2
REMARK VINA RESULT:      -8.8      2.448      8.038
REMARK  3 active torsions:
REMARK  status: ('A' for Active; 'I' for Inactive)
REMARK    1  A    between atoms: C_7  and  C_8 
REMARK       I    between atoms: C_8  and  N_9 
REMARK    2  A    between atoms: N_9  and  C_10 
REMARK    3  A    between atoms: C_18  and  N_19 
ROOT
HETATM    1  C   UNL     1     -42.602  55.580 -54.853  1.00  0.00     0.262 C 
HETATM    2  N   UNL     1     -41.360  55.359 -54.302  1.00  0.00    -0.305 N 
HETATM    3  O   UNL     1     -43.690  55.318 -54.350  1.00  0.00    -0.267 OA
HETATM    4  H   UNL     1     -40.541  55.586 -54.860  1.00  0.00     0.170 HD
ENDROOT
BRANCH   2   5
HETATM    5  C   UNL     1     -41.116  54.881 -53.031  1.00  0.00     0.163 A 
HETATM    6  N   UNL     1     -41.269  55.580 -51.906  1.00  0.00    -0.155 NA
HETATM    7  N   UNL     1     -40.896  54.745 -50.932  1.00  0.00    -0.275 N 
HETATM    8  H   UNL     1     -40.929  55.083 -49.976  1.00  0.00     0.189 HD
HETATM    9  C   UNL     1     -40.510  53.507 -51.370  1.00  0.00     0.064 A 
HETATM   10  C   UNL     1     -40.645  53.560 -52.754  1.00  0.00     0.042 A 
HETATM   11  C   UNL     1     -40.068  52.375 -50.678  1.00  0.00     0.034 A 
HETATM   12  C   UNL     1     -40.331  52.416 -53.515  1.00  0.00     0.053 A 
HETATM   13  C   UNL     1     -39.896  51.263 -52.835  1.00  0.00     0.103 A 
HETATM   14  C   UNL     1     -39.762  51.242 -51.438  1.00  0.00     0.038 A 
BRANCH  13  15
HETATM   15  N   UNL     1     -39.584  50.051 -53.605  1.00  0.00    -0.116 N 
HETATM   16  O   UNL     1     -39.399  49.000 -52.976  1.00  0.00    -0.532 OA
HETATM   17  O   UNL     1     -39.528  50.149 -54.839  1.00  0.00    -0.532 OA
ENDBRANCH  13  15
ENDBRANCH   2   5
BRANCH   1  18
HETATM   18  C   UNL     1     -42.547  56.196 -56.217  1.00  0.00     0.098 C 
HETATM   19  C   UNL     1     -42.794  55.421 -57.287  1.00  0.00     0.109 C 
HETATM   20  N   UNL     1     -42.795  55.845 -58.592  1.00  0.00    -0.364 N 
HETATM   21  C   UNL     1     -42.667  57.206 -58.898  1.00  0.00     0.046 A 
HETATM   22  H   UNL     1     -43.169  55.218 -59.297  1.00  0.00     0.165 HD
HETATM   23  C   UNL     1     -42.377  58.129 -57.879  1.00  0.00     0.042 A 
HETATM   24  C   UNL     1     -42.756  57.660 -60.216  1.00  0.00     0.030 A 
HETATM   25  C   UNL     1     -42.214  59.488 -58.166  1.00  0.00     0.018 A 
HETATM   26  C   UNL     1     -42.257  57.635 -56.482  1.00  0.00     0.201 C 
HETATM   27  C   UNL     1     -42.329  59.930 -59.483  1.00  0.00     0.001 A 
HETATM   28  C   UNL     1     -42.596  59.018 -60.506  1.00  0.00     0.002 A 
HETATM   29  O   UNL     1     -41.935  58.394 -55.569  1.00  0.00    -0.286 OA
ENDBRANCH   1  18
TORSDOF 3
ENDMDL
MODEL 3
REMARK VINA RESULT:      -8.8      1.678      2.015
REMARK  3 active torsions:
REMARK  status: ('A' for Active; 'I' for Inactive)
REMARK    1  A    between atoms: C_7  and  C_8 
REMARK       I    between atoms: C_8  and  N_9 
REMARK    2  A    between atoms: N_9  and  C_10 
REMARK    3  A    between atoms: C_18  and  N_19 
ROOT
HETATM    1  C   UNL     1     -42.527  56.508 -54.567  1.00  0.00     0.262 C 
HETATM    2  N   UNL     1     -41.991  56.791 -55.803  1.00  0.00    -0.305 N 
HETATM    3  O   UNL     1     -43.509  57.034 -54.051  1.00  0.00    -0.267 OA
HETATM    4  H   UNL     1     -41.142  56.304 -56.078  1.00  0.00     0.170 HD
ENDROOT
BRANCH   2   5
HETATM    5  C   UNL     1     -42.521  57.661 -56.732  1.00  0.00     0.163 A 
HETATM    6  N   UNL     1     -42.450  58.991 -56.665  1.00  0.00    -0.155 NA
HETATM    7  N   UNL     1     -43.113  59.422 -57.743  1.00  0.00    -0.275 N 
HETATM    8  H   UNL     1     -43.188  60.424 -57.886  1.00  0.00     0.189 HD
HETATM    9  C   UNL     1     -43.613  58.423 -58.533  1.00  0.00     0.064 A 
HETATM   10  C   UNL     1     -43.239  57.244 -57.896  1.00  0.00     0.042 A 
HETATM   11  C   UNL     1     -44.342  58.461 -59.725  1.00  0.00     0.034 A 
HETATM   12  C   UNL     1     -43.599  56.010 -58.476  1.00  0.00     0.053 A 
HETATM   13  C   UNL     1     -44.323  56.028 -59.682  1.00  0.00     0.103 A 
HETATM   14  C   UNL     1     -44.694  57.234 -60.297  1.00  0.00     0.038 A 
BRANCH  13  15
HETATM   15  N   UNL     1     -44.691  54.755 -60.317  1.00  0.00    -0.116 N 
HETATM   16  O   UNL     1     -44.874  54.754 -61.543  1.00  0.00    -0.532 OA
HETATM   17  O   UNL     1     -44.793  53.757 -59.591  1.00  0.00    -0.532 OA
ENDBRANCH  13  15
ENDBRANCH   2   5
BRANCH   1  18
HETATM   18  C   UNL     1     -41.779  55.448 -53.820  1.00  0.00     0.098 C 
HETATM   19  C   UNL     1     -41.665  55.554 -52.485  1.00  0.00     0.109 C 
HETATM   20  N   UNL     1     -41.025  54.658 -51.668  1.00  0.00    -0.364 N 
HETATM   21  C   UNL     1     -40.543  53.447 -52.181  1.00  0.00     0.046 A 
HETATM   22  H   UNL     1     -41.156  54.747 -50.666  1.00  0.00     0.165 HD
HETATM   23  C   UNL     1     -40.570  53.212 -53.566  1.00  0.00     0.042 A 
HETATM   24  C   UNL     1     -39.968  52.487 -51.344  1.00  0.00     0.030 A 
HETATM   25  C   UNL     1     -40.065  52.023 -54.103  1.00  0.00     0.018 A 
HETATM   26  C   UNL     1     -41.158  54.249 -54.454  1.00  0.00     0.201 C 
HETATM   27  C   UNL     1     -39.517  51.064 -53.252  1.00  0.00     0.001 A 
HETATM   28  C   UNL     1     -39.465  51.297 -51.877  1.00  0.00     0.002 A 
HETATM   29  O   UNL     1     -41.139  54.117 -55.677  1.00  0.00    -0.286 OA
ENDBRANCH   1  18
TORSDOF 3
ENDMDL
MODEL 4
REMARK VINA RESULT:      -8.6      1.769      1.977
REMARK  3 active torsions:
REMARK  status: ('A' for Active; 'I' for Inactive)
REMARK    1  A    between atoms: C_7  and  C_8 
REMARK       I    between atoms: C_8  and  N_9 
REMARK    2  A    between atoms: N_9  and  C_10 
REMARK    3  A    between atoms: C_18  and  N_19 
ROOT
HETATM    1  C   UNL     1     -41.384  55.775 -52.516  1.00  0.00     0.262 C 
HETATM    2  N   UNL     1     -40.904  56.478 -53.598  1.00  0.00    -0.305 N 
HETATM    3  O   UNL     1     -42.174  56.176 -51.666  1.00  0.00    -0.267 OA
HETATM    4  H   UNL     1     -40.214  56.027 -54.193  1.00  0.00     0.170 HD
ENDROOT
BRANCH   2   5
HETATM    5  C   UNL     1     -41.301  57.743 -53.977  1.00  0.00     0.163 A 
HETATM    6  N   UNL     1     -40.955  58.873 -53.358  1.00  0.00    -0.155 NA
HETATM    7  N   UNL     1     -41.580  59.839 -54.038  1.00  0.00    -0.275 N 
HETATM    8  H   UNL     1     -41.457  60.796 -53.726  1.00  0.00     0.189 HD
HETATM    9  C   UNL     1     -42.322  59.391 -55.098  1.00  0.00     0.064 A 
HETATM   10  C   UNL     1     -42.158  58.009 -55.089  1.00  0.00     0.042 A 
HETATM   11  C   UNL     1     -43.099  60.073 -56.039  1.00  0.00     0.034 A 
HETATM   12  C   UNL     1     -42.799  57.240 -56.082  1.00  0.00     0.053 A 
HETATM   13  C   UNL     1     -43.576  57.909 -57.046  1.00  0.00     0.103 A 
HETATM   14  C   UNL     1     -43.728  59.304 -57.023  1.00  0.00     0.038 A 
BRANCH  13  15
HETATM   15  N   UNL     1     -44.234  57.131 -58.103  1.00  0.00    -0.116 N 
HETATM   16  O   UNL     1     -43.700  56.069 -58.454  1.00  0.00    -0.532 OA
HETATM   17  O   UNL     1     -45.286  57.579 -58.580  1.00  0.00    -0.532 OA
ENDBRANCH  13  15
ENDBRANCH   2   5
BRANCH   1  18
HETATM   18  C   UNL     1     -40.834  54.385 -52.416  1.00  0.00     0.098 C 
HETATM   19  C   UNL     1     -40.483  53.913 -51.208  1.00  0.00     0.109 C 
HETATM   20  N   UNL     1     -39.981  52.661 -50.959  1.00  0.00    -0.364 N 
HETATM   21  C   UNL     1     -39.927  51.701 -51.977  1.00  0.00     0.046 A 
HETATM   22  H   UNL     1     -39.921  52.354 -49.994  1.00  0.00     0.165 HD
HETATM   23  C   UNL     1     -40.239  52.063 -53.298  1.00  0.00     0.042 A 
HETATM   24  C   UNL     1     -39.502  50.397 -51.716  1.00  0.00     0.030 A 
HETATM   25  C   UNL     1     -40.162  51.129 -54.336  1.00  0.00     0.018 A 
HETATM   26  C   UNL     1     -40.665  53.461 -53.574  1.00  0.00     0.201 C 
HETATM   27  C   UNL     1     -39.759  49.824 -54.057  1.00  0.00     0.001 A 
HETATM   28  C   UNL     1     -39.426  49.459 -52.751  1.00  0.00     0.002 A 
HETATM   29  O   UNL     1     -40.879  53.840 -54.724  1.00  0.00    -0.286 OA
ENDBRANCH   1  18
TORSDOF 3
ENDMDL
MODEL 5
REMARK VINA RESULT:      -8.5      2.091      7.599
REMARK  3 active torsions:
REMARK  status: ('A' for Active; 'I' for Inactive)
REMARK    1  A    between atoms: C_7  and  C_8 
REMARK       I    between atoms: C_8  and  N_9 
REMARK    2  A    between atoms: N_9  and  C_10 
REMARK    3  A    between atoms: C_18  and  N_19 
ROOT
HETATM    1  C   UNL     1     -41.693  56.419 -54.613  1.00  0.00     0.262 C 
HETATM    2  N   UNL     1     -42.059  55.258 -53.970  1.00  0.00    -0.305 N 
HETATM    3  O   UNL     1     -40.927  57.283 -54.197  1.00  0.00    -0.267 OA
HETATM    4  H   UNL     1     -42.744  54.656 -54.421  1.00  0.00     0.170 HD
ENDROOT
BRANCH   2   5
HETATM    5  C   UNL     1     -41.552  54.807 -52.769  1.00  0.00     0.163 A 
HETATM    6  N   UNL     1     -41.581  55.486 -51.621  1.00  0.00    -0.155 NA
HETATM    7  N   UNL     1     -40.962  54.694 -50.741  1.00  0.00    -0.275 N 
HETATM    8  H   UNL     1     -40.865  55.027 -49.787  1.00  0.00     0.189 HD
HETATM    9  C   UNL     1     -40.531  53.504 -51.262  1.00  0.00     0.064 A 
HETATM   10  C   UNL     1     -40.906  53.543 -52.601  1.00  0.00     0.042 A 
HETATM   11  C   UNL     1     -39.862  52.424 -50.676  1.00  0.00     0.034 A 
HETATM   12  C   UNL     1     -40.611  52.438 -53.425  1.00  0.00     0.053 A 
HETATM   13  C   UNL     1     -39.949  51.337 -52.851  1.00  0.00     0.103 A 
HETATM   14  C   UNL     1     -39.576  51.330 -51.498  1.00  0.00     0.038 A 
BRANCH  13  15
HETATM   15  N   UNL     1     -39.651  50.165 -53.685  1.00  0.00    -0.116 N 
HETATM   16  O   UNL     1     -39.404  49.096 -53.110  1.00  0.00    -0.532 OA
HETATM   17  O   UNL     1     -39.666  50.313 -54.915  1.00  0.00    -0.532 OA
ENDBRANCH  13  15
ENDBRANCH   2   5
BRANCH   1  18
HETATM   18  C   UNL     1     -42.346  56.591 -55.950  1.00  0.00     0.098 C 
HETATM   19  C   UNL     1     -42.363  57.812 -56.510  1.00  0.00     0.109 C 
HETATM   20  N   UNL     1     -42.908  58.120 -57.730  1.00  0.00    -0.364 N 
HETATM   21  C   UNL     1     -43.384  57.107 -58.572  1.00  0.00     0.046 A 
HETATM   22  H   UNL     1     -42.705  59.031 -58.128  1.00  0.00     0.165 HD
HETATM   23  C   UNL     1     -43.452  55.783 -58.106  1.00  0.00     0.042 A 
HETATM   24  C   UNL     1     -43.860  57.398 -59.853  1.00  0.00     0.030 A 
HETATM   25  C   UNL     1     -43.954  54.760 -58.918  1.00  0.00     0.018 A 
HETATM   26  C   UNL     1     -42.970  55.484 -56.731  1.00  0.00     0.201 C 
HETATM   27  C   UNL     1     -44.403  55.062 -60.203  1.00  0.00     0.001 A 
HETATM   28  C   UNL     1     -44.359  56.377 -60.668  1.00  0.00     0.002 A 
HETATM   29  O   UNL     1     -43.075  54.354 -56.257  1.00  0.00    -0.286 OA
ENDBRANCH   1  18
TORSDOF 3
ENDMDL
MODEL 6
REMARK VINA RESULT:      -8.4      2.404      4.248
REMARK  3 active torsions:
REMARK  status: ('A' for Active; 'I' for Inactive)
REMARK    1  A    between atoms: C_7  and  C_8 
REMARK       I    between atoms: C_8  and  N_9 
REMARK    2  A    between atoms: N_9  and  C_10 
REMARK    3  A    between atoms: C_18  and  N_19 
ROOT
HETATM    1  C   UNL     1     -41.343  55.926 -53.691  1.00  0.00     0.262 C 
HETATM    2  N   UNL     1     -42.535  55.819 -54.370  1.00  0.00    -0.305 N 
HETATM    3  O   UNL     1     -40.686  56.947 -53.509  1.00  0.00    -0.267 OA
HETATM    4  H   UNL     1     -42.941  54.893 -54.481  1.00  0.00     0.170 HD
ENDROOT
BRANCH   2   5
HETATM    5  C   UNL     1     -43.262  56.868 -54.894  1.00  0.00     0.163 A 
HETATM    6  N   UNL     1     -43.382  57.145 -56.193  1.00  0.00    -0.155 NA
HETATM    7  N   UNL     1     -44.139  58.245 -56.239  1.00  0.00    -0.275 N 
HETATM    8  H   UNL     1     -44.352  58.638 -57.149  1.00  0.00     0.189 HD
HETATM    9  C   UNL     1     -44.537  58.704 -55.012  1.00  0.00     0.064 A 
HETATM   10  C   UNL     1     -43.978  57.817 -54.099  1.00  0.00     0.042 A 
HETATM   11  C   UNL     1     -45.326  59.799 -54.645  1.00  0.00     0.034 A 
HETATM   12  C   UNL     1     -44.215  58.011 -52.723  1.00  0.00     0.053 A 
HETATM   13  C   UNL     1     -45.017  59.101 -52.334  1.00  0.00     0.103 A 
HETATM   14  C   UNL     1     -45.561  59.984 -53.279  1.00  0.00     0.038 A 
BRANCH  13  15
HETATM   15  N   UNL     1     -45.298  59.311 -50.908  1.00  0.00    -0.116 N 
HETATM   16  O   UNL     1     -46.258  58.703 -50.413  1.00  0.00    -0.532 OA
HETATM   17  O   UNL     1     -44.557  60.080 -50.281  1.00  0.00    -0.532 OA
ENDBRANCH  13  15
ENDBRANCH   2   5
BRANCH   1  18
HETATM   18  C   UNL     1     -40.842  54.620 -53.157  1.00  0.00     0.098 C 
HETATM   19  C   UNL     1     -40.721  54.469 -51.827  1.00  0.00     0.109 C 
HETATM   20  N   UNL     1     -40.292  53.331 -51.192  1.00  0.00    -0.364 N 
HETATM   21  C   UNL     1     -40.071  52.153 -51.916  1.00  0.00     0.046 A 
HETATM   22  H   UNL     1     -40.411  53.271 -50.186  1.00  0.00     0.165 HD
HETATM   23  C   UNL     1     -40.135  52.171 -53.320  1.00  0.00     0.042 A 
HETATM   24  C   UNL     1     -39.720  50.964 -51.271  1.00  0.00     0.030 A 
HETATM   25  C   UNL     1     -39.888  51.013 -54.065  1.00  0.00     0.018 A 
HETATM   26  C   UNL     1     -40.482  53.445 -54.002  1.00  0.00     0.201 C 
HETATM   27  C   UNL     1     -39.562  49.828 -53.406  1.00  0.00     0.001 A 
HETATM   28  C   UNL     1     -39.475  49.805 -52.013  1.00  0.00     0.002 A 
HETATM   29  O   UNL     1     -40.481  53.525 -55.230  1.00  0.00    -0.286 OA
ENDBRANCH   1  18
TORSDOF 3
ENDMDL
MODEL 7
REMARK VINA RESULT:      -8.4      2.812      3.480
REMARK  3 active torsions:
REMARK  status: ('A' for Active; 'I' for Inactive)
REMARK    1  A    between atoms: C_7  and  C_8 
REMARK       I    between atoms: C_8  and  N_9 
REMARK    2  A    between atoms: N_9  and  C_10 
REMARK    3  A    between atoms: C_18  and  N_19 
ROOT
HETATM    1  C   UNL     1     -41.604  55.470 -51.156  1.00  0.00     0.262 C 
HETATM    2  N   UNL     1     -40.978  56.513 -51.800  1.00  0.00    -0.305 N 
HETATM    3  O   UNL     1     -42.548  55.544 -50.376  1.00  0.00    -0.267 OA
HETATM    4  H   UNL     1     -40.173  56.300 -52.384  1.00  0.00     0.170 HD
ENDROOT
BRANCH   2   5
HETATM    5  C   UNL     1     -41.364  57.836 -51.755  1.00  0.00     0.163 A 
HETATM    6  N   UNL     1     -41.487  58.562 -50.643  1.00  0.00    -0.155 NA
HETATM    7  N   UNL     1     -41.905  59.760 -51.063  1.00  0.00    -0.275 N 
HETATM    8  H   UNL     1     -42.071  60.477 -50.364  1.00  0.00     0.189 HD
HETATM    9  C   UNL     1     -42.054  59.860 -52.419  1.00  0.00     0.064 A 
HETATM   10  C   UNL     1     -41.702  58.607 -52.911  1.00  0.00     0.042 A 
HETATM   11  C   UNL     1     -42.456  60.925 -53.231  1.00  0.00     0.034 A 
HETATM   12  C   UNL     1     -41.741  58.383 -54.302  1.00  0.00     0.053 A 
HETATM   13  C   UNL     1     -42.131  59.447 -55.137  1.00  0.00     0.103 A 
HETATM   14  C   UNL     1     -42.488  60.698 -54.611  1.00  0.00     0.038 A 
BRANCH  13  15
HETATM   15  N   UNL     1     -42.157  59.245 -56.592  1.00  0.00    -0.116 N 
HETATM   16  O   UNL     1     -41.440  59.978 -57.288  1.00  0.00    -0.532 OA
HETATM   17  O   UNL     1     -42.891  58.352 -57.038  1.00  0.00    -0.532 OA
ENDBRANCH  13  15
ENDBRANCH   2   5
BRANCH   1  18
HETATM   18  C   UNL     1     -41.012  54.131 -51.474  1.00  0.00     0.098 C 
HETATM   19  C   UNL     1     -40.642  53.330 -50.461  1.00  0.00     0.109 C 
HETATM   20  N   UNL     1     -40.102  52.076 -50.595  1.00  0.00    -0.364 N 
HETATM   21  C   UNL     1     -40.023  51.467 -51.854  1.00  0.00     0.046 A 
HETATM   22  H   UNL     1     -40.030  51.496 -49.766  1.00  0.00     0.165 HD
HETATM   23  C   UNL     1     -40.350  52.199 -53.008  1.00  0.00     0.042 A 
HETATM   24  C   UNL     1     -39.558  50.157 -51.993  1.00  0.00     0.030 A 
HETATM   25  C   UNL     1     -40.249  51.621 -54.277  1.00  0.00     0.018 A 
HETATM   26  C   UNL     1     -40.819  53.601 -52.854  1.00  0.00     0.201 C 
HETATM   27  C   UNL     1     -39.806  50.304 -54.399  1.00  0.00     0.001 A 
HETATM   28  C   UNL     1     -39.458  49.576 -53.261  1.00  0.00     0.002 A 
HETATM   29  O   UNL     1     -41.049  54.301 -53.840  1.00  0.00    -0.286 OA
ENDBRANCH   1  18
TORSDOF 3
ENDMDL
MODEL 8
REMARK VINA RESULT:      -8.1      4.018      8.309
REMARK  3 active torsions:
REMARK  status: ('A' for Active; 'I' for Inactive)
REMARK    1  A    between atoms: C_7  and  C_8 
REMARK       I    between atoms: C_8  and  N_9 
REMARK    2  A    between atoms: N_9  and  C_10 
REMARK    3  A    between atoms: C_18  and  N_19 
ROOT
HETATM    1  C   UNL     1     -41.319  57.889 -52.841  1.00  0.00     0.262 C 
HETATM    2  N   UNL     1     -41.842  56.627 -53.013  1.00  0.00    -0.305 N 
HETATM    3  O   UNL     1     -40.270  58.323 -53.308  1.00  0.00    -0.267 OA
HETATM    4  H   UNL     1     -42.702  56.395 -52.523  1.00  0.00     0.170 HD
ENDROOT
BRANCH   2   5
HETATM    5  C   UNL     1     -41.321  55.643 -53.827  1.00  0.00     0.163 A 
HETATM    6  N   UNL     1     -41.179  55.736 -55.150  1.00  0.00    -0.155 NA
HETATM    7  N   UNL     1     -40.670  54.558 -55.522  1.00  0.00    -0.275 N 
HETATM    8  H   UNL     1     -40.486  54.409 -56.508  1.00  0.00     0.189 HD
HETATM    9  C   UNL     1     -40.456  53.686 -54.488  1.00  0.00     0.064 A 
HETATM   10  C   UNL     1     -40.873  54.371 -53.351  1.00  0.00     0.042 A 
HETATM   11  C   UNL     1     -39.941  52.387 -54.464  1.00  0.00     0.034 A 
HETATM   12  C   UNL     1     -40.771  53.737 -52.096  1.00  0.00     0.053 A 
HETATM   13  C   UNL     1     -40.243  52.433 -52.050  1.00  0.00     0.103 A 
HETATM   14  C   UNL     1     -39.838  51.765 -53.215  1.00  0.00     0.038 A 
BRANCH  13  15
HETATM   15  N   UNL     1     -40.105  51.762 -50.751  1.00  0.00    -0.116 N 
HETATM   16  O   UNL     1     -40.364  52.418 -49.732  1.00  0.00    -0.532 OA
HETATM   17  O   UNL     1     -39.740  50.578 -50.749  1.00  0.00    -0.532 OA
ENDBRANCH  13  15
ENDBRANCH   2   5
BRANCH   1  18
HETATM   18  C   UNL     1     -42.161  58.769 -51.970  1.00  0.00     0.098 C 
HETATM   19  C   UNL     1     -41.604  59.326 -50.881  1.00  0.00     0.109 C 
HETATM   20  N   UNL     1     -42.242  60.163 -50.001  1.00  0.00    -0.364 N 
HETATM   21  C   UNL     1     -43.539  60.621 -50.269  1.00  0.00     0.046 A 
HETATM   22  H   UNL     1     -41.678  60.663 -49.322  1.00  0.00     0.165 HD
HETATM   23  C   UNL     1     -44.254  60.100 -51.360  1.00  0.00     0.042 A 
HETATM   24  C   UNL     1     -44.166  61.542 -49.427  1.00  0.00     0.030 A 
HETATM   25  C   UNL     1     -45.562  60.519 -51.627  1.00  0.00     0.018 A 
HETATM   26  C   UNL     1     -43.591  59.099 -52.237  1.00  0.00     0.201 C 
HETATM   27  C   UNL     1     -46.167  61.458 -50.792  1.00  0.00     0.001 A 
HETATM   28  C   UNL     1     -45.472  61.965 -49.693  1.00  0.00     0.002 A 
HETATM   29  O   UNL     1     -44.203  58.565 -53.161  1.00  0.00    -0.286 OA
ENDBRANCH   1  18
TORSDOF 3
ENDMDL
MODEL 9
REMARK VINA RESULT:      -8.1      2.288      2.750
REMARK  3 active torsions:
REMARK  status: ('A' for Active; 'I' for Inactive)
REMARK    1  A    between atoms: C_7  and  C_8 
REMARK       I    between atoms: C_8  and  N_9 
REMARK    2  A    between atoms: N_9  and  C_10 
REMARK    3  A    between atoms: C_18  and  N_19 
ROOT
HETATM    1  C   UNL     1     -41.571  55.729 -52.204  1.00  0.00     0.262 C 
HETATM    2  N   UNL     1     -42.945  55.712 -52.276  1.00  0.00    -0.305 N 
HETATM    3  O   UNL     1     -40.848  56.717 -52.117  1.00  0.00    -0.267 OA
HETATM    4  H   UNL     1     -43.408  54.814 -52.393  1.00  0.00     0.170 HD
ENDROOT
BRANCH   2   5
HETATM    5  C   UNL     1     -43.772  56.811 -52.168  1.00  0.00     0.163 A 
HETATM    6  N   UNL     1     -44.447  57.159 -51.072  1.00  0.00    -0.155 NA
HETATM    7  N   UNL     1     -45.129  58.253 -51.425  1.00  0.00    -0.275 N 
HETATM    8  H   UNL     1     -45.725  58.687 -50.728  1.00  0.00     0.189 HD
HETATM    9  C   UNL     1     -44.920  58.653 -52.717  1.00  0.00     0.064 A 
HETATM   10  C   UNL     1     -44.026  57.724 -53.239  1.00  0.00     0.042 A 
HETATM   11  C   UNL     1     -45.431  59.731 -53.447  1.00  0.00     0.034 A 
HETATM   12  C   UNL     1     -43.595  57.866 -54.574  1.00  0.00     0.053 A 
HETATM   13  C   UNL     1     -44.089  58.951 -55.321  1.00  0.00     0.103 A 
HETATM   14  C   UNL     1     -44.997  59.868 -54.769  1.00  0.00     0.038 A 
BRANCH  13  15
HETATM   15  N   UNL     1     -43.636  59.133 -56.707  1.00  0.00    -0.116 N 
HETATM   16  O   UNL     1     -44.349  59.809 -57.462  1.00  0.00    -0.532 OA
HETATM   17  O   UNL     1     -42.568  58.602 -57.039  1.00  0.00    -0.532 OA
ENDBRANCH  13  15
ENDBRANCH   2   5
BRANCH   1  18
HETATM   18  C   UNL     1     -40.954  54.365 -52.257  1.00  0.00     0.098 C 
HETATM   19  C   UNL     1     -40.426  53.849 -51.135  1.00  0.00     0.109 C 
HETATM   20  N   UNL     1     -39.843  52.612 -51.026  1.00  0.00    -0.364 N 
HETATM   21  C   UNL     1     -39.886  51.709 -52.096  1.00  0.00     0.046 A 
HETATM   22  H   UNL     1     -39.642  52.259 -50.096  1.00  0.00     0.165 HD
HETATM   23  C   UNL     1     -40.386  52.123 -53.342  1.00  0.00     0.042 A 
HETATM   24  C   UNL     1     -39.375  50.415 -51.969  1.00  0.00     0.030 A 
HETATM   25  C   UNL     1     -40.409  51.248 -54.433  1.00  0.00     0.018 A 
HETATM   26  C   UNL     1     -40.903  53.510 -53.479  1.00  0.00     0.201 C 
HETATM   27  C   UNL     1     -39.918  49.952 -54.285  1.00  0.00     0.001 A 
HETATM   28  C   UNL     1     -39.399  49.537 -53.057  1.00  0.00     0.002 A 
HETATM   29  O   UNL     1     -41.285  53.937 -54.567  1.00  0.00    -0.286 OA
ENDBRANCH   1  18
TORSDOF 3
ENDMDL
MODEL 10
REMARK VINA RESULT:      -8.0      2.571      7.826
REMARK  3 active torsions:
REMARK  status: ('A' for Active; 'I' for Inactive)
REMARK    1  A    between atoms: C_7  and  C_8 
REMARK       I    between atoms: C_8  and  N_9 
REMARK    2  A    between atoms: N_9  and  C_10 
REMARK    3  A    between atoms: C_18  and  N_19 
ROOT
HETATM    1  C   UNL     1     -41.759  56.448 -54.379  1.00  0.00     0.262 C 
HETATM    2  N   UNL     1     -42.650  56.151 -53.373  1.00  0.00    -0.305 N 
HETATM    3  O   UNL     1     -40.586  56.786 -54.249  1.00  0.00    -0.267 OA
HETATM    4  H   UNL     1     -43.609  55.931 -53.632  1.00  0.00     0.170 HD
ENDROOT
BRANCH   2   5
HETATM    5  C   UNL     1     -42.356  56.091 -52.027  1.00  0.00     0.163 A 
HETATM    6  N   UNL     1     -42.678  57.022 -51.128  1.00  0.00    -0.155 NA
HETATM    7  N   UNL     1     -42.178  56.570 -49.974  1.00  0.00    -0.275 N 
HETATM    8  H   UNL     1     -42.307  57.139 -49.145  1.00  0.00     0.189 HD
HETATM    9  C   UNL     1     -41.543  55.361 -50.072  1.00  0.00     0.064 A 
HETATM   10  C   UNL     1     -41.642  55.013 -51.415  1.00  0.00     0.042 A 
HETATM   11  C   UNL     1     -40.908  54.569 -49.111  1.00  0.00     0.034 A 
HETATM   12  C   UNL     1     -41.085  53.792 -51.847  1.00  0.00     0.053 A 
HETATM   13  C   UNL     1     -40.453  52.974 -50.892  1.00  0.00     0.103 A 
HETATM   14  C   UNL     1     -40.361  53.357 -49.545  1.00  0.00     0.038 A 
BRANCH  13  15
HETATM   15  N   UNL     1     -39.885  51.687 -51.315  1.00  0.00    -0.116 N 
HETATM   16  O   UNL     1     -39.358  51.629 -52.435  1.00  0.00    -0.532 OA
HETATM   17  O   UNL     1     -39.962  50.735 -50.526  1.00  0.00    -0.532 OA
ENDBRANCH  13  15
ENDBRANCH   2   5
BRANCH   1  18
HETATM   18  C   UNL     1     -42.350  56.341 -55.750  1.00  0.00     0.098 C 
HETATM   19  C   UNL     1     -42.741  55.134 -56.194  1.00  0.00     0.109 C 
HETATM   20  N   UNL     1     -43.312  54.884 -57.417  1.00  0.00    -0.364 N 
HETATM   21  C   UNL     1     -43.664  55.939 -58.267  1.00  0.00     0.046 A 
HETATM   22  H   UNL     1     -43.728  53.971 -57.571  1.00  0.00     0.165 HD
HETATM   23  C   UNL     1     -43.292  57.255 -57.942  1.00  0.00     0.042 A 
HETATM   24  C   UNL     1     -44.325  55.702 -59.474  1.00  0.00     0.030 A 
HETATM   25  C   UNL     1     -43.606  58.320 -58.792  1.00  0.00     0.018 A 
HETATM   26  C   UNL     1     -42.564  57.497 -56.669  1.00  0.00     0.201 C 
HETATM   27  C   UNL     1     -44.287  58.072 -59.982  1.00  0.00     0.001 A 
HETATM   28  C   UNL     1     -44.644  56.766 -60.324  1.00  0.00     0.002 A 
HETATM   29  O   UNL     1     -42.157  58.620 -56.378  1.00  0.00    -0.286 OA
ENDBRANCH   1  18
TORSDOF 3
ENDMDL
