MODEL 1
REMARK VINA RESULT:      -9.1      0.000      0.000
REMARK  3 active torsions:
REMARK  status: ('A' for Active; 'I' for Inactive)
REMARK    1  A    between atoms: S_2  and  C_3 
REMARK    2  A    between atoms: C_6  and  C_7 
REMARK    3  A    between atoms: C_22  and  N_23 
ROOT
HETATM    1  C   UNL     1     -41.958  56.586 -53.678  1.00  0.00     0.078 C 
HETATM    2  C   UNL     1     -42.105  55.161 -53.146  1.00  0.00     0.127 C 
HETATM    3  C   UNL     1     -41.778  54.161 -54.223  1.00  0.00     0.060 C 
HETATM    4  C   UNL     1     -41.026  53.058 -53.641  1.00  0.00     0.003 A 
HETATM    5  C   UNL     1     -40.619  53.422 -52.363  1.00  0.00     0.023 A 
HETATM    6  C   UNL     1     -39.785  52.616 -51.612  1.00  0.00     0.016 A 
HETATM    7  C   UNL     1     -39.365  51.412 -52.185  1.00  0.00     0.001 A 
HETATM    8  C   UNL     1     -39.776  51.045 -53.482  1.00  0.00     0.001 A 
HETATM    9  C   UNL     1     -40.611  51.880 -54.231  1.00  0.00     0.014 A 
HETATM   10  C   UNL     1     -41.161  54.745 -52.030  1.00  0.00     0.171 C 
HETATM   11  O   UNL     1     -40.887  55.349 -51.012  1.00  0.00    -0.291 OA
HETATM   12  N   UNL     1     -42.021  54.283 -55.483  1.00  0.00    -0.231 NA
HETATM   13  C   UNL     1     -42.424  55.523 -55.915  1.00  0.00     0.165 C 
HETATM   14  C   UNL     1     -42.314  56.627 -55.151  1.00  0.00     0.067 C 
HETATM   15  N   UNL     1     -42.788  55.532 -57.235  1.00  0.00    -0.200 NA
HETATM   16  C   UNL     1     -43.001  56.671 -57.801  1.00  0.00     0.181 C 
HETATM   17  N   UNL     1     -42.871  57.849 -57.144  1.00  0.00    -0.298 N 
HETATM   18  C   UNL     1     -42.454  57.919 -55.850  1.00  0.00     0.258 C 
HETATM   19  O   UNL     1     -42.166  58.993 -55.334  1.00  0.00    -0.267 OA
HETATM   20  H   UNL     1     -43.004  58.724 -57.622  1.00  0.00     0.171 HD
ENDROOT
BRANCH   1  21
HETATM   21  C   UNL     1     -42.809  57.506 -52.798  1.00  0.00    -0.048 A 
HETATM   22  C   UNL     1     -42.185  58.502 -52.033  1.00  0.00     0.009 A 
HETATM   23  C   UNL     1     -42.930  59.354 -51.207  1.00  0.00     0.019 A 
HETATM   24  C   UNL     1     -44.318  59.237 -51.125  1.00  0.00    -0.000 A 
HETATM   25  C   UNL     1     -44.943  58.235 -51.879  1.00  0.00     0.019 A 
HETATM   26  C   UNL     1     -44.202  57.372 -52.695  1.00  0.00     0.009 A 
BRANCH  24  27
HETATM   27  S   UNL     1     -45.379  60.281 -50.132  1.00  0.00    -0.134 SA
HETATM   28  C   UNL     1     -44.213  61.386 -49.293  1.00  0.00     0.095 C 
ENDBRANCH  24  27
ENDBRANCH   1  21
BRANCH  16  29
HETATM   29  N   UNL     1     -43.352  56.732 -59.109  1.00  0.00    -0.272 NA
HETATM   30  H   UNL     1     -44.266  57.162 -59.221  1.00  0.00     0.127 HD
HETATM   31  H   UNL     1     -43.267  55.872 -59.634  1.00  0.00     0.127 HD
ENDBRANCH  16  29
TORSDOF 3
ENDMDL
MODEL 2
REMARK VINA RESULT:      -8.5      3.292      5.131
REMARK  3 active torsions:
REMARK  status: ('A' for Active; 'I' for Inactive)
REMARK    1  A    between atoms: S_2  and  C_3 
REMARK    2  A    between atoms: C_6  and  C_7 
REMARK    3  A    between atoms: C_22  and  N_23 
ROOT
HETATM    1  C   UNL     1     -42.872  56.157 -54.400  1.00  0.00     0.078 C 
HETATM    2  C   UNL     1     -41.503  55.630 -53.975  1.00  0.00     0.127 C 
HETATM    3  C   UNL     1     -41.532  55.193 -52.534  1.00  0.00     0.060 C 
HETATM    4  C   UNL     1     -40.755  53.970 -52.388  1.00  0.00     0.003 A 
HETATM    5  C   UNL     1     -40.484  53.461 -53.653  1.00  0.00     0.023 A 
HETATM    6  C   UNL     1     -39.861  52.240 -53.825  1.00  0.00     0.016 A 
HETATM    7  C   UNL     1     -39.506  51.531 -52.673  1.00  0.00     0.001 A 
HETATM    8  C   UNL     1     -39.785  52.046 -51.391  1.00  0.00     0.001 A 
HETATM    9  C   UNL     1     -40.426  53.279 -51.238  1.00  0.00     0.014 A 
HETATM   10  C   UNL     1     -41.002  54.378 -54.676  1.00  0.00     0.171 C 
HETATM   11  O   UNL     1     -40.987  54.138 -55.868  1.00  0.00    -0.291 OA
HETATM   12  N   UNL     1     -42.208  55.735 -51.582  1.00  0.00    -0.231 NA
HETATM   13  C   UNL     1     -43.152  56.665 -51.947  1.00  0.00     0.165 C 
HETATM   14  C   UNL     1     -43.560  56.817 -53.222  1.00  0.00     0.067 C 
HETATM   15  N   UNL     1     -43.729  57.286 -50.873  1.00  0.00    -0.200 NA
HETATM   16  C   UNL     1     -44.757  58.036 -51.082  1.00  0.00     0.181 C 
HETATM   17  N   UNL     1     -45.286  58.222 -52.315  1.00  0.00    -0.298 N 
HETATM   18  C   UNL     1     -44.803  57.590 -53.419  1.00  0.00     0.258 C 
HETATM   19  O   UNL     1     -45.406  57.626 -54.486  1.00  0.00    -0.267 OA
HETATM   20  H   UNL     1     -46.114  58.780 -52.443  1.00  0.00     0.171 HD
ENDROOT
BRANCH   1  21
HETATM   21  C   UNL     1     -42.667  57.079 -55.607  1.00  0.00    -0.048 A 
HETATM   22  C   UNL     1     -42.152  58.368 -55.412  1.00  0.00     0.009 A 
HETATM   23  C   UNL     1     -41.962  59.244 -56.490  1.00  0.00     0.019 A 
HETATM   24  C   UNL     1     -42.279  58.853 -57.791  1.00  0.00    -0.000 A 
HETATM   25  C   UNL     1     -42.805  57.570 -57.988  1.00  0.00     0.019 A 
HETATM   26  C   UNL     1     -43.009  56.697 -56.912  1.00  0.00     0.009 A 
BRANCH  24  27
HETATM   27  S   UNL     1     -42.056  59.867 -59.249  1.00  0.00    -0.134 SA
HETATM   28  C   UNL     1     -41.933  58.653 -60.589  1.00  0.00     0.095 C 
ENDBRANCH  24  27
ENDBRANCH   1  21
BRANCH  16  29
HETATM   29  N   UNL     1     -45.371  58.663 -50.048  1.00  0.00    -0.272 NA
HETATM   30  H   UNL     1     -46.376  58.704 -50.191  1.00  0.00     0.127 HD
HETATM   31  H   UNL     1     -44.986  59.558 -49.778  1.00  0.00     0.127 HD
ENDBRANCH  16  29
TORSDOF 3
ENDMDL
MODEL 3
REMARK VINA RESULT:      -8.1      2.823      6.374
REMARK  3 active torsions:
REMARK  status: ('A' for Active; 'I' for Inactive)
REMARK    1  A    between atoms: S_2  and  C_3 
REMARK    2  A    between atoms: C_6  and  C_7 
REMARK    3  A    between atoms: C_22  and  N_23 
ROOT
HETATM    1  C   UNL     1     -42.583  56.493 -54.958  1.00  0.00     0.078 C 
HETATM    2  C   UNL     1     -41.957  57.681 -54.230  1.00  0.00     0.127 C 
HETATM    3  C   UNL     1     -42.225  58.959 -54.980  1.00  0.00     0.060 C 
HETATM    4  C   UNL     1     -42.519  60.021 -54.028  1.00  0.00     0.003 A 
HETATM    5  C   UNL     1     -42.731  59.452 -52.778  1.00  0.00     0.023 A 
HETATM    6  C   UNL     1     -43.147  60.209 -51.699  1.00  0.00     0.016 A 
HETATM    7  C   UNL     1     -43.343  61.577 -51.909  1.00  0.00     0.001 A 
HETATM    8  C   UNL     1     -43.131  62.152 -53.178  1.00  0.00     0.001 A 
HETATM    9  C   UNL     1     -42.721  61.368 -54.261  1.00  0.00     0.014 A 
HETATM   10  C   UNL     1     -42.502  58.004 -52.848  1.00  0.00     0.171 C 
HETATM   11  O   UNL     1     -42.707  57.242 -51.923  1.00  0.00    -0.291 OA
HETATM   12  N   UNL     1     -42.292  59.098 -56.259  1.00  0.00    -0.231 NA
HETATM   13  C   UNL     1     -42.331  57.944 -57.003  1.00  0.00     0.165 C 
HETATM   14  C   UNL     1     -42.567  56.737 -56.454  1.00  0.00     0.067 C 
HETATM   15  N   UNL     1     -42.266  58.179 -58.350  1.00  0.00    -0.200 NA
HETATM   16  C   UNL     1     -42.485  57.193 -59.153  1.00  0.00     0.181 C 
HETATM   17  N   UNL     1     -42.782  55.946 -58.713  1.00  0.00    -0.298 N 
HETATM   18  C   UNL     1     -42.923  55.654 -57.391  1.00  0.00     0.258 C 
HETATM   19  O   UNL     1     -43.371  54.573 -57.026  1.00  0.00    -0.267 OA
HETATM   20  H   UNL     1     -42.989  55.206 -59.362  1.00  0.00     0.171 HD
ENDROOT
BRANCH   1  21
HETATM   21  C   UNL     1     -41.841  55.227 -54.517  1.00  0.00    -0.048 A 
HETATM   22  C   UNL     1     -40.564  54.962 -55.031  1.00  0.00     0.009 A 
HETATM   23  C   UNL     1     -39.859  53.808 -54.661  1.00  0.00     0.019 A 
HETATM   24  C   UNL     1     -40.412  52.890 -53.766  1.00  0.00    -0.000 A 
HETATM   25  C   UNL     1     -41.693  53.147 -53.262  1.00  0.00     0.019 A 
HETATM   26  C   UNL     1     -42.405  54.291 -53.639  1.00  0.00     0.009 A 
BRANCH  24  27
HETATM   27  S   UNL     1     -39.602  51.400 -53.197  1.00  0.00    -0.134 SA
HETATM   28  C   UNL     1     -40.194  50.134 -54.351  1.00  0.00     0.095 C 
ENDBRANCH  24  27
ENDBRANCH   1  21
BRANCH  16  29
HETATM   29  N   UNL     1     -42.444  57.379 -60.495  1.00  0.00    -0.272 NA
HETATM   30  H   UNL     1     -42.803  58.296 -60.747  1.00  0.00     0.127 HD
HETATM   31  H   UNL     1     -42.847  56.642 -61.059  1.00  0.00     0.127 HD
ENDBRANCH  16  29
TORSDOF 3
ENDMDL
MODEL 4
REMARK VINA RESULT:      -7.8     16.536     19.776
REMARK  3 active torsions:
REMARK  status: ('A' for Active; 'I' for Inactive)
REMARK    1  A    between atoms: S_2  and  C_3 
REMARK    2  A    between atoms: C_6  and  C_7 
REMARK    3  A    between atoms: C_22  and  N_23 
ROOT
HETATM    1  C   UNL     1     -33.067  38.996 -53.627  1.00  0.00     0.078 C 
HETATM    2  C   UNL     1     -33.730  40.349 -53.879  1.00  0.00     0.127 C 
HETATM    3  C   UNL     1     -33.527  40.775 -55.310  1.00  0.00     0.060 C 
HETATM    4  C   UNL     1     -34.749  41.393 -55.804  1.00  0.00     0.003 A 
HETATM    5  C   UNL     1     -35.775  41.134 -54.903  1.00  0.00     0.023 A 
HETATM    6  C   UNL     1     -37.081  41.497 -55.168  1.00  0.00     0.016 A 
HETATM    7  C   UNL     1     -37.336  42.143 -56.382  1.00  0.00     0.001 A 
HETATM    8  C   UNL     1     -36.296  42.402 -57.296  1.00  0.00     0.001 A 
HETATM    9  C   UNL     1     -34.982  42.016 -57.015  1.00  0.00     0.014 A 
HETATM   10  C   UNL     1     -35.242  40.408 -53.743  1.00  0.00     0.171 C 
HETATM   11  O   UNL     1     -35.934  39.971 -52.844  1.00  0.00    -0.291 OA
HETATM   12  N   UNL     1     -32.486  40.552 -56.036  1.00  0.00    -0.231 NA
HETATM   13  C   UNL     1     -31.564  39.666 -55.536  1.00  0.00     0.165 C 
HETATM   14  C   UNL     1     -31.831  38.857 -54.492  1.00  0.00     0.067 C 
HETATM   15  N   UNL     1     -30.433  39.588 -56.303  1.00  0.00    -0.200 NA
HETATM   16  C   UNL     1     -29.581  38.655 -56.041  1.00  0.00     0.181 C 
HETATM   17  N   UNL     1     -29.769  37.753 -55.048  1.00  0.00    -0.298 N 
HETATM   18  C   UNL     1     -30.897  37.732 -54.285  1.00  0.00     0.258 C 
HETATM   19  O   UNL     1     -31.129  36.802 -53.522  1.00  0.00    -0.267 OA
HETATM   20  H   UNL     1     -29.107  37.011 -54.892  1.00  0.00     0.171 HD
ENDROOT
BRANCH   1  21
HETATM   21  C   UNL     1     -32.800  38.877 -52.123  1.00  0.00    -0.048 A 
HETATM   22  C   UNL     1     -33.435  37.866 -51.387  1.00  0.00     0.009 A 
HETATM   23  C   UNL     1     -33.225  37.733 -50.007  1.00  0.00     0.019 A 
HETATM   24  C   UNL     1     -32.374  38.606 -49.327  1.00  0.00    -0.000 A 
HETATM   25  C   UNL     1     -31.749  39.624 -50.058  1.00  0.00     0.019 A 
HETATM   26  C   UNL     1     -31.966  39.768 -51.433  1.00  0.00     0.009 A 
BRANCH  24  27
HETATM   27  S   UNL     1     -32.005  38.522 -47.579  1.00  0.00    -0.134 SA
HETATM   28  C   UNL     1     -30.827  39.877 -47.333  1.00  0.00     0.095 C 
ENDBRANCH  24  27
ENDBRANCH   1  21
BRANCH  16  29
HETATM   29  N   UNL     1     -28.452  38.530 -56.780  1.00  0.00    -0.272 NA
HETATM   30  H   UNL     1     -27.658  38.951 -56.306  1.00  0.00     0.127 HD
HETATM   31  H   UNL     1     -28.518  38.819 -57.747  1.00  0.00     0.127 HD
ENDBRANCH  16  29
TORSDOF 3
ENDMDL
MODEL 5
REMARK VINA RESULT:      -7.8      2.719      6.394
REMARK  3 active torsions:
REMARK  status: ('A' for Active; 'I' for Inactive)
REMARK    1  A    between atoms: S_2  and  C_3 
REMARK    2  A    between atoms: C_6  and  C_7 
REMARK    3  A    between atoms: C_22  and  N_23 
ROOT
HETATM    1  C   UNL     1     -43.762  56.508 -53.790  1.00  0.00     0.078 C 
HETATM    2  C   UNL     1     -43.757  57.864 -53.087  1.00  0.00     0.127 C 
HETATM    3  C   UNL     1     -44.089  58.963 -54.063  1.00  0.00     0.060 C 
HETATM    4  C   UNL     1     -44.957  59.935 -53.413  1.00  0.00     0.003 A 
HETATM    5  C   UNL     1     -45.416  59.393 -52.218  1.00  0.00     0.023 A 
HETATM    6  C   UNL     1     -46.355  60.044 -51.441  1.00  0.00     0.016 A 
HETATM    7  C   UNL     1     -46.826  61.278 -51.900  1.00  0.00     0.001 A 
HETATM    8  C   UNL     1     -46.362  61.825 -53.113  1.00  0.00     0.001 A 
HETATM    9  C   UNL     1     -45.420  61.145 -53.891  1.00  0.00     0.014 A 
HETATM   10  C   UNL     1     -44.799  58.079 -52.002  1.00  0.00     0.171 C 
HETATM   11  O   UNL     1     -45.091  57.339 -51.083  1.00  0.00    -0.291 OA
HETATM   12  N   UNL     1     -43.757  59.010 -55.307  1.00  0.00    -0.231 NA
HETATM   13  C   UNL     1     -43.235  57.861 -55.849  1.00  0.00     0.165 C 
HETATM   14  C   UNL     1     -43.311  56.668 -55.227  1.00  0.00     0.067 C 
HETATM   15  N   UNL     1     -42.787  58.035 -57.131  1.00  0.00    -0.200 NA
HETATM   16  C   UNL     1     -42.454  56.990 -57.808  1.00  0.00     0.181 C 
HETATM   17  N   UNL     1     -42.537  55.735 -57.303  1.00  0.00    -0.298 N 
HETATM   18  C   UNL     1     -43.029  55.482 -56.059  1.00  0.00     0.258 C 
HETATM   19  O   UNL     1     -43.268  54.336 -55.694  1.00  0.00    -0.267 OA
HETATM   20  H   UNL     1     -42.308  54.935 -57.868  1.00  0.00     0.171 HD
ENDROOT
BRANCH   1  21
HETATM   21  C   UNL     1     -42.902  55.547 -52.963  1.00  0.00    -0.048 A 
HETATM   22  C   UNL     1     -43.521  54.539 -52.209  1.00  0.00     0.009 A 
HETATM   23  C   UNL     1     -42.768  53.650 -51.431  1.00  0.00     0.019 A 
HETATM   24  C   UNL     1     -41.376  53.742 -51.387  1.00  0.00    -0.000 A 
HETATM   25  C   UNL     1     -40.755  54.756 -52.128  1.00  0.00     0.019 A 
HETATM   26  C   UNL     1     -41.505  55.655 -52.896  1.00  0.00     0.009 A 
BRANCH  24  27
HETATM   27  S   UNL     1     -40.305  52.651 -50.456  1.00  0.00    -0.134 SA
HETATM   28  C   UNL     1     -39.529  51.631 -51.737  1.00  0.00     0.095 C 
ENDBRANCH  24  27
ENDBRANCH   1  21
BRANCH  16  29
HETATM   29  N   UNL     1     -42.016  57.110 -59.085  1.00  0.00    -0.272 NA
HETATM   30  H   UNL     1     -42.192  56.260 -59.613  1.00  0.00     0.127 HD
HETATM   31  H   UNL     1     -41.068  57.443 -59.202  1.00  0.00     0.127 HD
ENDBRANCH  16  29
TORSDOF 3
ENDMDL
MODEL 6
REMARK VINA RESULT:      -7.7      1.550      1.941
REMARK  3 active torsions:
REMARK  status: ('A' for Active; 'I' for Inactive)
REMARK    1  A    between atoms: S_2  and  C_3 
REMARK    2  A    between atoms: C_6  and  C_7 
REMARK    3  A    between atoms: C_22  and  N_23 
ROOT
HETATM    1  C   UNL     1     -42.219  57.748 -53.522  1.00  0.00     0.078 C 
HETATM    2  C   UNL     1     -42.437  56.641 -52.493  1.00  0.00     0.127 C 
HETATM    3  C   UNL     1     -42.032  55.307 -53.061  1.00  0.00     0.060 C 
HETATM    4  C   UNL     1     -41.355  54.532 -52.031  1.00  0.00     0.003 A 
HETATM    5  C   UNL     1     -41.057  55.373 -50.965  1.00  0.00     0.023 A 
HETATM    6  C   UNL     1     -40.308  54.940 -49.888  1.00  0.00     0.016 A 
HETATM    7  C   UNL     1     -39.859  53.616 -49.907  1.00  0.00     0.001 A 
HETATM    8  C   UNL     1     -40.158  52.765 -50.990  1.00  0.00     0.001 A 
HETATM    9  C   UNL     1     -40.909  53.225 -52.076  1.00  0.00     0.014 A 
HETATM   10  C   UNL     1     -41.604  56.711 -51.223  1.00  0.00     0.171 C 
HETATM   11  O   UNL     1     -41.412  57.670 -50.501  1.00  0.00    -0.291 OA
HETATM   12  N   UNL     1     -42.160  54.924 -54.284  1.00  0.00    -0.231 NA
HETATM   13  C   UNL     1     -42.501  55.889 -55.200  1.00  0.00     0.165 C 
HETATM   14  C   UNL     1     -42.441  57.205 -54.920  1.00  0.00     0.067 C 
HETATM   15  N   UNL     1     -42.746  55.376 -56.446  1.00  0.00    -0.200 NA
HETATM   16  C   UNL     1     -42.888  56.200 -57.428  1.00  0.00     0.181 C 
HETATM   17  N   UNL     1     -42.797  57.543 -57.272  1.00  0.00    -0.298 N 
HETATM   18  C   UNL     1     -42.496  58.120 -56.077  1.00  0.00     0.258 C 
HETATM   19  O   UNL     1     -42.237  59.316 -55.997  1.00  0.00    -0.267 OA
HETATM   20  H   UNL     1     -42.872  58.160 -58.064  1.00  0.00     0.171 HD
ENDROOT
BRANCH   1  21
HETATM   21  C   UNL     1     -43.130  58.922 -53.150  1.00  0.00    -0.048 A 
HETATM   22  C   UNL     1     -42.561  60.128 -52.716  1.00  0.00     0.009 A 
HETATM   23  C   UNL     1     -43.362  61.220 -52.355  1.00  0.00     0.019 A 
HETATM   24  C   UNL     1     -44.753  61.137 -52.421  1.00  0.00    -0.000 A 
HETATM   25  C   UNL     1     -45.325  59.929 -52.843  1.00  0.00     0.019 A 
HETATM   26  C   UNL     1     -44.529  58.832 -53.191  1.00  0.00     0.009 A 
BRANCH  24  27
HETATM   27  S   UNL     1     -45.880  62.466 -52.016  1.00  0.00    -0.134 SA
HETATM   28  C   UNL     1     -46.154  62.257 -50.237  1.00  0.00     0.095 C 
ENDBRANCH  24  27
ENDBRANCH   1  21
BRANCH  16  29
HETATM   29  N   UNL     1     -43.120  55.740 -58.681  1.00  0.00    -0.272 NA
HETATM   30  H   UNL     1     -44.042  55.318 -58.750  1.00  0.00     0.127 HD
HETATM   31  H   UNL     1     -42.400  55.153 -59.081  1.00  0.00     0.127 HD
ENDBRANCH  16  29
TORSDOF 3
ENDMDL
MODEL 7
REMARK VINA RESULT:      -7.6      3.604      7.236
REMARK  3 active torsions:
REMARK  status: ('A' for Active; 'I' for Inactive)
REMARK    1  A    between atoms: S_2  and  C_3 
REMARK    2  A    between atoms: C_6  and  C_7 
REMARK    3  A    between atoms: C_22  and  N_23 
ROOT
HETATM    1  C   UNL     1     -42.670  57.027 -54.740  1.00  0.00     0.078 C 
HETATM    2  C   UNL     1     -43.812  56.789 -55.727  1.00  0.00     0.127 C 
HETATM    3  C   UNL     1     -44.849  57.874 -55.603  1.00  0.00     0.060 C 
HETATM    4  C   UNL     1     -45.328  58.233 -56.931  1.00  0.00     0.003 A 
HETATM    5  C   UNL     1     -44.481  57.669 -57.877  1.00  0.00     0.023 A 
HETATM    6  C   UNL     1     -44.620  57.937 -59.225  1.00  0.00     0.016 A 
HETATM    7  C   UNL     1     -45.652  58.801 -59.607  1.00  0.00     0.001 A 
HETATM    8  C   UNL     1     -46.508  59.375 -58.646  1.00  0.00     0.001 A 
HETATM    9  C   UNL     1     -46.344  59.100 -57.285  1.00  0.00     0.014 A 
HETATM   10  C   UNL     1     -43.465  56.849 -57.205  1.00  0.00     0.171 C 
HETATM   11  O   UNL     1     -42.539  56.314 -57.783  1.00  0.00    -0.291 OA
HETATM   12  N   UNL     1     -45.203  58.478 -54.521  1.00  0.00    -0.231 NA
HETATM   13  C   UNL     1     -44.419  58.265 -53.413  1.00  0.00     0.165 C 
HETATM   14  C   UNL     1     -43.201  57.694 -53.487  1.00  0.00     0.067 C 
HETATM   15  N   UNL     1     -44.937  58.833 -52.280  1.00  0.00    -0.200 NA
HETATM   16  C   UNL     1     -44.201  58.864 -51.222  1.00  0.00     0.181 C 
HETATM   17  N   UNL     1     -42.941  58.366 -51.194  1.00  0.00    -0.298 N 
HETATM   18  C   UNL     1     -42.340  57.842 -52.297  1.00  0.00     0.258 C 
HETATM   19  O   UNL     1     -41.145  57.569 -52.299  1.00  0.00    -0.267 OA
HETATM   20  H   UNL     1     -42.375  58.440 -50.366  1.00  0.00     0.171 HD
ENDROOT
BRANCH   1  21
HETATM   21  C   UNL     1     -41.975  55.684 -54.493  1.00  0.00    -0.048 A 
HETATM   22  C   UNL     1     -42.619  54.704 -53.724  1.00  0.00     0.009 A 
HETATM   23  C   UNL     1     -42.009  53.469 -53.466  1.00  0.00     0.019 A 
HETATM   24  C   UNL     1     -40.741  53.179 -53.972  1.00  0.00    -0.000 A 
HETATM   25  C   UNL     1     -40.090  54.161 -54.730  1.00  0.00     0.019 A 
HETATM   26  C   UNL     1     -40.690  55.402 -54.979  1.00  0.00     0.009 A 
BRANCH  24  27
HETATM   27  S   UNL     1     -39.873  51.633 -53.737  1.00  0.00    -0.134 SA
HETATM   28  C   UNL     1     -39.563  51.593 -51.951  1.00  0.00     0.095 C 
ENDBRANCH  24  27
ENDBRANCH   1  21
BRANCH  16  29
HETATM   29  N   UNL     1     -44.665  59.426 -50.079  1.00  0.00    -0.272 NA
HETATM   30  H   UNL     1     -43.982  60.067 -49.684  1.00  0.00     0.127 HD
HETATM   31  H   UNL     1     -45.036  58.788 -49.387  1.00  0.00     0.127 HD
ENDBRANCH  16  29
TORSDOF 3
ENDMDL
MODEL 8
REMARK VINA RESULT:      -7.3      3.167      5.911
REMARK  3 active torsions:
REMARK  status: ('A' for Active; 'I' for Inactive)
REMARK    1  A    between atoms: S_2  and  C_3 
REMARK    2  A    between atoms: C_6  and  C_7 
REMARK    3  A    between atoms: C_22  and  N_23 
ROOT
HETATM    1  C   UNL     1     -42.330  57.624 -55.183  1.00  0.00     0.078 C 
HETATM    2  C   UNL     1     -43.451  56.968 -55.986  1.00  0.00     0.127 C 
HETATM    3  C   UNL     1     -43.994  57.929 -57.012  1.00  0.00     0.060 C 
HETATM    4  C   UNL     1     -44.266  57.208 -58.248  1.00  0.00     0.003 A 
HETATM    5  C   UNL     1     -43.679  55.951 -58.168  1.00  0.00     0.023 A 
HETATM    6  C   UNL     1     -43.672  55.085 -59.245  1.00  0.00     0.016 A 
HETATM    7  C   UNL     1     -44.283  55.520 -60.425  1.00  0.00     0.001 A 
HETATM    8  C   UNL     1     -44.875  56.797 -60.505  1.00  0.00     0.001 A 
HETATM    9  C   UNL     1     -44.862  57.663 -59.408  1.00  0.00     0.014 A 
HETATM   10  C   UNL     1     -43.073  55.771 -56.843  1.00  0.00     0.171 C 
HETATM   11  O   UNL     1     -42.410  54.802 -56.530  1.00  0.00    -0.291 OA
HETATM   12  N   UNL     1     -44.114  59.205 -56.880  1.00  0.00    -0.231 NA
HETATM   13  C   UNL     1     -43.499  59.772 -55.790  1.00  0.00     0.165 C 
HETATM   14  C   UNL     1     -42.593  59.110 -55.045  1.00  0.00     0.067 C 
HETATM   15  N   UNL     1     -43.786  61.103 -55.653  1.00  0.00    -0.200 NA
HETATM   16  C   UNL     1     -43.120  61.784 -54.783  1.00  0.00     0.181 C 
HETATM   17  N   UNL     1     -42.149  61.235 -54.014  1.00  0.00    -0.298 N 
HETATM   18  C   UNL     1     -41.769  59.934 -54.138  1.00  0.00     0.258 C 
HETATM   19  O   UNL     1     -40.771  59.507 -53.568  1.00  0.00    -0.267 OA
HETATM   20  H   UNL     1     -41.618  61.799 -53.372  1.00  0.00     0.171 HD
ENDROOT
BRANCH   1  21
HETATM   21  C   UNL     1     -42.210  56.879 -53.849  1.00  0.00    -0.048 A 
HETATM   22  C   UNL     1     -43.232  56.998 -52.897  1.00  0.00     0.009 A 
HETATM   23  C   UNL     1     -43.152  56.342 -51.661  1.00  0.00     0.019 A 
HETATM   24  C   UNL     1     -42.050  55.547 -51.345  1.00  0.00    -0.000 A 
HETATM   25  C   UNL     1     -41.021  55.436 -52.290  1.00  0.00     0.019 A 
HETATM   26  C   UNL     1     -41.091  56.101 -53.520  1.00  0.00     0.009 A 
BRANCH  24  27
HETATM   27  S   UNL     1     -41.845  54.639 -49.817  1.00  0.00    -0.134 SA
HETATM   28  C   UNL     1     -40.047  54.483 -49.659  1.00  0.00     0.095 C 
ENDBRANCH  24  27
ENDBRANCH   1  21
BRANCH  16  29
HETATM   29  N   UNL     1     -43.359  63.108 -54.619  1.00  0.00    -0.272 NA
HETATM   30  H   UNL     1     -42.492  63.623 -54.496  1.00  0.00     0.127 HD
HETATM   31  H   UNL     1     -44.051  63.353 -53.922  1.00  0.00     0.127 HD
ENDBRANCH  16  29
TORSDOF 3
ENDMDL
MODEL 9
REMARK VINA RESULT:      -7.2      3.715      7.247
REMARK  3 active torsions:
REMARK  status: ('A' for Active; 'I' for Inactive)
REMARK    1  A    between atoms: S_2  and  C_3 
REMARK    2  A    between atoms: C_6  and  C_7 
REMARK    3  A    between atoms: C_22  and  N_23 
ROOT
HETATM    1  C   UNL     1     -44.033  58.779 -57.310  1.00  0.00     0.078 C 
HETATM    2  C   UNL     1     -42.679  59.042 -57.965  1.00  0.00     0.127 C 
HETATM    3  C   UNL     1     -42.858  59.388 -59.421  1.00  0.00     0.060 C 
HETATM    4  C   UNL     1     -41.930  60.452 -59.778  1.00  0.00     0.003 A 
HETATM    5  C   UNL     1     -41.393  60.985 -58.612  1.00  0.00     0.023 A 
HETATM    6  C   UNL     1     -40.568  62.092 -58.635  1.00  0.00     0.016 A 
HETATM    7  C   UNL     1     -40.286  62.660 -59.882  1.00  0.00     0.001 A 
HETATM    8  C   UNL     1     -40.833  62.120 -61.063  1.00  0.00     0.001 A 
HETATM    9  C   UNL     1     -41.676  61.005 -61.018  1.00  0.00     0.014 A 
HETATM   10  C   UNL     1     -41.887  60.233 -57.452  1.00  0.00     0.171 C 
HETATM   11  O   UNL     1     -41.654  60.541 -56.299  1.00  0.00    -0.291 OA
HETATM   12  N   UNL     1     -43.748  58.909 -60.219  1.00  0.00    -0.231 NA
HETATM   13  C   UNL     1     -44.759  58.175 -59.647  1.00  0.00     0.165 C 
HETATM   14  C   UNL     1     -44.988  58.173 -58.319  1.00  0.00     0.067 C 
HETATM   15  N   UNL     1     -45.583  57.595 -60.573  1.00  0.00    -0.200 NA
HETATM   16  C   UNL     1     -46.673  57.043 -60.158  1.00  0.00     0.181 C 
HETATM   17  N   UNL     1     -47.031  57.024 -58.851  1.00  0.00    -0.298 N 
HETATM   18  C   UNL     1     -46.291  57.634 -57.885  1.00  0.00     0.258 C 
HETATM   19  O   UNL     1     -46.723  57.765 -56.745  1.00  0.00    -0.267 OA
HETATM   20  H   UNL     1     -47.906  56.622 -58.562  1.00  0.00     0.171 HD
ENDROOT
BRANCH   1  21
HETATM   21  C   UNL     1     -43.794  57.913 -56.069  1.00  0.00    -0.048 A 
HETATM   22  C   UNL     1     -44.090  58.429 -54.799  1.00  0.00     0.009 A 
HETATM   23  C   UNL     1     -43.873  57.671 -53.640  1.00  0.00     0.019 A 
HETATM   24  C   UNL     1     -43.357  56.376 -53.720  1.00  0.00    -0.000 A 
HETATM   25  C   UNL     1     -43.049  55.863 -54.986  1.00  0.00     0.019 A 
HETATM   26  C   UNL     1     -43.252  56.622 -56.145  1.00  0.00     0.009 A 
BRANCH  24  27
HETATM   27  S   UNL     1     -43.063  55.302 -52.320  1.00  0.00    -0.134 SA
HETATM   28  C   UNL     1     -42.169  53.902 -53.045  1.00  0.00     0.095 C 
ENDBRANCH  24  27
ENDBRANCH   1  21
BRANCH  16  29
HETATM   29  N   UNL     1     -47.526  56.465 -61.038  1.00  0.00    -0.272 NA
HETATM   30  H   UNL     1     -48.443  56.902 -60.997  1.00  0.00     0.127 HD
HETATM   31  H   UNL     1     -47.583  55.455 -61.007  1.00  0.00     0.127 HD
ENDBRANCH  16  29
TORSDOF 3
ENDMDL
MODEL 10
REMARK VINA RESULT:      -6.8     17.167     19.217
REMARK  3 active torsions:
REMARK  status: ('A' for Active; 'I' for Inactive)
REMARK    1  A    between atoms: S_2  and  C_3 
REMARK    2  A    between atoms: C_6  and  C_7 
REMARK    3  A    between atoms: C_22  and  N_23 
ROOT
HETATM    1  C   UNL     1     -34.126  40.059 -53.967  1.00  0.00     0.078 C 
HETATM    2  C   UNL     1     -35.137  39.315 -53.097  1.00  0.00     0.127 C 
HETATM    3  C   UNL     1     -34.427  38.412 -52.122  1.00  0.00     0.060 C 
HETATM    4  C   UNL     1     -35.111  38.464 -50.837  1.00  0.00     0.003 A 
HETATM    5  C   UNL     1     -36.007  39.526 -50.852  1.00  0.00     0.023 A 
HETATM    6  C   UNL     1     -36.714  39.893 -49.723  1.00  0.00     0.016 A 
HETATM    7  C   UNL     1     -36.498  39.150 -48.558  1.00  0.00     0.001 A 
HETATM    8  C   UNL     1     -35.587  38.075 -48.544  1.00  0.00     0.001 A 
HETATM    9  C   UNL     1     -34.873  37.726 -49.694  1.00  0.00     0.014 A 
HETATM   10  C   UNL     1     -36.003  40.158 -52.177  1.00  0.00     0.171 C 
HETATM   11  O   UNL     1     -36.622  41.170 -52.444  1.00  0.00    -0.291 OA
HETATM   12  N   UNL     1     -33.332  37.766 -52.331  1.00  0.00    -0.231 NA
HETATM   13  C   UNL     1     -32.634  38.090 -53.469  1.00  0.00     0.165 C 
HETATM   14  C   UNL     1     -32.901  39.194 -54.192  1.00  0.00     0.067 C 
HETATM   15  N   UNL     1     -31.559  37.269 -53.682  1.00  0.00    -0.200 NA
HETATM   16  C   UNL     1     -30.721  37.590 -54.609  1.00  0.00     0.181 C 
HETATM   17  N   UNL     1     -30.861  38.706 -55.365  1.00  0.00    -0.298 N 
HETATM   18  C   UNL     1     -31.870  39.598 -55.168  1.00  0.00     0.258 C 
HETATM   19  O   UNL     1     -31.874  40.685 -55.734  1.00  0.00    -0.267 OA
HETATM   20  H   UNL     1     -30.170  38.953 -56.053  1.00  0.00     0.171 HD
ENDROOT
BRANCH   1  21
HETATM   21  C   UNL     1     -34.839  40.487 -55.254  1.00  0.00    -0.048 A 
HETATM   22  C   UNL     1     -35.416  39.513 -56.081  1.00  0.00     0.009 A 
HETATM   23  C   UNL     1     -36.066  39.866 -57.272  1.00  0.00     0.019 A 
HETATM   24  C   UNL     1     -36.158  41.202 -57.667  1.00  0.00    -0.000 A 
HETATM   25  C   UNL     1     -35.571  42.176 -56.849  1.00  0.00     0.019 A 
HETATM   26  C   UNL     1     -34.909  41.826 -55.665  1.00  0.00     0.009 A 
BRANCH  24  27
HETATM   27  S   UNL     1     -36.983  41.779 -59.145  1.00  0.00    -0.134 SA
HETATM   28  C   UNL     1     -37.167  40.274 -60.138  1.00  0.00     0.095 C 
ENDBRANCH  24  27
ENDBRANCH   1  21
BRANCH  16  29
HETATM   29  N   UNL     1     -29.635  36.816 -54.850  1.00  0.00    -0.272 NA
HETATM   30  H   UNL     1     -29.426  36.781 -55.844  1.00  0.00     0.127 HD
HETATM   31  H   UNL     1     -29.641  35.896 -54.429  1.00  0.00     0.127 HD
ENDBRANCH  16  29
TORSDOF 3
ENDMDL
