MODEL 1
REMARK VINA RESULT:      -8.5      0.000      0.000
REMARK  7 active torsions:
REMARK  status: ('A' for Active; 'I' for Inactive)
REMARK    1  A    between atoms: O_2  and  C_3 
REMARK    2  A    between atoms: C_6  and  C_7 
REMARK    3  A    between atoms: C_7  and  C_8 
REMARK    4  A    between atoms: C_8  and  C_9 
REMARK    5  A    between atoms: C_9  and  O_10 
REMARK    6  A    between atoms: N_13  and  C_14 
REMARK    7  A    between atoms: C_14  and  N_15 
ROOT
HETATM    1  C   UNL     1     -43.389  56.388 -54.053  1.00  0.00     0.175 C 
HETATM    2  C   UNL     1     -42.996  56.419 -55.572  1.00  0.00     0.265 C 
HETATM    3  O   UNL     1     -42.143  55.792 -56.185  1.00  0.00    -0.269 OA
HETATM    4  N   UNL     1     -43.828  57.351 -56.209  1.00  0.00    -0.289 N 
HETATM    5  C   UNL     1     -44.398  58.200 -55.249  1.00  0.00     0.049 A 
HETATM    6  C   UNL     1     -44.115  57.717 -53.962  1.00  0.00     0.014 A 
HETATM    7  C   UNL     1     -45.104  59.374 -55.445  1.00  0.00     0.032 A 
HETATM    8  C   UNL     1     -45.533  60.074 -54.312  1.00  0.00     0.021 A 
HETATM    9  C   UNL     1     -45.254  59.592 -53.023  1.00  0.00     0.011 A 
HETATM   10 BR   UNL     1     -45.853  60.565 -51.518  1.00  0.00    -0.051 Br
HETATM   11  C   UNL     1     -44.547  58.402 -52.835  1.00  0.00     0.032 A 
ENDROOT
BRANCH   1  12
HETATM   12  C   UNL     1     -42.168  56.241 -53.146  1.00  0.00     0.137 C 
BRANCH  12  13
HETATM   13  C   UNL     1     -42.274  55.032 -52.224  1.00  0.00     0.163 C 
HETATM   14  O   UNL     1     -43.043  54.994 -51.266  1.00  0.00    -0.292 OA
BRANCH  13  15
HETATM   15  C   UNL     1     -41.427  53.831 -52.500  1.00  0.00     0.010 A 
HETATM   16  C   UNL     1     -40.593  53.250 -51.539  1.00  0.00     0.018 A 
HETATM   17  C   UNL     1     -39.822  52.122 -51.860  1.00  0.00     0.037 A 
HETATM   18  C   UNL     1     -39.877  51.570 -53.140  1.00  0.00     0.068 A 
HETATM   19  C   UNL     1     -40.704  52.153 -54.099  1.00  0.00     0.037 A 
HETATM   20  C   UNL     1     -41.476  53.274 -53.784  1.00  0.00     0.018 A 
BRANCH  18  21
HETATM   21  O   UNL     1     -39.180  50.480 -53.580  1.00  0.00    -0.356 OA
HETATM   22  C   UNL     1     -39.707  49.777 -54.697  1.00  0.00     0.210 C 
ENDBRANCH  18  21
ENDBRANCH  13  15
ENDBRANCH  12  13
ENDBRANCH   1  12
BRANCH   1  23
HETATM   23  O   UNL     1     -44.361  55.395 -53.741  1.00  0.00    -0.375 OA
HETATM   24  H   UNL     1     -45.096  55.430 -54.374  1.00  0.00     0.211 HD
ENDBRANCH   1  23
BRANCH   4  25
HETATM   25  C   UNL     1     -43.687  57.685 -57.597  1.00  0.00     0.367 C 
BRANCH  25  26
HETATM   26  N   UNL     1     -44.452  56.732 -58.466  1.00  0.00    -0.055 N 
HETATM   27  H   UNL     1     -44.976  56.152 -57.778  1.00  0.00     0.281 HD
HETATM   28  C   UNL     1     -45.501  57.380 -59.329  1.00  0.00     0.237 C 
HETATM   29  C   UNL     1     -46.366  56.294 -59.955  1.00  0.00     0.028 C 
HETATM   30  C   UNL     1     -45.531  55.284 -60.735  1.00  0.00     0.003 C 
HETATM   31  C   UNL     1     -44.408  54.710 -59.878  1.00  0.00     0.028 C 
HETATM   32  C   UNL     1     -43.563  55.803 -59.239  1.00  0.00     0.237 C 
ENDBRANCH  25  26
ENDBRANCH   4  25
TORSDOF 7
ENDMDL
MODEL 2
REMARK VINA RESULT:      -7.9      1.313      1.902
REMARK  7 active torsions:
REMARK  status: ('A' for Active; 'I' for Inactive)
REMARK    1  A    between atoms: O_2  and  C_3 
REMARK    2  A    between atoms: C_6  and  C_7 
REMARK    3  A    between atoms: C_7  and  C_8 
REMARK    4  A    between atoms: C_8  and  C_9 
REMARK    5  A    between atoms: C_9  and  O_10 
REMARK    6  A    between atoms: N_13  and  C_14 
REMARK    7  A    between atoms: C_14  and  N_15 
ROOT
HETATM    1  C   UNL     1     -43.016  56.648 -53.865  1.00  0.00     0.175 C 
HETATM    2  C   UNL     1     -43.350  56.508 -55.392  1.00  0.00     0.265 C 
HETATM    3  O   UNL     1     -42.918  55.731 -56.232  1.00  0.00    -0.269 OA
HETATM    4  N   UNL     1     -44.300  57.488 -55.712  1.00  0.00    -0.289 N 
HETATM    5  C   UNL     1     -44.305  58.476 -54.717  1.00  0.00     0.049 A 
HETATM    6  C   UNL     1     -43.512  58.063 -53.634  1.00  0.00     0.014 A 
HETATM    7  C   UNL     1     -44.926  59.713 -54.731  1.00  0.00     0.032 A 
HETATM    8  C   UNL     1     -44.740  60.549 -53.624  1.00  0.00     0.021 A 
HETATM    9  C   UNL     1     -43.949  60.136 -52.539  1.00  0.00     0.011 A 
HETATM   10 BR   UNL     1     -43.724  61.294 -51.062  1.00  0.00    -0.051 Br
HETATM   11  C   UNL     1     -43.332  58.884 -52.530  1.00  0.00     0.032 A 
ENDROOT
BRANCH   1  12
HETATM   12  C   UNL     1     -41.533  56.414 -53.576  1.00  0.00     0.137 C 
BRANCH  12  13
HETATM   13  C   UNL     1     -41.313  55.550 -52.340  1.00  0.00     0.163 C 
HETATM   14  O   UNL     1     -41.569  55.941 -51.204  1.00  0.00    -0.292 OA
BRANCH  13  15
HETATM   15  C   UNL     1     -40.785  54.161 -52.511  1.00  0.00     0.010 A 
HETATM   16  C   UNL     1     -40.192  53.439 -51.469  1.00  0.00     0.018 A 
HETATM   17  C   UNL     1     -39.716  52.138 -51.691  1.00  0.00     0.037 A 
HETATM   18  C   UNL     1     -39.827  51.551 -52.952  1.00  0.00     0.068 A 
HETATM   19  C   UNL     1     -40.412  52.274 -53.991  1.00  0.00     0.037 A 
HETATM   20  C   UNL     1     -40.891  53.567 -53.775  1.00  0.00     0.018 A 
BRANCH  18  21
HETATM   21  O   UNL     1     -39.405  50.299 -53.299  1.00  0.00    -0.356 OA
HETATM   22  C   UNL     1     -39.764  49.825 -54.591  1.00  0.00     0.210 C 
ENDBRANCH  18  21
ENDBRANCH  13  15
ENDBRANCH  12  13
ENDBRANCH   1  12
BRANCH   1  23
HETATM   23  O   UNL     1     -43.819  55.817 -53.034  1.00  0.00    -0.375 OA
HETATM   24  H   UNL     1     -43.619  54.881 -53.195  1.00  0.00     0.211 HD
ENDBRANCH   1  23
BRANCH   4  25
HETATM   25  C   UNL     1     -44.774  57.692 -57.051  1.00  0.00     0.367 C 
BRANCH  25  26
HETATM   26  N   UNL     1     -43.635  57.859 -58.011  1.00  0.00    -0.055 N 
HETATM   27  H   UNL     1     -42.818  57.496 -57.477  1.00  0.00     0.281 HD
HETATM   28  C   UNL     1     -43.726  56.998 -59.242  1.00  0.00     0.237 C 
HETATM   29  C   UNL     1     -42.403  57.067 -59.993  1.00  0.00     0.028 C 
HETATM   30  C   UNL     1     -42.019  58.505 -60.331  1.00  0.00     0.003 C 
HETATM   31  C   UNL     1     -42.029  59.390 -59.089  1.00  0.00     0.028 C 
HETATM   32  C   UNL     1     -43.347  59.296 -58.334  1.00  0.00     0.237 C 
ENDBRANCH  25  26
ENDBRANCH   4  25
TORSDOF 7
ENDMDL
MODEL 3
REMARK VINA RESULT:      -7.6     16.258     19.110
REMARK  7 active torsions:
REMARK  status: ('A' for Active; 'I' for Inactive)
REMARK    1  A    between atoms: O_2  and  C_3 
REMARK    2  A    between atoms: C_6  and  C_7 
REMARK    3  A    between atoms: C_7  and  C_8 
REMARK    4  A    between atoms: C_8  and  C_9 
REMARK    5  A    between atoms: C_9  and  O_10 
REMARK    6  A    between atoms: N_13  and  C_14 
REMARK    7  A    between atoms: C_14  and  N_15 
ROOT
HETATM    1  C   UNL     1     -35.803  40.907 -54.510  1.00  0.00     0.175 C 
HETATM    2  C   UNL     1     -35.543  41.633 -53.143  1.00  0.00     0.265 C 
HETATM    3  O   UNL     1     -36.166  42.526 -52.586  1.00  0.00    -0.269 OA
HETATM    4  N   UNL     1     -34.386  41.078 -52.579  1.00  0.00    -0.289 N 
HETATM    5  C   UNL     1     -33.659  40.406 -53.572  1.00  0.00     0.049 A 
HETATM    6  C   UNL     1     -34.418  40.335 -54.750  1.00  0.00     0.014 A 
HETATM    7  C   UNL     1     -32.372  39.900 -53.507  1.00  0.00     0.032 A 
HETATM    8  C   UNL     1     -31.844  39.308 -54.660  1.00  0.00     0.021 A 
HETATM    9  C   UNL     1     -32.604  39.234 -55.839  1.00  0.00     0.011 A 
HETATM   10 BR   UNL     1     -31.856  38.425 -57.375  1.00  0.00    -0.051 Br
HETATM   11  C   UNL     1     -33.904  39.741 -55.894  1.00  0.00     0.032 A 
ENDROOT
BRANCH   1  12
HETATM   12  C   UNL     1     -36.313  41.869 -55.584  1.00  0.00     0.137 C 
BRANCH  12  13
HETATM   13  C   UNL     1     -37.610  41.386 -56.223  1.00  0.00     0.163 C 
HETATM   14  O   UNL     1     -38.675  41.343 -55.611  1.00  0.00    -0.292 OA
BRANCH  13  15
HETATM   15  C   UNL     1     -37.600  40.967 -57.658  1.00  0.00     0.010 A 
HETATM   16  C   UNL     1     -37.230  41.825 -58.699  1.00  0.00     0.018 A 
HETATM   17  C   UNL     1     -37.241  41.372 -60.028  1.00  0.00     0.037 A 
HETATM   18  C   UNL     1     -37.622  40.063 -60.324  1.00  0.00     0.068 A 
HETATM   19  C   UNL     1     -37.997  39.211 -59.286  1.00  0.00     0.037 A 
HETATM   20  C   UNL     1     -37.985  39.655 -57.963  1.00  0.00     0.018 A 
BRANCH  18  21
HETATM   21  O   UNL     1     -37.677  39.501 -61.568  1.00  0.00    -0.356 OA
HETATM   22  C   UNL     1     -36.655  38.573 -61.909  1.00  0.00     0.210 C 
ENDBRANCH  18  21
ENDBRANCH  13  15
ENDBRANCH  12  13
ENDBRANCH   1  12
BRANCH   1  23
HETATM   23  O   UNL     1     -36.671  39.785 -54.397  1.00  0.00    -0.375 OA
HETATM   24  H   UNL     1     -36.531  39.173 -55.138  1.00  0.00     0.211 HD
ENDBRANCH   1  23
BRANCH   4  25
HETATM   25  C   UNL     1     -33.817  41.564 -51.354  1.00  0.00     0.367 C 
BRANCH  25  26
HETATM   26  N   UNL     1     -33.874  40.522 -50.278  1.00  0.00    -0.055 N 
HETATM   27  H   UNL     1     -34.187  41.060 -49.443  1.00  0.00     0.281 HD
HETATM   28  C   UNL     1     -34.922  39.463 -50.491  1.00  0.00     0.237 C 
HETATM   29  C   UNL     1     -35.051  38.632 -49.221  1.00  0.00     0.028 C 
HETATM   30  C   UNL     1     -33.713  38.032 -48.800  1.00  0.00     0.003 C 
HETATM   31  C   UNL     1     -32.634  39.104 -48.686  1.00  0.00     0.028 C 
HETATM   32  C   UNL     1     -32.529  39.943 -49.952  1.00  0.00     0.237 C 
ENDBRANCH  25  26
ENDBRANCH   4  25
TORSDOF 7
ENDMDL
MODEL 4
REMARK VINA RESULT:      -7.6      2.781      5.657
REMARK  7 active torsions:
REMARK  status: ('A' for Active; 'I' for Inactive)
REMARK    1  A    between atoms: O_2  and  C_3 
REMARK    2  A    between atoms: C_6  and  C_7 
REMARK    3  A    between atoms: C_7  and  C_8 
REMARK    4  A    between atoms: C_8  and  C_9 
REMARK    5  A    between atoms: C_9  and  O_10 
REMARK    6  A    between atoms: N_13  and  C_14 
REMARK    7  A    between atoms: C_14  and  N_15 
ROOT
HETATM    1  C   UNL     1     -42.733  56.976 -52.988  1.00  0.00     0.175 C 
HETATM    2  C   UNL     1     -43.669  57.971 -52.215  1.00  0.00     0.265 C 
HETATM    3  O   UNL     1     -43.956  58.031 -51.027  1.00  0.00    -0.269 OA
HETATM    4  N   UNL     1     -44.193  58.876 -53.148  1.00  0.00    -0.289 N 
HETATM    5  C   UNL     1     -44.052  58.349 -54.440  1.00  0.00     0.049 A 
HETATM    6  C   UNL     1     -43.257  57.193 -54.396  1.00  0.00     0.014 A 
HETATM    7  C   UNL     1     -44.610  58.801 -55.623  1.00  0.00     0.032 A 
HETATM    8  C   UNL     1     -44.355  58.067 -56.787  1.00  0.00     0.021 A 
HETATM    9  C   UNL     1     -43.557  56.912 -56.745  1.00  0.00     0.011 A 
HETATM   10 BR   UNL     1     -43.235  55.949 -58.340  1.00  0.00    -0.051 Br
HETATM   11  C   UNL     1     -42.993  56.466 -55.548  1.00  0.00     0.032 A 
ENDROOT
BRANCH   1  12
HETATM   12  C   UNL     1     -42.846  55.548 -52.456  1.00  0.00     0.137 C 
BRANCH  12  13
HETATM   13  C   UNL     1     -41.585  55.100 -51.727  1.00  0.00     0.163 C 
HETATM   14  O   UNL     1     -41.097  55.734 -50.795  1.00  0.00    -0.292 OA
BRANCH  13  15
HETATM   15  C   UNL     1     -40.918  53.827 -52.144  1.00  0.00     0.010 A 
HETATM   16  C   UNL     1     -40.132  53.060 -51.277  1.00  0.00     0.018 A 
HETATM   17  C   UNL     1     -39.533  51.874 -51.728  1.00  0.00     0.037 A 
HETATM   18  C   UNL     1     -39.713  51.448 -53.045  1.00  0.00     0.068 A 
HETATM   19  C   UNL     1     -40.491  52.217 -53.909  1.00  0.00     0.037 A 
HETATM   20  C   UNL     1     -41.092  53.396 -53.466  1.00  0.00     0.018 A 
BRANCH  18  21
HETATM   21  O   UNL     1     -39.187  50.320 -53.607  1.00  0.00    -0.356 OA
HETATM   22  C   UNL     1     -39.839  49.800 -54.759  1.00  0.00     0.210 C 
ENDBRANCH  18  21
ENDBRANCH  13  15
ENDBRANCH  12  13
ENDBRANCH   1  12
BRANCH   1  23
HETATM   23  O   UNL     1     -41.371  57.388 -53.015  1.00  0.00    -0.375 OA
HETATM   24  H   UNL     1     -41.304  58.320 -53.278  1.00  0.00     0.211 HD
ENDBRANCH   1  23
BRANCH   4  25
HETATM   25  C   UNL     1     -45.152  59.882 -52.789  1.00  0.00     0.367 C 
BRANCH  25  26
HETATM   26  N   UNL     1     -44.701  60.659 -51.590  1.00  0.00    -0.055 N 
HETATM   27  H   UNL     1     -44.206  59.946 -51.016  1.00  0.00     0.281 HD
HETATM   28  C   UNL     1     -43.675  61.721 -51.886  1.00  0.00     0.237 C 
HETATM   29  C   UNL     1     -43.117  62.250 -50.572  1.00  0.00     0.028 C 
HETATM   30  C   UNL     1     -44.222  62.766 -49.655  1.00  0.00     0.003 C 
HETATM   31  C   UNL     1     -45.307  61.715 -49.445  1.00  0.00     0.028 C 
HETATM   32  C   UNL     1     -45.842  61.177 -50.765  1.00  0.00     0.237 C 
ENDBRANCH  25  26
ENDBRANCH   4  25
TORSDOF 7
ENDMDL
MODEL 5
REMARK VINA RESULT:      -7.3      3.463      6.950
REMARK  7 active torsions:
REMARK  status: ('A' for Active; 'I' for Inactive)
REMARK    1  A    between atoms: O_2  and  C_3 
REMARK    2  A    between atoms: C_6  and  C_7 
REMARK    3  A    between atoms: C_7  and  C_8 
REMARK    4  A    between atoms: C_8  and  C_9 
REMARK    5  A    between atoms: C_9  and  O_10 
REMARK    6  A    between atoms: N_13  and  C_14 
REMARK    7  A    between atoms: C_14  and  N_15 
ROOT
HETATM    1  C   UNL     1     -41.475  57.201 -53.124  1.00  0.00     0.175 C 
HETATM    2  C   UNL     1     -42.532  57.508 -54.243  1.00  0.00     0.265 C 
HETATM    3  O   UNL     1     -43.279  58.466 -54.388  1.00  0.00    -0.269 OA
HETATM    4  N   UNL     1     -42.516  56.439 -55.149  1.00  0.00    -0.289 N 
HETATM    5  C   UNL     1     -41.908  55.327 -54.549  1.00  0.00     0.049 A 
HETATM    6  C   UNL     1     -41.337  55.703 -53.323  1.00  0.00     0.014 A 
HETATM    7  C   UNL     1     -41.868  54.018 -54.997  1.00  0.00     0.032 A 
HETATM    8  C   UNL     1     -41.235  53.070 -54.186  1.00  0.00     0.021 A 
HETATM    9  C   UNL     1     -40.660  53.444 -52.961  1.00  0.00     0.011 A 
HETATM   10 BR   UNL     1     -39.811  52.134 -51.895  1.00  0.00    -0.051 Br
HETATM   11  C   UNL     1     -40.699  54.768 -52.520  1.00  0.00     0.032 A 
ENDROOT
BRANCH   1  12
HETATM   12  C   UNL     1     -41.957  57.639 -51.741  1.00  0.00     0.137 C 
BRANCH  12  13
HETATM   13  C   UNL     1     -41.891  59.151 -51.558  1.00  0.00     0.163 C 
HETATM   14  O   UNL     1     -40.930  59.822 -51.927  1.00  0.00    -0.292 OA
BRANCH  13  15
HETATM   15  C   UNL     1     -43.047  59.856 -50.923  1.00  0.00     0.010 A 
HETATM   16  C   UNL     1     -42.901  61.016 -50.153  1.00  0.00     0.018 A 
HETATM   17  C   UNL     1     -44.025  61.633 -49.583  1.00  0.00     0.037 A 
HETATM   18  C   UNL     1     -45.299  61.096 -49.777  1.00  0.00     0.068 A 
HETATM   19  C   UNL     1     -45.442  59.938 -50.539  1.00  0.00     0.037 A 
HETATM   20  C   UNL     1     -44.327  59.321 -51.111  1.00  0.00     0.018 A 
BRANCH  18  21
HETATM   21  O   UNL     1     -46.469  61.596 -49.279  1.00  0.00    -0.356 OA
HETATM   22  C   UNL     1     -46.891  62.866 -49.758  1.00  0.00     0.210 C 
ENDBRANCH  18  21
ENDBRANCH  13  15
ENDBRANCH  12  13
ENDBRANCH   1  12
BRANCH   1  23
HETATM   23  O   UNL     1     -40.189  57.747 -53.397  1.00  0.00    -0.375 OA
HETATM   24  H   UNL     1     -40.114  57.986 -54.335  1.00  0.00     0.211 HD
ENDBRANCH   1  23
BRANCH   4  25
HETATM   25  C   UNL     1     -43.420  56.360 -56.262  1.00  0.00     0.367 C 
BRANCH  25  26
HETATM   26  N   UNL     1     -42.730  56.706 -57.547  1.00  0.00    -0.055 N 
HETATM   27  H   UNL     1     -41.746  56.414 -57.375  1.00  0.00     0.281 HD
HETATM   28  C   UNL     1     -43.188  55.903 -58.735  1.00  0.00     0.237 C 
HETATM   29  C   UNL     1     -42.243  56.163 -59.901  1.00  0.00     0.028 C 
HETATM   30  C   UNL     1     -42.140  57.650 -60.225  1.00  0.00     0.003 C 
HETATM   31  C   UNL     1     -41.774  58.465 -58.988  1.00  0.00     0.028 C 
HETATM   32  C   UNL     1     -42.710  58.180 -57.822  1.00  0.00     0.237 C 
ENDBRANCH  25  26
ENDBRANCH   4  25
TORSDOF 7
ENDMDL
MODEL 6
REMARK VINA RESULT:      -7.2      2.594      3.311
REMARK  7 active torsions:
REMARK  status: ('A' for Active; 'I' for Inactive)
REMARK    1  A    between atoms: O_2  and  C_3 
REMARK    2  A    between atoms: C_6  and  C_7 
REMARK    3  A    between atoms: C_7  and  C_8 
REMARK    4  A    between atoms: C_8  and  C_9 
REMARK    5  A    between atoms: C_9  and  O_10 
REMARK    6  A    between atoms: N_13  and  C_14 
REMARK    7  A    between atoms: C_14  and  N_15 
ROOT
HETATM    1  C   UNL     1     -43.068  56.583 -55.634  1.00  0.00     0.175 C 
HETATM    2  C   UNL     1     -43.354  57.287 -57.007  1.00  0.00     0.265 C 
HETATM    3  O   UNL     1     -43.470  56.819 -58.131  1.00  0.00    -0.269 OA
HETATM    4  N   UNL     1     -43.472  58.662 -56.764  1.00  0.00    -0.289 N 
HETATM    5  C   UNL     1     -42.898  58.968 -55.521  1.00  0.00     0.049 A 
HETATM    6  C   UNL     1     -42.580  57.781 -54.841  1.00  0.00     0.014 A 
HETATM    7  C   UNL     1     -42.610  60.211 -54.984  1.00  0.00     0.032 A 
HETATM    8  C   UNL     1     -41.986  60.252 -53.732  1.00  0.00     0.021 A 
HETATM    9  C   UNL     1     -41.670  59.066 -53.050  1.00  0.00     0.011 A 
HETATM   10 BR   UNL     1     -40.830  59.165 -51.359  1.00  0.00    -0.051 Br
HETATM   11  C   UNL     1     -41.971  57.817 -53.595  1.00  0.00     0.032 A 
ENDROOT
BRANCH   1  12
HETATM   12  C   UNL     1     -42.067  55.435 -55.774  1.00  0.00     0.137 C 
BRANCH  12  13
HETATM   13  C   UNL     1     -42.544  54.165 -55.080  1.00  0.00     0.163 C 
HETATM   14  O   UNL     1     -43.440  53.457 -55.533  1.00  0.00    -0.292 OA
BRANCH  13  15
HETATM   15  C   UNL     1     -41.884  53.743 -53.805  1.00  0.00     0.010 A 
HETATM   16  C   UNL     1     -40.735  52.946 -53.770  1.00  0.00     0.018 A 
HETATM   17  C   UNL     1     -40.162  52.583 -52.542  1.00  0.00     0.037 A 
HETATM   18  C   UNL     1     -40.734  53.011 -51.343  1.00  0.00     0.068 A 
HETATM   19  C   UNL     1     -41.882  53.800 -51.379  1.00  0.00     0.037 A 
HETATM   20  C   UNL     1     -42.455  54.167 -52.598  1.00  0.00     0.018 A 
BRANCH  18  21
HETATM   21  O   UNL     1     -40.278  52.729 -50.086  1.00  0.00    -0.356 OA
HETATM   22  C   UNL     1     -40.182  53.812 -49.169  1.00  0.00     0.210 C 
ENDBRANCH  18  21
ENDBRANCH  13  15
ENDBRANCH  12  13
ENDBRANCH   1  12
BRANCH   1  23
HETATM   23  O   UNL     1     -44.246  56.135 -54.972  1.00  0.00    -0.375 OA
HETATM   24  H   UNL     1     -44.516  56.774 -54.293  1.00  0.00     0.211 HD
ENDBRANCH   1  23
BRANCH   4  25
HETATM   25  C   UNL     1     -43.661  59.617 -57.819  1.00  0.00     0.367 C 
BRANCH  25  26
HETATM   26  N   UNL     1     -44.977  59.410 -58.508  1.00  0.00    -0.055 N 
HETATM   27  H   UNL     1     -44.983  58.389 -58.707  1.00  0.00     0.281 HD
HETATM   28  C   UNL     1     -46.181  59.659 -57.639  1.00  0.00     0.237 C 
HETATM   29  C   UNL     1     -47.426  59.169 -58.367  1.00  0.00     0.028 C 
HETATM   30  C   UNL     1     -47.570  59.819 -59.739  1.00  0.00     0.003 C 
HETATM   31  C   UNL     1     -46.305  59.648 -60.573  1.00  0.00     0.028 C 
HETATM   32  C   UNL     1     -45.064  60.119 -59.827  1.00  0.00     0.237 C 
ENDBRANCH  25  26
ENDBRANCH   4  25
TORSDOF 7
ENDMDL
MODEL 7
REMARK VINA RESULT:      -7.2     15.778     18.009
REMARK  7 active torsions:
REMARK  status: ('A' for Active; 'I' for Inactive)
REMARK    1  A    between atoms: O_2  and  C_3 
REMARK    2  A    between atoms: C_6  and  C_7 
REMARK    3  A    between atoms: C_7  and  C_8 
REMARK    4  A    between atoms: C_8  and  C_9 
REMARK    5  A    between atoms: C_9  and  O_10 
REMARK    6  A    between atoms: N_13  and  C_14 
REMARK    7  A    between atoms: C_14  and  N_15 
ROOT
HETATM    1  C   UNL     1     -34.343  40.308 -54.649  1.00  0.00     0.175 C 
HETATM    2  C   UNL     1     -34.948  41.253 -55.747  1.00  0.00     0.265 C 
HETATM    3  O   UNL     1     -34.411  41.828 -56.683  1.00  0.00    -0.269 OA
HETATM    4  N   UNL     1     -36.322  41.373 -55.496  1.00  0.00    -0.289 N 
HETATM    5  C   UNL     1     -36.592  40.979 -54.177  1.00  0.00     0.049 A 
HETATM    6  C   UNL     1     -35.443  40.406 -53.609  1.00  0.00     0.014 A 
HETATM    7  C   UNL     1     -37.761  41.133 -53.452  1.00  0.00     0.032 A 
HETATM    8  C   UNL     1     -37.765  40.696 -52.122  1.00  0.00     0.021 A 
HETATM    9  C   UNL     1     -36.618  40.120 -51.553  1.00  0.00     0.011 A 
HETATM   10 BR   UNL     1     -36.666  39.540 -49.754  1.00  0.00    -0.051 Br
HETATM   11  C   UNL     1     -35.446  39.962 -52.294  1.00  0.00     0.032 A 
ENDROOT
BRANCH   1  12
HETATM   12  C   UNL     1     -32.960  40.770 -54.191  1.00  0.00     0.137 C 
BRANCH  12  13
HETATM   13  C   UNL     1     -32.105  39.617 -53.678  1.00  0.00     0.163 C 
HETATM   14  O   UNL     1     -31.375  38.955 -54.412  1.00  0.00    -0.292 OA
BRANCH  13  15
HETATM   15  C   UNL     1     -32.134  39.284 -52.220  1.00  0.00     0.010 A 
HETATM   16  C   UNL     1     -31.965  40.245 -51.217  1.00  0.00     0.018 A 
HETATM   17  C   UNL     1     -32.003  39.870 -49.865  1.00  0.00     0.037 A 
HETATM   18  C   UNL     1     -32.206  38.536 -49.508  1.00  0.00     0.068 A 
HETATM   19  C   UNL     1     -32.368  37.580 -50.508  1.00  0.00     0.037 A 
HETATM   20  C   UNL     1     -32.335  37.947 -51.855  1.00  0.00     0.018 A 
BRANCH  18  21
HETATM   21  O   UNL     1     -32.263  38.042 -48.235  1.00  0.00    -0.356 OA
HETATM   22  C   UNL     1     -31.602  38.784 -47.218  1.00  0.00     0.210 C 
ENDBRANCH  18  21
ENDBRANCH  13  15
ENDBRANCH  12  13
ENDBRANCH   1  12
BRANCH   1  23
HETATM   23  O   UNL     1     -34.304  38.940 -55.042  1.00  0.00    -0.375 OA
HETATM   24  H   UNL     1     -33.876  38.848 -55.908  1.00  0.00     0.211 HD
ENDBRANCH   1  23
BRANCH   4  25
HETATM   25  C   UNL     1     -37.174  42.230 -56.270  1.00  0.00     0.367 C 
BRANCH  25  26
HETATM   26  N   UNL     1     -37.566  41.580 -57.563  1.00  0.00    -0.055 N 
HETATM   27  H   UNL     1     -38.559  41.867 -57.682  1.00  0.00     0.281 HD
HETATM   28  C   UNL     1     -36.844  42.113 -58.772  1.00  0.00     0.237 C 
HETATM   29  C   UNL     1     -37.510  41.565 -60.027  1.00  0.00     0.028 C 
HETATM   30  C   UNL     1     -37.560  40.041 -60.021  1.00  0.00     0.003 C 
HETATM   31  C   UNL     1     -38.202  39.510 -58.744  1.00  0.00     0.028 C 
HETATM   32  C   UNL     1     -37.545  40.082 -57.496  1.00  0.00     0.237 C 
ENDBRANCH  25  26
ENDBRANCH   4  25
TORSDOF 7
ENDMDL
MODEL 8
REMARK VINA RESULT:      -7.1      2.572      4.778
REMARK  7 active torsions:
REMARK  status: ('A' for Active; 'I' for Inactive)
REMARK    1  A    between atoms: O_2  and  C_3 
REMARK    2  A    between atoms: C_6  and  C_7 
REMARK    3  A    between atoms: C_7  and  C_8 
REMARK    4  A    between atoms: C_8  and  C_9 
REMARK    5  A    between atoms: C_9  and  O_10 
REMARK    6  A    between atoms: N_13  and  C_14 
REMARK    7  A    between atoms: C_14  and  N_15 
ROOT
HETATM    1  C   UNL     1     -42.149  56.500 -55.161  1.00  0.00     0.175 C 
HETATM    2  C   UNL     1     -42.128  58.008 -54.726  1.00  0.00     0.265 C 
HETATM    3  O   UNL     1     -42.058  58.514 -53.615  1.00  0.00    -0.269 OA
HETATM    4  N   UNL     1     -42.209  58.787 -55.888  1.00  0.00    -0.289 N 
HETATM    5  C   UNL     1     -42.689  58.000 -56.946  1.00  0.00     0.049 A 
HETATM    6  C   UNL     1     -42.737  56.654 -56.551  1.00  0.00     0.014 A 
HETATM    7  C   UNL     1     -43.116  58.405 -58.199  1.00  0.00     0.032 A 
HETATM    8  C   UNL     1     -43.601  57.423 -59.071  1.00  0.00     0.021 A 
HETATM    9  C   UNL     1     -43.647  56.076 -58.679  1.00  0.00     0.011 A 
HETATM   10 BR   UNL     1     -44.307  54.780 -59.887  1.00  0.00    -0.051 Br
HETATM   11  C   UNL     1     -43.207  55.676 -57.415  1.00  0.00     0.032 A 
ENDROOT
BRANCH   1  12
HETATM   12  C   UNL     1     -42.959  55.634 -54.196  1.00  0.00     0.137 C 
BRANCH  12  13
HETATM   13  C   UNL     1     -42.153  55.225 -52.969  1.00  0.00     0.163 C 
HETATM   14  O   UNL     1     -42.136  55.890 -51.935  1.00  0.00    -0.292 OA
BRANCH  13  15
HETATM   15  C   UNL     1     -41.365  53.955 -53.008  1.00  0.00     0.010 A 
HETATM   16  C   UNL     1     -40.525  53.547 -51.966  1.00  0.00     0.018 A 
HETATM   17  C   UNL     1     -39.811  52.343 -52.062  1.00  0.00     0.037 A 
HETATM   18  C   UNL     1     -39.929  51.541 -53.198  1.00  0.00     0.068 A 
HETATM   19  C   UNL     1     -40.760  51.952 -54.238  1.00  0.00     0.037 A 
HETATM   20  C   UNL     1     -41.476  53.147 -54.147  1.00  0.00     0.018 A 
BRANCH  18  21
HETATM   21  O   UNL     1     -39.291  50.353 -53.416  1.00  0.00    -0.356 OA
HETATM   22  C   UNL     1     -39.683  49.603 -54.559  1.00  0.00     0.210 C 
ENDBRANCH  18  21
ENDBRANCH  13  15
ENDBRANCH  12  13
ENDBRANCH   1  12
BRANCH   1  23
HETATM   23  O   UNL     1     -40.850  55.948 -55.349  1.00  0.00    -0.375 OA
HETATM   24  H   UNL     1     -40.898  55.149 -55.899  1.00  0.00     0.211 HD
ENDBRANCH   1  23
BRANCH   4  25
HETATM   25  C   UNL     1     -42.290  60.220 -55.850  1.00  0.00     0.367 C 
BRANCH  25  26
HETATM   26  N   UNL     1     -43.359  60.678 -54.904  1.00  0.00    -0.055 N 
HETATM   27  H   UNL     1     -43.463  59.871 -54.254  1.00  0.00     0.281 HD
HETATM   28  C   UNL     1     -42.965  61.845 -54.038  1.00  0.00     0.237 C 
HETATM   29  C   UNL     1     -44.023  62.040 -52.960  1.00  0.00     0.028 C 
HETATM   30  C   UNL     1     -45.415  62.220 -53.560  1.00  0.00     0.003 C 
HETATM   31  C   UNL     1     -45.761  61.082 -54.514  1.00  0.00     0.028 C 
HETATM   32  C   UNL     1     -44.686  60.880 -55.573  1.00  0.00     0.237 C 
ENDBRANCH  25  26
ENDBRANCH   4  25
TORSDOF 7
ENDMDL
MODEL 9
REMARK VINA RESULT:      -7.1      2.840      7.047
REMARK  7 active torsions:
REMARK  status: ('A' for Active; 'I' for Inactive)
REMARK    1  A    between atoms: O_2  and  C_3 
REMARK    2  A    between atoms: C_6  and  C_7 
REMARK    3  A    between atoms: C_7  and  C_8 
REMARK    4  A    between atoms: C_8  and  C_9 
REMARK    5  A    between atoms: C_9  and  O_10 
REMARK    6  A    between atoms: N_13  and  C_14 
REMARK    7  A    between atoms: C_14  and  N_15 
ROOT
HETATM    1  C   UNL     1     -42.460  59.234 -54.341  1.00  0.00     0.175 C 
HETATM    2  C   UNL     1     -42.833  57.797 -53.833  1.00  0.00     0.265 C 
HETATM    3  O   UNL     1     -43.062  56.768 -54.455  1.00  0.00    -0.269 OA
HETATM    4  N   UNL     1     -42.878  57.838 -52.433  1.00  0.00    -0.289 N 
HETATM    5  C   UNL     1     -42.993  59.170 -52.009  1.00  0.00     0.049 A 
HETATM    6  C   UNL     1     -42.821  60.032 -53.103  1.00  0.00     0.014 A 
HETATM    7  C   UNL     1     -43.277  59.652 -50.742  1.00  0.00     0.032 A 
HETATM    8  C   UNL     1     -43.388  61.038 -50.581  1.00  0.00     0.021 A 
HETATM    9  C   UNL     1     -43.213  61.902 -51.674  1.00  0.00     0.011 A 
HETATM   10 BR   UNL     1     -43.368  63.768 -51.415  1.00  0.00    -0.051 Br
HETATM   11  C   UNL     1     -42.920  61.408 -52.947  1.00  0.00     0.032 A 
ENDROOT
BRANCH   1  12
HETATM   12  C   UNL     1     -43.220  59.610 -55.613  1.00  0.00     0.137 C 
BRANCH  12  13
HETATM   13  C   UNL     1     -42.340  59.543 -56.855  1.00  0.00     0.163 C 
HETATM   14  O   UNL     1     -41.392  60.304 -57.038  1.00  0.00    -0.292 OA
BRANCH  13  15
HETATM   15  C   UNL     1     -42.620  58.499 -57.888  1.00  0.00     0.010 A 
HETATM   16  C   UNL     1     -41.817  58.312 -59.019  1.00  0.00     0.018 A 
HETATM   17  C   UNL     1     -42.132  57.314 -59.954  1.00  0.00     0.037 A 
HETATM   18  C   UNL     1     -43.250  56.500 -59.767  1.00  0.00     0.068 A 
HETATM   19  C   UNL     1     -44.053  56.691 -58.644  1.00  0.00     0.037 A 
HETATM   20  C   UNL     1     -43.742  57.681 -57.708  1.00  0.00     0.018 A 
BRANCH  18  21
HETATM   21  O   UNL     1     -43.666  55.498 -60.598  1.00  0.00    -0.356 OA
HETATM   22  C   UNL     1     -45.056  55.432 -60.894  1.00  0.00     0.210 C 
ENDBRANCH  18  21
ENDBRANCH  13  15
ENDBRANCH  12  13
ENDBRANCH   1  12
BRANCH   1  23
HETATM   23  O   UNL     1     -41.061  59.422 -54.527  1.00  0.00    -0.375 OA
HETATM   24  H   UNL     1     -40.767  60.235 -54.085  1.00  0.00     0.211 HD
ENDBRANCH   1  23
BRANCH   4  25
HETATM   25  C   UNL     1     -43.266  56.705 -51.641  1.00  0.00     0.367 C 
BRANCH  25  26
HETATM   26  N   UNL     1     -42.107  55.782 -51.412  1.00  0.00    -0.055 N 
HETATM   27  H   UNL     1     -41.328  56.247 -51.920  1.00  0.00     0.281 HD
HETATM   28  C   UNL     1     -41.657  55.692 -49.978  1.00  0.00     0.237 C 
HETATM   29  C   UNL     1     -40.334  54.940 -49.921  1.00  0.00     0.028 C 
HETATM   30  C   UNL     1     -40.437  53.564 -50.573  1.00  0.00     0.003 C 
HETATM   31  C   UNL     1     -40.990  53.660 -51.991  1.00  0.00     0.028 C 
HETATM   32  C   UNL     1     -42.301  54.433 -52.039  1.00  0.00     0.237 C 
ENDBRANCH  25  26
ENDBRANCH   4  25
TORSDOF 7
ENDMDL
MODEL 10
REMARK VINA RESULT:      -6.9     16.113     18.766
REMARK  7 active torsions:
REMARK  status: ('A' for Active; 'I' for Inactive)
REMARK    1  A    between atoms: O_2  and  C_3 
REMARK    2  A    between atoms: C_6  and  C_7 
REMARK    3  A    between atoms: C_7  and  C_8 
REMARK    4  A    between atoms: C_8  and  C_9 
REMARK    5  A    between atoms: C_9  and  O_10 
REMARK    6  A    between atoms: N_13  and  C_14 
REMARK    7  A    between atoms: C_14  and  N_15 
ROOT
HETATM    1  C   UNL     1     -36.045  40.890 -53.893  1.00  0.00     0.175 C 
HETATM    2  C   UNL     1     -34.659  40.737 -54.615  1.00  0.00     0.265 C 
HETATM    3  O   UNL     1     -34.386  40.680 -55.806  1.00  0.00    -0.269 OA
HETATM    4  N   UNL     1     -33.669  40.665 -53.625  1.00  0.00    -0.289 N 
HETATM    5  C   UNL     1     -34.260  40.339 -52.396  1.00  0.00     0.049 A 
HETATM    6  C   UNL     1     -35.658  40.390 -52.514  1.00  0.00     0.014 A 
HETATM    7  C   UNL     1     -33.644  39.965 -51.214  1.00  0.00     0.032 A 
HETATM    8  C   UNL     1     -34.463  39.638 -50.127  1.00  0.00     0.021 A 
HETATM    9  C   UNL     1     -35.862  39.692 -50.242  1.00  0.00     0.011 A 
HETATM   10 BR   UNL     1     -36.933  39.245 -48.750  1.00  0.00    -0.051 Br
HETATM   11  C   UNL     1     -36.474  40.077 -51.436  1.00  0.00     0.032 A 
ENDROOT
BRANCH   1  12
HETATM   12  C   UNL     1     -37.149  40.099 -54.594  1.00  0.00     0.137 C 
BRANCH  12  13
HETATM   13  C   UNL     1     -37.977  40.968 -55.533  1.00  0.00     0.163 C 
HETATM   14  O   UNL     1     -38.803  41.782 -55.128  1.00  0.00    -0.292 OA
BRANCH  13  15
HETATM   15  C   UNL     1     -37.766  40.847 -57.009  1.00  0.00     0.010 A 
HETATM   16  C   UNL     1     -37.289  41.898 -57.799  1.00  0.00     0.018 A 
HETATM   17  C   UNL     1     -37.112  41.723 -59.180  1.00  0.00     0.037 A 
HETATM   18  C   UNL     1     -37.412  40.499 -59.780  1.00  0.00     0.068 A 
HETATM   19  C   UNL     1     -37.893  39.454 -58.993  1.00  0.00     0.037 A 
HETATM   20  C   UNL     1     -38.068  39.622 -57.618  1.00  0.00     0.018 A 
BRANCH  18  21
HETATM   21  O   UNL     1     -37.286  40.199 -61.107  1.00  0.00    -0.356 OA
HETATM   22  C   UNL     1     -37.879  38.988 -61.560  1.00  0.00     0.210 C 
ENDBRANCH  18  21
ENDBRANCH  13  15
ENDBRANCH  12  13
ENDBRANCH   1  12
BRANCH   1  23
HETATM   23  O   UNL     1     -36.443  42.245 -53.715  1.00  0.00    -0.375 OA
HETATM   24  H   UNL     1     -36.376  42.731 -54.553  1.00  0.00     0.211 HD
ENDBRANCH   1  23
BRANCH   4  25
HETATM   25  C   UNL     1     -32.285  40.447 -53.936  1.00  0.00     0.367 C 
BRANCH  25  26
HETATM   26  N   UNL     1     -32.118  39.309 -54.898  1.00  0.00    -0.055 N 
HETATM   27  H   UNL     1     -33.034  39.278 -55.391  1.00  0.00     0.281 HD
HETATM   28  C   UNL     1     -31.090  39.547 -55.972  1.00  0.00     0.237 C 
HETATM   29  C   UNL     1     -31.203  38.445 -57.017  1.00  0.00     0.028 C 
HETATM   30  C   UNL     1     -31.065  37.059 -56.394  1.00  0.00     0.003 C 
HETATM   31  C   UNL     1     -32.044  36.868 -55.241  1.00  0.00     0.028 C 
HETATM   32  C   UNL     1     -31.939  37.986 -54.214  1.00  0.00     0.237 C 
ENDBRANCH  25  26
ENDBRANCH   4  25
TORSDOF 7
ENDMDL
