MODEL 1
REMARK VINA RESULT:      -8.6      0.000      0.000
REMARK  3 active torsions:
REMARK  status: ('A' for Active; 'I' for Inactive)
REMARK    1  A    between atoms: C_4  and  N_5 
REMARK       I    between atoms: N_5  and  C_6 
REMARK    2  A    between atoms: C_6  and  C_7 
REMARK    3  A    between atoms: C_7  and  N_8 
ROOT
HETATM    1  N   UNL     1     -42.530  56.980 -54.655  1.00  0.00    -0.224 N 
HETATM    2  N   UNL     1     -42.413  56.111 -55.757  1.00  0.00    -0.180 NA
HETATM    3  C   UNL     1     -41.874  54.936 -55.588  1.00  0.00     0.153 A 
HETATM    4  C   UNL     1     -41.383  54.524 -54.303  1.00  0.00     0.028 A 
HETATM    5  C   UNL     1     -41.487  55.394 -53.247  1.00  0.00     0.116 A 
HETATM    6  N   UNL     1     -40.962  54.795 -52.140  1.00  0.00    -0.350 N 
HETATM    7  H   UNL     1     -40.922  55.215 -51.220  1.00  0.00     0.166 HD
HETATM    8  C   UNL     1     -40.514  53.532 -52.468  1.00  0.00     0.044 A 
HETATM    9  C   UNL     1     -40.772  53.335 -53.829  1.00  0.00     0.005 A 
HETATM   10  C   UNL     1     -39.907  52.558 -51.668  1.00  0.00     0.031 A 
HETATM   11  C   UNL     1     -39.559  51.345 -52.273  1.00  0.00     0.009 A 
HETATM   12  C   UNL     1     -39.815  51.103 -53.627  1.00  0.00    -0.061 A 
HETATM   13  C   UNL     1     -39.418  49.800 -54.256  1.00  0.00     0.048 C 
HETATM   14  C   UNL     1     -40.412  52.103 -54.415  1.00  0.00     0.021 A 
HETATM   15  C   UNL     1     -42.076  56.695 -53.355  1.00  0.00     0.291 A 
HETATM   16  O   UNL     1     -42.157  57.471 -52.408  1.00  0.00    -0.264 OA
ENDROOT
BRANCH   1  17
HETATM   17  C   UNL     1     -43.247  58.227 -54.877  1.00  0.00     0.258 C 
BRANCH  17  18
HETATM   18  C   UNL     1     -42.728  58.954 -56.131  1.00  0.00     0.244 C 
HETATM   19  N   UNL     1     -43.506  58.814 -57.304  1.00  0.00    -0.321 N 
HETATM   20  C   UNL     1     -44.869  58.275 -57.260  1.00  0.00     0.159 C 
HETATM   21  O   UNL     1     -41.703  59.639 -56.065  1.00  0.00    -0.271 OA
BRANCH  19  22
HETATM   22  C   UNL     1     -43.042  59.306 -58.585  1.00  0.00     0.037 A 
HETATM   23  C   UNL     1     -43.259  60.633 -58.994  1.00  0.00     0.036 A 
HETATM   24  C   UNL     1     -42.803  61.116 -60.233  1.00  0.00    -0.060 A 
HETATM   25  C   UNL     1     -43.059  62.538 -60.641  1.00  0.00     0.048 C 
HETATM   26  C   UNL     1     -42.093  60.264 -61.079  1.00  0.00     0.007 A 
HETATM   27  C   UNL     1     -41.847  58.952 -60.693  1.00  0.00     0.003 A 
HETATM   28  C   UNL     1     -42.314  58.481 -59.460  1.00  0.00     0.030 A 
ENDBRANCH  19  22
ENDBRANCH  17  18
ENDBRANCH   1  17
TORSDOF 3
ENDMDL
MODEL 2
REMARK VINA RESULT:      -8.6      4.081      9.009
REMARK  3 active torsions:
REMARK  status: ('A' for Active; 'I' for Inactive)
REMARK    1  A    between atoms: C_4  and  N_5 
REMARK       I    between atoms: N_5  and  C_6 
REMARK    2  A    between atoms: C_6  and  C_7 
REMARK    3  A    between atoms: C_7  and  N_8 
ROOT
HETATM    1  N   UNL     1     -43.453  57.228 -52.989  1.00  0.00    -0.224 N 
HETATM    2  N   UNL     1     -44.517  57.086 -52.077  1.00  0.00    -0.180 NA
HETATM    3  C   UNL     1     -44.799  58.070 -51.269  1.00  0.00     0.153 A 
HETATM    4  C   UNL     1     -44.032  59.283 -51.281  1.00  0.00     0.028 A 
HETATM    5  C   UNL     1     -42.986  59.394 -52.163  1.00  0.00     0.116 A 
HETATM    6  N   UNL     1     -42.411  60.620 -51.999  1.00  0.00    -0.350 N 
HETATM    7  H   UNL     1     -41.623  60.963 -52.532  1.00  0.00     0.166 HD
HETATM    8  C   UNL     1     -43.078  61.314 -51.011  1.00  0.00     0.044 A 
HETATM    9  C   UNL     1     -44.111  60.492 -50.544  1.00  0.00     0.005 A 
HETATM   10  C   UNL     1     -42.848  62.596 -50.503  1.00  0.00     0.031 A 
HETATM   11  C   UNL     1     -43.701  63.057 -49.493  1.00  0.00     0.009 A 
HETATM   12  C   UNL     1     -44.754  62.274 -49.011  1.00  0.00    -0.061 A 
HETATM   13  C   UNL     1     -45.644  62.785 -47.916  1.00  0.00     0.048 C 
HETATM   14  C   UNL     1     -44.956  60.981 -49.526  1.00  0.00     0.021 A 
HETATM   15  C   UNL     1     -42.625  58.361 -53.086  1.00  0.00     0.291 A 
HETATM   16  O   UNL     1     -41.681  58.463 -53.865  1.00  0.00    -0.264 OA
ENDROOT
BRANCH   1  17
HETATM   17  C   UNL     1     -43.261  56.149 -53.945  1.00  0.00     0.258 C 
BRANCH  17  18
HETATM   18  C   UNL     1     -42.658  54.904 -53.269  1.00  0.00     0.244 C 
HETATM   19  N   UNL     1     -41.354  54.538 -53.678  1.00  0.00    -0.321 N 
HETATM   20  C   UNL     1     -40.511  55.449 -54.457  1.00  0.00     0.159 C 
HETATM   21  O   UNL     1     -43.298  54.306 -52.398  1.00  0.00    -0.271 OA
BRANCH  19  22
HETATM   22  C   UNL     1     -40.744  53.297 -53.244  1.00  0.00     0.037 A 
HETATM   23  C   UNL     1     -40.550  52.218 -54.122  1.00  0.00     0.036 A 
HETATM   24  C   UNL     1     -39.951  51.015 -53.706  1.00  0.00    -0.060 A 
HETATM   25  C   UNL     1     -39.765  49.880 -54.670  1.00  0.00     0.048 C 
HETATM   26  C   UNL     1     -39.514  50.891 -52.387  1.00  0.00     0.007 A 
HETATM   27  C   UNL     1     -39.676  51.949 -51.501  1.00  0.00     0.003 A 
HETATM   28  C   UNL     1     -40.281  53.138 -51.926  1.00  0.00     0.030 A 
ENDBRANCH  19  22
ENDBRANCH  17  18
ENDBRANCH   1  17
TORSDOF 3
ENDMDL
MODEL 3
REMARK VINA RESULT:      -8.5      1.860      2.793
REMARK  3 active torsions:
REMARK  status: ('A' for Active; 'I' for Inactive)
REMARK    1  A    between atoms: C_4  and  N_5 
REMARK       I    between atoms: N_5  and  C_6 
REMARK    2  A    between atoms: C_6  and  C_7 
REMARK    3  A    between atoms: C_7  and  N_8 
ROOT
HETATM    1  N   UNL     1     -42.242  57.039 -54.447  1.00  0.00    -0.224 N 
HETATM    2  N   UNL     1     -42.078  56.220 -55.580  1.00  0.00    -0.180 NA
HETATM    3  C   UNL     1     -41.580  55.024 -55.435  1.00  0.00     0.153 A 
HETATM    4  C   UNL     1     -41.181  54.538 -54.144  1.00  0.00     0.028 A 
HETATM    5  C   UNL     1     -41.329  55.360 -53.056  1.00  0.00     0.116 A 
HETATM    6  N   UNL     1     -40.890  54.695 -51.949  1.00  0.00    -0.350 N 
HETATM    7  H   UNL     1     -40.897  55.070 -51.010  1.00  0.00     0.166 HD
HETATM    8  C   UNL     1     -40.454  53.437 -52.310  1.00  0.00     0.044 A 
HETATM    9  C   UNL     1     -40.631  53.312 -53.693  1.00  0.00     0.005 A 
HETATM   10  C   UNL     1     -39.923  52.410 -51.523  1.00  0.00     0.031 A 
HETATM   11  C   UNL     1     -39.568  51.218 -52.164  1.00  0.00     0.009 A 
HETATM   12  C   UNL     1     -39.745  51.047 -53.541  1.00  0.00    -0.061 A 
HETATM   13  C   UNL     1     -39.341  49.764 -54.207  1.00  0.00     0.048 C 
HETATM   14  C   UNL     1     -40.266  52.099 -54.314  1.00  0.00     0.021 A 
HETATM   15  C   UNL     1     -41.878  56.680 -53.137  1.00  0.00     0.291 A 
HETATM   16  O   UNL     1     -41.999  57.413 -52.159  1.00  0.00    -0.264 OA
ENDROOT
BRANCH   1  17
HETATM   17  C   UNL     1     -42.912  58.315 -54.651  1.00  0.00     0.258 C 
BRANCH  17  18
HETATM   18  C   UNL     1     -44.152  58.156 -55.551  1.00  0.00     0.244 C 
HETATM   19  N   UNL     1     -44.046  58.682 -56.860  1.00  0.00    -0.321 N 
HETATM   20  C   UNL     1     -42.752  59.072 -57.428  1.00  0.00     0.159 C 
HETATM   21  O   UNL     1     -45.150  57.567 -55.126  1.00  0.00    -0.271 OA
BRANCH  19  22
HETATM   22  C   UNL     1     -45.192  58.748 -57.745  1.00  0.00     0.037 A 
HETATM   23  C   UNL     1     -45.559  57.668 -58.567  1.00  0.00     0.036 A 
HETATM   24  C   UNL     1     -46.674  57.725 -59.421  1.00  0.00    -0.060 A 
HETATM   25  C   UNL     1     -47.034  56.555 -60.290  1.00  0.00     0.048 C 
HETATM   26  C   UNL     1     -47.459  58.878 -59.443  1.00  0.00     0.007 A 
HETATM   27  C   UNL     1     -47.131  59.955 -58.628  1.00  0.00     0.003 A 
HETATM   28  C   UNL     1     -46.013  59.888 -57.788  1.00  0.00     0.030 A 
ENDBRANCH  19  22
ENDBRANCH  17  18
ENDBRANCH   1  17
TORSDOF 3
ENDMDL
MODEL 4
REMARK VINA RESULT:      -8.3      1.462      8.699
REMARK  3 active torsions:
REMARK  status: ('A' for Active; 'I' for Inactive)
REMARK    1  A    between atoms: C_4  and  N_5 
REMARK       I    between atoms: N_5  and  C_6 
REMARK    2  A    between atoms: C_6  and  C_7 
REMARK    3  A    between atoms: C_7  and  N_8 
ROOT
HETATM    1  N   UNL     1     -42.559  57.844 -54.935  1.00  0.00    -0.224 N 
HETATM    2  N   UNL     1     -42.922  57.106 -56.078  1.00  0.00    -0.180 NA
HETATM    3  C   UNL     1     -42.805  57.654 -57.255  1.00  0.00     0.153 A 
HETATM    4  C   UNL     1     -42.331  59.001 -57.401  1.00  0.00     0.028 A 
HETATM    5  C   UNL     1     -42.002  59.711 -56.274  1.00  0.00     0.116 A 
HETATM    6  N   UNL     1     -41.578  60.951 -56.653  1.00  0.00    -0.350 N 
HETATM    7  H   UNL     1     -41.267  61.673 -56.017  1.00  0.00     0.166 HD
HETATM    8  C   UNL     1     -41.630  61.056 -58.027  1.00  0.00     0.044 A 
HETATM    9  C   UNL     1     -42.098  59.834 -58.525  1.00  0.00     0.005 A 
HETATM   10  C   UNL     1     -41.298  62.130 -58.859  1.00  0.00     0.031 A 
HETATM   11  C   UNL     1     -41.440  61.951 -60.239  1.00  0.00     0.009 A 
HETATM   12  C   UNL     1     -41.889  60.741 -60.777  1.00  0.00    -0.061 A 
HETATM   13  C   UNL     1     -42.050  60.579 -62.261  1.00  0.00     0.048 C 
HETATM   14  C   UNL     1     -42.233  59.680 -59.920  1.00  0.00     0.021 A 
HETATM   15  C   UNL     1     -42.094  59.171 -54.951  1.00  0.00     0.291 A 
HETATM   16  O   UNL     1     -41.806  59.816 -53.946  1.00  0.00    -0.264 OA
ENDROOT
BRANCH   1  17
HETATM   17  C   UNL     1     -42.596  57.141 -53.661  1.00  0.00     0.258 C 
BRANCH  17  18
HETATM   18  C   UNL     1     -41.589  55.977 -53.636  1.00  0.00     0.244 C 
HETATM   19  N   UNL     1     -42.052  54.761 -53.081  1.00  0.00    -0.321 N 
HETATM   20  C   UNL     1     -43.477  54.525 -52.831  1.00  0.00     0.159 C 
HETATM   21  O   UNL     1     -40.461  56.128 -54.114  1.00  0.00    -0.271 OA
BRANCH  19  22
HETATM   22  C   UNL     1     -41.156  53.646 -52.845  1.00  0.00     0.037 A 
HETATM   23  C   UNL     1     -40.961  52.635 -53.802  1.00  0.00     0.036 A 
HETATM   24  C   UNL     1     -40.088  51.556 -53.580  1.00  0.00    -0.060 A 
HETATM   25  C   UNL     1     -39.908  50.489 -54.621  1.00  0.00     0.048 C 
HETATM   26  C   UNL     1     -39.372  51.492 -52.384  1.00  0.00     0.007 A 
HETATM   27  C   UNL     1     -39.530  52.487 -51.428  1.00  0.00     0.003 A 
HETATM   28  C   UNL     1     -40.409  53.552 -51.658  1.00  0.00     0.030 A 
ENDBRANCH  19  22
ENDBRANCH  17  18
ENDBRANCH   1  17
TORSDOF 3
ENDMDL
MODEL 5
REMARK VINA RESULT:      -8.3      2.175      8.800
REMARK  3 active torsions:
REMARK  status: ('A' for Active; 'I' for Inactive)
REMARK    1  A    between atoms: C_4  and  N_5 
REMARK       I    between atoms: N_5  and  C_6 
REMARK    2  A    between atoms: C_6  and  C_7 
REMARK    3  A    between atoms: C_7  and  N_8 
ROOT
HETATM    1  N   UNL     1     -42.715  56.400 -53.429  1.00  0.00    -0.224 N 
HETATM    2  N   UNL     1     -44.043  56.868 -53.463  1.00  0.00    -0.180 NA
HETATM    3  C   UNL     1     -44.560  57.239 -54.601  1.00  0.00     0.153 A 
HETATM    4  C   UNL     1     -43.792  57.195 -55.813  1.00  0.00     0.028 A 
HETATM    5  C   UNL     1     -42.493  56.756 -55.756  1.00  0.00     0.116 A 
HETATM    6  N   UNL     1     -41.967  56.797 -57.014  1.00  0.00    -0.350 N 
HETATM    7  H   UNL     1     -41.026  56.517 -57.255  1.00  0.00     0.166 HD
HETATM    8  C   UNL     1     -42.919  57.264 -57.897  1.00  0.00     0.044 A 
HETATM    9  C   UNL     1     -44.084  57.519 -57.162  1.00  0.00     0.005 A 
HETATM   10  C   UNL     1     -42.838  57.475 -59.276  1.00  0.00     0.031 A 
HETATM   11  C   UNL     1     -43.980  57.954 -59.929  1.00  0.00     0.009 A 
HETATM   12  C   UNL     1     -45.168  58.205 -59.235  1.00  0.00    -0.061 A 
HETATM   13  C   UNL     1     -46.374  58.733 -59.954  1.00  0.00     0.048 C 
HETATM   14  C   UNL     1     -45.221  58.000 -57.844  1.00  0.00     0.021 A 
HETATM   15  C   UNL     1     -41.863  56.323 -54.545  1.00  0.00     0.291 A 
HETATM   16  O   UNL     1     -40.697  55.940 -54.501  1.00  0.00    -0.264 OA
ENDROOT
BRANCH   1  17
HETATM   17  C   UNL     1     -42.232  55.888 -52.156  1.00  0.00     0.258 C 
BRANCH  17  18
HETATM   18  C   UNL     1     -42.000  54.367 -52.218  1.00  0.00     0.244 C 
HETATM   19  N   UNL     1     -40.867  53.878 -51.526  1.00  0.00    -0.321 N 
HETATM   20  C   UNL     1     -40.140  54.709 -50.562  1.00  0.00     0.159 C 
HETATM   21  O   UNL     1     -42.800  53.646 -52.821  1.00  0.00    -0.271 OA
BRANCH  19  22
HETATM   22  C   UNL     1     -40.444  52.497 -51.644  1.00  0.00     0.037 A 
HETATM   23  C   UNL     1     -40.115  51.924 -52.884  1.00  0.00     0.036 A 
HETATM   24  C   UNL     1     -39.697  50.587 -53.002  1.00  0.00    -0.060 A 
HETATM   25  C   UNL     1     -39.360  50.006 -54.344  1.00  0.00     0.048 C 
HETATM   26  C   UNL     1     -39.583  49.804 -51.853  1.00  0.00     0.007 A 
HETATM   27  C   UNL     1     -39.883  50.349 -50.611  1.00  0.00     0.003 A 
HETATM   28  C   UNL     1     -40.306  51.680 -50.508  1.00  0.00     0.030 A 
ENDBRANCH  19  22
ENDBRANCH  17  18
ENDBRANCH   1  17
TORSDOF 3
ENDMDL
MODEL 6
REMARK VINA RESULT:      -8.0      2.788      9.072
REMARK  3 active torsions:
REMARK  status: ('A' for Active; 'I' for Inactive)
REMARK    1  A    between atoms: C_4  and  N_5 
REMARK       I    between atoms: N_5  and  C_6 
REMARK    2  A    between atoms: C_6  and  C_7 
REMARK    3  A    between atoms: C_7  and  N_8 
ROOT
HETATM    1  N   UNL     1     -42.174  56.540 -51.631  1.00  0.00    -0.224 N 
HETATM    2  N   UNL     1     -41.056  56.783 -52.452  1.00  0.00    -0.180 NA
HETATM    3  C   UNL     1     -41.162  57.626 -53.441  1.00  0.00     0.153 A 
HETATM    4  C   UNL     1     -42.403  58.293 -53.716  1.00  0.00     0.028 A 
HETATM    5  C   UNL     1     -43.487  58.027 -52.918  1.00  0.00     0.116 A 
HETATM    6  N   UNL     1     -44.542  58.768 -53.361  1.00  0.00    -0.350 N 
HETATM    7  H   UNL     1     -45.464  58.768 -52.943  1.00  0.00     0.166 HD
HETATM    8  C   UNL     1     -44.153  59.520 -54.450  1.00  0.00     0.044 A 
HETATM    9  C   UNL     1     -42.803  59.241 -54.692  1.00  0.00     0.005 A 
HETATM   10  C   UNL     1     -44.887  60.420 -55.229  1.00  0.00     0.031 A 
HETATM   11  C   UNL     1     -44.223  61.059 -56.282  1.00  0.00     0.009 A 
HETATM   12  C   UNL     1     -42.871  60.820 -56.547  1.00  0.00    -0.061 A 
HETATM   13  C   UNL     1     -42.186  61.506 -57.693  1.00  0.00     0.048 C 
HETATM   14  C   UNL     1     -42.157  59.899 -55.759  1.00  0.00     0.021 A 
HETATM   15  C   UNL     1     -43.442  57.122 -51.808  1.00  0.00     0.291 A 
HETATM   16  O   UNL     1     -44.419  56.882 -51.104  1.00  0.00    -0.264 OA
ENDROOT
BRANCH   1  17
HETATM   17  C   UNL     1     -41.964  55.685 -50.473  1.00  0.00     0.258 C 
BRANCH  17  18
HETATM   18  C   UNL     1     -41.827  54.208 -50.887  1.00  0.00     0.244 C 
HETATM   19  N   UNL     1     -40.585  53.592 -50.605  1.00  0.00    -0.321 N 
HETATM   20  C   UNL     1     -39.608  54.212 -49.705  1.00  0.00     0.159 C 
HETATM   21  O   UNL     1     -42.782  53.622 -51.404  1.00  0.00    -0.271 OA
BRANCH  19  22
HETATM   22  C   UNL     1     -40.270  52.264 -51.092  1.00  0.00     0.037 A 
HETATM   23  C   UNL     1     -39.976  52.019 -52.444  1.00  0.00     0.036 A 
HETATM   24  C   UNL     1     -39.662  50.733 -52.919  1.00  0.00    -0.060 A 
HETATM   25  C   UNL     1     -39.359  50.506 -54.371  1.00  0.00     0.048 C 
HETATM   26  C   UNL     1     -39.619  49.665 -52.022  1.00  0.00     0.007 A 
HETATM   27  C   UNL     1     -39.888  49.881 -50.676  1.00  0.00     0.003 A 
HETATM   28  C   UNL     1     -40.207  51.165 -50.217  1.00  0.00     0.030 A 
ENDBRANCH  19  22
ENDBRANCH  17  18
ENDBRANCH   1  17
TORSDOF 3
ENDMDL
MODEL 7
REMARK VINA RESULT:      -7.8     16.177     18.123
REMARK  3 active torsions:
REMARK  status: ('A' for Active; 'I' for Inactive)
REMARK    1  A    between atoms: C_4  and  N_5 
REMARK       I    between atoms: N_5  and  C_6 
REMARK    2  A    between atoms: C_6  and  C_7 
REMARK    3  A    between atoms: C_7  and  N_8 
ROOT
HETATM    1  N   UNL     1     -36.525  40.947 -54.884  1.00  0.00    -0.224 N 
HETATM    2  N   UNL     1     -37.202  40.302 -53.830  1.00  0.00    -0.180 NA
HETATM    3  C   UNL     1     -36.537  39.952 -52.765  1.00  0.00     0.153 A 
HETATM    4  C   UNL     1     -35.126  40.197 -52.658  1.00  0.00     0.028 A 
HETATM    5  C   UNL     1     -34.481  40.808 -53.704  1.00  0.00     0.116 A 
HETATM    6  N   UNL     1     -33.162  40.938 -53.381  1.00  0.00    -0.350 N 
HETATM    7  H   UNL     1     -32.463  41.365 -53.974  1.00  0.00     0.166 HD
HETATM    8  C   UNL     1     -32.940  40.414 -52.125  1.00  0.00     0.044 A 
HETATM    9  C   UNL     1     -34.168  39.942 -51.644  1.00  0.00     0.005 A 
HETATM   10  C   UNL     1     -31.758  40.324 -51.385  1.00  0.00     0.031 A 
HETATM   11  C   UNL     1     -31.829  39.743 -50.114  1.00  0.00     0.009 A 
HETATM   12  C   UNL     1     -33.039  39.275 -49.590  1.00  0.00    -0.061 A 
HETATM   13  C   UNL     1     -33.086  38.640 -48.231  1.00  0.00     0.048 C 
HETATM   14  C   UNL     1     -34.213  39.361 -50.360  1.00  0.00     0.021 A 
HETATM   15  C   UNL     1     -35.147  41.229 -54.899  1.00  0.00     0.291 A 
HETATM   16  O   UNL     1     -34.561  41.767 -55.835  1.00  0.00    -0.264 OA
ENDROOT
BRANCH   1  17
HETATM   17  C   UNL     1     -37.338  41.421 -55.993  1.00  0.00     0.258 C 
BRANCH  17  18
HETATM   18  C   UNL     1     -37.486  40.340 -57.079  1.00  0.00     0.244 C 
HETATM   19  N   UNL     1     -37.515  40.796 -58.418  1.00  0.00    -0.321 N 
HETATM   20  C   UNL     1     -37.122  42.164 -58.770  1.00  0.00     0.159 C 
HETATM   21  O   UNL     1     -37.539  39.149 -56.759  1.00  0.00    -0.271 OA
BRANCH  19  22
HETATM   22  C   UNL     1     -37.817  39.902 -59.517  1.00  0.00     0.037 A 
HETATM   23  C   UNL     1     -39.001  39.146 -59.557  1.00  0.00     0.036 A 
HETATM   24  C   UNL     1     -39.301  38.284 -60.626  1.00  0.00    -0.060 A 
HETATM   25  C   UNL     1     -40.573  37.487 -60.633  1.00  0.00     0.048 C 
HETATM   26  C   UNL     1     -38.409  38.185 -61.694  1.00  0.00     0.007 A 
HETATM   27  C   UNL     1     -37.239  38.934 -61.691  1.00  0.00     0.003 A 
HETATM   28  C   UNL     1     -36.948  39.784 -60.617  1.00  0.00     0.030 A 
ENDBRANCH  19  22
ENDBRANCH  17  18
ENDBRANCH   1  17
TORSDOF 3
ENDMDL
MODEL 8
REMARK VINA RESULT:      -7.8      4.891      7.289
REMARK  3 active torsions:
REMARK  status: ('A' for Active; 'I' for Inactive)
REMARK    1  A    between atoms: C_4  and  N_5 
REMARK       I    between atoms: N_5  and  C_6 
REMARK    2  A    between atoms: C_6  and  C_7 
REMARK    3  A    between atoms: C_7  and  N_8 
ROOT
HETATM    1  N   UNL     1     -42.238  58.541 -52.026  1.00  0.00    -0.224 N 
HETATM    2  N   UNL     1     -41.906  57.891 -50.822  1.00  0.00    -0.180 NA
HETATM    3  C   UNL     1     -41.469  56.664 -50.858  1.00  0.00     0.153 A 
HETATM    4  C   UNL     1     -41.340  55.960 -52.103  1.00  0.00     0.028 A 
HETATM    5  C   UNL     1     -41.688  56.603 -53.264  1.00  0.00     0.116 A 
HETATM    6  N   UNL     1     -41.483  55.750 -54.309  1.00  0.00    -0.350 N 
HETATM    7  H   UNL     1     -41.652  55.977 -55.280  1.00  0.00     0.166 HD
HETATM    8  C   UNL     1     -41.000  54.548 -53.835  1.00  0.00     0.044 A 
HETATM    9  C   UNL     1     -40.896  54.657 -52.443  1.00  0.00     0.005 A 
HETATM   10  C   UNL     1     -40.649  53.385 -54.528  1.00  0.00     0.031 A 
HETATM   11  C   UNL     1     -40.171  52.303 -53.780  1.00  0.00     0.009 A 
HETATM   12  C   UNL     1     -40.036  52.377 -52.390  1.00  0.00    -0.061 A 
HETATM   13  C   UNL     1     -39.537  51.196 -51.609  1.00  0.00     0.048 C 
HETATM   14  C   UNL     1     -40.411  53.551 -51.714  1.00  0.00     0.021 A 
HETATM   15  C   UNL     1     -42.165  57.953 -53.302  1.00  0.00     0.291 A 
HETATM   16  O   UNL     1     -42.484  58.518 -54.344  1.00  0.00    -0.264 OA
ENDROOT
BRANCH   1  17
HETATM   17  C   UNL     1     -42.604  59.946 -51.935  1.00  0.00     0.258 C 
BRANCH  17  18
HETATM   18  C   UNL     1     -43.782  60.154 -50.966  1.00  0.00     0.244 C 
HETATM   19  N   UNL     1     -43.759  61.340 -50.196  1.00  0.00    -0.321 N 
HETATM   20  C   UNL     1     -42.847  62.443 -50.516  1.00  0.00     0.159 C 
HETATM   21  O   UNL     1     -44.694  59.323 -50.918  1.00  0.00    -0.271 OA
BRANCH  19  22
HETATM   22  C   UNL     1     -44.715  61.573 -49.132  1.00  0.00     0.037 A 
HETATM   23  C   UNL     1     -45.863  62.361 -49.324  1.00  0.00     0.036 A 
HETATM   24  C   UNL     1     -46.796  62.583 -48.297  1.00  0.00    -0.060 A 
HETATM   25  C   UNL     1     -48.009  63.435 -48.535  1.00  0.00     0.048 C 
HETATM   26  C   UNL     1     -46.595  61.988 -47.051  1.00  0.00     0.007 A 
HETATM   27  C   UNL     1     -45.479  61.189 -46.838  1.00  0.00     0.003 A 
HETATM   28  C   UNL     1     -44.552  60.982 -47.867  1.00  0.00     0.030 A 
ENDBRANCH  19  22
ENDBRANCH  17  18
ENDBRANCH   1  17
TORSDOF 3
ENDMDL
MODEL 9
REMARK VINA RESULT:      -7.7      3.880      5.550
REMARK  3 active torsions:
REMARK  status: ('A' for Active; 'I' for Inactive)
REMARK    1  A    between atoms: C_4  and  N_5 
REMARK       I    between atoms: N_5  and  C_6 
REMARK    2  A    between atoms: C_6  and  C_7 
REMARK    3  A    between atoms: C_7  and  N_8 
ROOT
HETATM    1  N   UNL     1     -41.389  57.078 -52.824  1.00  0.00    -0.224 N 
HETATM    2  N   UNL     1     -41.197  56.645 -51.497  1.00  0.00    -0.180 NA
HETATM    3  C   UNL     1     -40.872  55.402 -51.273  1.00  0.00     0.153 A 
HETATM    4  C   UNL     1     -40.726  54.468 -52.353  1.00  0.00     0.028 A 
HETATM    5  C   UNL     1     -40.939  54.904 -53.637  1.00  0.00     0.116 A 
HETATM    6  N   UNL     1     -40.744  53.855 -54.487  1.00  0.00    -0.350 N 
HETATM    7  H   UNL     1     -40.828  53.906 -55.494  1.00  0.00     0.166 HD
HETATM    8  C   UNL     1     -40.405  52.731 -53.764  1.00  0.00     0.044 A 
HETATM    9  C   UNL     1     -40.382  53.093 -52.412  1.00  0.00     0.005 A 
HETATM   10  C   UNL     1     -40.116  51.435 -54.201  1.00  0.00     0.031 A 
HETATM   11  C   UNL     1     -39.788  50.480 -53.231  1.00  0.00     0.009 A 
HETATM   12  C   UNL     1     -39.739  50.805 -51.872  1.00  0.00    -0.061 A 
HETATM   13  C   UNL     1     -39.400  49.759 -50.850  1.00  0.00     0.048 C 
HETATM   14  C   UNL     1     -40.048  52.112 -51.455  1.00  0.00     0.021 A 
HETATM   15  C   UNL     1     -41.287  56.255 -53.960  1.00  0.00     0.291 A 
HETATM   16  O   UNL     1     -41.485  56.636 -55.110  1.00  0.00    -0.264 OA
ENDROOT
BRANCH   1  17
HETATM   17  C   UNL     1     -41.631  58.499 -53.021  1.00  0.00     0.258 C 
BRANCH  17  18
HETATM   18  C   UNL     1     -43.066  58.882 -52.614  1.00  0.00     0.244 C 
HETATM   19  N   UNL     1     -43.427  60.238 -52.798  1.00  0.00    -0.321 N 
HETATM   20  C   UNL     1     -42.608  61.148 -53.603  1.00  0.00     0.159 C 
HETATM   21  O   UNL     1     -43.837  58.018 -52.187  1.00  0.00    -0.271 OA
BRANCH  19  22
HETATM   22  C   UNL     1     -44.684  60.761 -52.301  1.00  0.00     0.037 A 
HETATM   23  C   UNL     1     -44.839  61.185 -50.970  1.00  0.00     0.036 A 
HETATM   24  C   UNL     1     -46.054  61.700 -50.487  1.00  0.00    -0.060 A 
HETATM   25  C   UNL     1     -46.186  62.139 -49.058  1.00  0.00     0.048 C 
HETATM   26  C   UNL     1     -47.140  61.816 -51.356  1.00  0.00     0.007 A 
HETATM   27  C   UNL     1     -47.011  61.422 -52.682  1.00  0.00     0.003 A 
HETATM   28  C   UNL     1     -45.797  60.903 -53.148  1.00  0.00     0.030 A 
ENDBRANCH  19  22
ENDBRANCH  17  18
ENDBRANCH   1  17
TORSDOF 3
ENDMDL
MODEL 10
REMARK VINA RESULT:      -7.7      1.987      8.785
REMARK  3 active torsions:
REMARK  status: ('A' for Active; 'I' for Inactive)
REMARK    1  A    between atoms: C_4  and  N_5 
REMARK       I    between atoms: N_5  and  C_6 
REMARK    2  A    between atoms: C_6  and  C_7 
REMARK    3  A    between atoms: C_7  and  N_8 
ROOT
HETATM    1  N   UNL     1     -43.368  57.675 -55.629  1.00  0.00    -0.224 N 
HETATM    2  N   UNL     1     -42.547  58.621 -54.984  1.00  0.00    -0.180 NA
HETATM    3  C   UNL     1     -41.964  59.547 -55.692  1.00  0.00     0.153 A 
HETATM    4  C   UNL     1     -42.131  59.606 -57.117  1.00  0.00     0.028 A 
HETATM    5  C   UNL     1     -42.918  58.663 -57.729  1.00  0.00     0.116 A 
HETATM    6  N   UNL     1     -42.932  58.916 -59.069  1.00  0.00    -0.350 N 
HETATM    7  H   UNL     1     -43.445  58.375 -59.753  1.00  0.00     0.166 HD
HETATM    8  C   UNL     1     -42.155  60.024 -59.338  1.00  0.00     0.044 A 
HETATM    9  C   UNL     1     -41.641  60.481 -58.119  1.00  0.00     0.005 A 
HETATM   10  C   UNL     1     -41.874  60.650 -60.556  1.00  0.00     0.031 A 
HETATM   11  C   UNL     1     -41.049  61.780 -60.530  1.00  0.00     0.009 A 
HETATM   12  C   UNL     1     -40.529  62.279 -59.332  1.00  0.00    -0.061 A 
HETATM   13  C   UNL     1     -39.633  63.484 -59.333  1.00  0.00     0.048 C 
HETATM   14  C   UNL     1     -40.812  61.623 -58.121  1.00  0.00     0.021 A 
HETATM   15  C   UNL     1     -43.597  57.624 -57.015  1.00  0.00     0.291 A 
HETATM   16  O   UNL     1     -44.292  56.778 -57.571  1.00  0.00    -0.264 OA
ENDROOT
BRANCH   1  17
HETATM   17  C   UNL     1     -44.087  56.741 -54.776  1.00  0.00     0.258 C 
BRANCH  17  18
HETATM   18  C   UNL     1     -43.317  55.416 -54.627  1.00  0.00     0.244 C 
HETATM   19  N   UNL     1     -42.408  55.338 -53.545  1.00  0.00    -0.321 N 
HETATM   20  C   UNL     1     -42.420  56.324 -52.461  1.00  0.00     0.159 C 
HETATM   21  O   UNL     1     -43.535  54.485 -55.409  1.00  0.00    -0.271 OA
BRANCH  19  22
HETATM   22  C   UNL     1     -41.504  54.215 -53.394  1.00  0.00     0.037 A 
HETATM   23  C   UNL     1     -41.248  53.631 -52.142  1.00  0.00     0.036 A 
HETATM   24  C   UNL     1     -40.378  52.536 -51.993  1.00  0.00    -0.060 A 
HETATM   25  C   UNL     1     -40.122  51.941 -50.639  1.00  0.00     0.048 C 
HETATM   26  C   UNL     1     -39.762  51.995 -53.122  1.00  0.00     0.007 A 
HETATM   27  C   UNL     1     -40.011  52.540 -54.375  1.00  0.00     0.003 A 
HETATM   28  C   UNL     1     -40.873  53.635 -54.509  1.00  0.00     0.030 A 
ENDBRANCH  19  22
ENDBRANCH  17  18
ENDBRANCH   1  17
TORSDOF 3
ENDMDL
