MODEL 1
REMARK VINA RESULT:      -8.7      0.000      0.000
REMARK  3 active torsions:
REMARK  status: ('A' for Active; 'I' for Inactive)
REMARK    1  A    between atoms: N_3  and  C_4 
REMARK    2  A    between atoms: C_12  and  C_13 
REMARK       I    between atoms: C_13  and  N_14 
REMARK    3  A    between atoms: N_14  and  C_15 
ROOT
HETATM    1  C   UNL     1     -43.515  59.755 -59.270  1.00  0.00     0.070 C 
HETATM    2  C   UNL     1     -43.232  58.796 -58.137  1.00  0.00     0.036 C 
HETATM    3  N   UNL     1     -43.848  57.535 -58.094  1.00  0.00    -0.235 N 
HETATM    4  N   UNL     1     -43.633  56.617 -57.091  1.00  0.00    -0.157 NA
HETATM    5  C   UNL     1     -42.863  56.966 -56.100  1.00  0.00     0.195 C 
HETATM    6  C   UNL     1     -42.272  58.344 -55.994  1.00  0.00     0.209 C 
HETATM    7  O   UNL     1     -41.739  58.726 -54.963  1.00  0.00    -0.286 OA
HETATM    8  C   UNL     1     -42.438  59.230 -57.147  1.00  0.00     0.084 C 
ENDROOT
BRANCH   5   9
HETATM    9  C   UNL     1     -42.615  55.934 -55.022  1.00  0.00     0.280 C 
HETATM   10  N   UNL     1     -41.295  55.525 -54.939  1.00  0.00    -0.322 N 
HETATM   11  H   UNL     1     -40.623  56.109 -55.433  1.00  0.00     0.169 HD
HETATM   12  O   UNL     1     -43.550  55.571 -54.324  1.00  0.00    -0.265 OA
BRANCH  10  13
HETATM   13  C   UNL     1     -40.819  54.423 -54.204  1.00  0.00     0.035 A 
HETATM   14  C   UNL     1     -40.893  54.365 -52.808  1.00  0.00     0.039 A 
HETATM   15  C   UNL     1     -40.467  53.216 -52.157  1.00  0.00    -0.022 A 
HETATM   16  C   UNL     1     -39.961  52.129 -52.867  1.00  0.00    -0.025 A 
HETATM   17  C   UNL     1     -40.527  52.928 -50.698  1.00  0.00     0.274 C 
HETATM   18  C   UNL     1     -39.621  51.014 -51.939  1.00  0.00     0.273 C 
HETATM   19  C   UNL     1     -39.872  52.169 -54.248  1.00  0.00     0.012 A 
HETATM   20  N   UNL     1     -39.846  51.573 -50.535  1.00  0.00    -0.067 N 
HETATM   21  H   UNL     1     -38.916  51.769 -50.148  1.00  0.00     0.280 HD
HETATM   22  C   UNL     1     -40.565  50.646 -49.616  1.00  0.00     0.270 C 
HETATM   23  C   UNL     1     -40.313  53.320 -54.915  1.00  0.00     0.030 A 
ENDBRANCH  10  13
ENDBRANCH   5   9
BRANCH   3  24
HETATM   24  C   UNL     1     -44.795  57.084 -59.061  1.00  0.00     0.097 A 
HETATM   25  C   UNL     1     -44.416  56.196 -60.084  1.00  0.00     0.145 A 
HETATM   26  F   UNL     1     -43.148  55.759 -60.167  1.00  0.00    -0.204 F 
HETATM   27  C   UNL     1     -45.338  55.718 -61.014  1.00  0.00     0.045 A 
HETATM   28  C   UNL     1     -46.665  56.135 -60.951  1.00  0.00     0.003 A 
HETATM   29  C   UNL     1     -47.061  57.041 -59.967  1.00  0.00     0.002 A 
HETATM   30  C   UNL     1     -46.132  57.516 -59.036  1.00  0.00     0.035 A 
ENDBRANCH   3  24
TORSDOF 3
ENDMDL
MODEL 2
REMARK VINA RESULT:      -8.3      4.618      6.348
REMARK  3 active torsions:
REMARK  status: ('A' for Active; 'I' for Inactive)
REMARK    1  A    between atoms: N_3  and  C_4 
REMARK    2  A    between atoms: C_12  and  C_13 
REMARK       I    between atoms: C_13  and  N_14 
REMARK    3  A    between atoms: N_14  and  C_15 
ROOT
HETATM    1  C   UNL     1     -46.288  61.106 -53.317  1.00  0.00     0.070 C 
HETATM    2  C   UNL     1     -45.165  60.096 -53.375  1.00  0.00     0.036 C 
HETATM    3  N   UNL     1     -44.289  59.933 -52.289  1.00  0.00    -0.235 N 
HETATM    4  N   UNL     1     -43.248  59.032 -52.281  1.00  0.00    -0.157 NA
HETATM    5  C   UNL     1     -43.032  58.339 -53.362  1.00  0.00     0.195 C 
HETATM    6  C   UNL     1     -43.833  58.547 -54.617  1.00  0.00     0.209 C 
HETATM    7  O   UNL     1     -43.483  58.054 -55.679  1.00  0.00    -0.286 OA
HETATM    8  C   UNL     1     -44.998  59.428 -54.526  1.00  0.00     0.084 C 
ENDROOT
BRANCH   5   9
HETATM    9  C   UNL     1     -41.903  57.334 -53.324  1.00  0.00     0.280 C 
HETATM   10  N   UNL     1     -42.280  56.061 -53.716  1.00  0.00    -0.322 N 
HETATM   11  H   UNL     1     -43.179  55.997 -54.190  1.00  0.00     0.169 HD
HETATM   12  O   UNL     1     -40.790  57.707 -52.985  1.00  0.00    -0.265 OA
BRANCH  10  13
HETATM   13  C   UNL     1     -41.515  54.890 -53.558  1.00  0.00     0.035 A 
HETATM   14  C   UNL     1     -41.246  54.333 -52.303  1.00  0.00     0.039 A 
HETATM   15  C   UNL     1     -40.544  53.140 -52.231  1.00  0.00    -0.022 A 
HETATM   16  C   UNL     1     -40.095  52.494 -53.382  1.00  0.00    -0.025 A 
HETATM   17  C   UNL     1     -40.219  52.354 -51.010  1.00  0.00     0.274 C 
HETATM   18  C   UNL     1     -39.414  51.217 -53.031  1.00  0.00     0.273 C 
HETATM   19  C   UNL     1     -40.344  53.032 -54.634  1.00  0.00     0.012 A 
HETATM   20  N   UNL     1     -39.362  51.192 -51.504  1.00  0.00    -0.067 N 
HETATM   21  H   UNL     1     -38.397  51.421 -51.242  1.00  0.00     0.280 HD
HETATM   22  C   UNL     1     -39.725  49.878 -50.901  1.00  0.00     0.270 C 
HETATM   23  C   UNL     1     -41.066  54.231 -54.716  1.00  0.00     0.030 A 
ENDBRANCH  10  13
ENDBRANCH   5   9
BRANCH   3  24
HETATM   24  C   UNL     1     -44.356  60.712 -51.096  1.00  0.00     0.097 A 
HETATM   25  C   UNL     1     -45.167  60.315 -50.019  1.00  0.00     0.145 A 
HETATM   26  F   UNL     1     -45.899  59.191 -50.099  1.00  0.00    -0.204 F 
HETATM   27  C   UNL     1     -45.214  61.046 -48.832  1.00  0.00     0.045 A 
HETATM   28  C   UNL     1     -44.458  62.208 -48.704  1.00  0.00     0.003 A 
HETATM   29  C   UNL     1     -43.670  62.643 -49.770  1.00  0.00     0.002 A 
HETATM   30  C   UNL     1     -43.625  61.905 -50.957  1.00  0.00     0.035 A 
ENDBRANCH   3  24
TORSDOF 3
ENDMDL
MODEL 3
REMARK VINA RESULT:      -8.2      2.309      8.754
REMARK  3 active torsions:
REMARK  status: ('A' for Active; 'I' for Inactive)
REMARK    1  A    between atoms: N_3  and  C_4 
REMARK    2  A    between atoms: C_12  and  C_13 
REMARK       I    between atoms: C_13  and  N_14 
REMARK    3  A    between atoms: N_14  and  C_15 
ROOT
HETATM    1  C   UNL     1     -39.765  54.343 -49.153  1.00  0.00     0.070 C 
HETATM    2  C   UNL     1     -40.574  54.749 -50.363  1.00  0.00     0.036 C 
HETATM    3  N   UNL     1     -40.868  53.819 -51.374  1.00  0.00    -0.235 N 
HETATM    4  N   UNL     1     -41.599  54.126 -52.500  1.00  0.00    -0.157 NA
HETATM    5  C   UNL     1     -41.985  55.360 -52.659  1.00  0.00     0.195 C 
HETATM    6  C   UNL     1     -41.598  56.448 -51.697  1.00  0.00     0.209 C 
HETATM    7  O   UNL     1     -41.778  57.626 -51.969  1.00  0.00    -0.286 OA
HETATM    8  C   UNL     1     -40.926  56.039 -50.463  1.00  0.00     0.084 C 
ENDROOT
BRANCH   5   9
HETATM    9  C   UNL     1     -42.812  55.672 -53.886  1.00  0.00     0.280 C 
HETATM   10  N   UNL     1     -42.119  55.517 -55.074  1.00  0.00    -0.322 N 
HETATM   11  H   UNL     1     -41.241  55.007 -55.006  1.00  0.00     0.169 HD
HETATM   12  O   UNL     1     -43.979  56.002 -53.745  1.00  0.00    -0.265 OA
BRANCH  10  13
HETATM   13  C   UNL     1     -42.550  55.954 -56.342  1.00  0.00     0.035 A 
HETATM   14  C   UNL     1     -43.144  55.093 -57.270  1.00  0.00     0.039 A 
HETATM   15  C   UNL     1     -43.606  55.612 -58.471  1.00  0.00    -0.022 A 
HETATM   16  C   UNL     1     -43.479  56.966 -58.770  1.00  0.00    -0.025 A 
HETATM   17  C   UNL     1     -44.326  54.885 -59.552  1.00  0.00     0.274 C 
HETATM   18  C   UNL     1     -44.094  57.268 -60.093  1.00  0.00     0.273 C 
HETATM   19  C   UNL     1     -42.886  57.835 -57.868  1.00  0.00     0.012 A 
HETATM   20  N   UNL     1     -44.509  55.912 -60.665  1.00  0.00    -0.067 N 
HETATM   21  H   UNL     1     -43.817  55.677 -61.385  1.00  0.00     0.280 HD
HETATM   22  C   UNL     1     -45.867  55.898 -61.278  1.00  0.00     0.270 C 
HETATM   23  C   UNL     1     -42.430  57.322 -56.646  1.00  0.00     0.030 A 
ENDBRANCH  10  13
ENDBRANCH   5   9
BRANCH   3  24
HETATM   24  C   UNL     1     -40.406  52.469 -51.367  1.00  0.00     0.097 A 
HETATM   25  C   UNL     1     -39.816  51.902 -52.510  1.00  0.00     0.145 A 
HETATM   26  F   UNL     1     -39.680  52.627 -53.633  1.00  0.00    -0.204 F 
HETATM   27  C   UNL     1     -39.327  50.596 -52.507  1.00  0.00     0.045 A 
HETATM   28  C   UNL     1     -39.435  49.819 -51.357  1.00  0.00     0.003 A 
HETATM   29  C   UNL     1     -40.047  50.346 -50.219  1.00  0.00     0.002 A 
HETATM   30  C   UNL     1     -40.534  51.657 -50.227  1.00  0.00     0.035 A 
ENDBRANCH   3  24
TORSDOF 3
ENDMDL
MODEL 4
REMARK VINA RESULT:      -8.1      2.020      2.593
REMARK  3 active torsions:
REMARK  status: ('A' for Active; 'I' for Inactive)
REMARK    1  A    between atoms: N_3  and  C_4 
REMARK    2  A    between atoms: C_12  and  C_13 
REMARK       I    between atoms: C_13  and  N_14 
REMARK    3  A    between atoms: N_14  and  C_15 
ROOT
HETATM    1  C   UNL     1     -44.677  61.261 -56.388  1.00  0.00     0.070 C 
HETATM    2  C   UNL     1     -44.335  59.907 -55.809  1.00  0.00     0.036 C 
HETATM    3  N   UNL     1     -43.799  58.895 -56.621  1.00  0.00    -0.235 N 
HETATM    4  N   UNL     1     -43.467  57.642 -56.156  1.00  0.00    -0.157 NA
HETATM    5  C   UNL     1     -43.722  57.368 -54.908  1.00  0.00     0.195 C 
HETATM    6  C   UNL     1     -44.420  58.344 -54.002  1.00  0.00     0.209 C 
HETATM    7  O   UNL     1     -44.845  57.999 -52.910  1.00  0.00    -0.286 OA
HETATM    8  C   UNL     1     -44.637  59.696 -54.520  1.00  0.00     0.084 C 
ENDROOT
BRANCH   5   9
HETATM    9  C   UNL     1     -43.324  55.998 -54.407  1.00  0.00     0.280 C 
HETATM   10  N   UNL     1     -41.993  55.909 -54.035  1.00  0.00    -0.322 N 
HETATM   11  H   UNL     1     -41.509  56.797 -53.924  1.00  0.00     0.169 HD
HETATM   12  O   UNL     1     -44.171  55.119 -54.352  1.00  0.00    -0.265 OA
BRANCH  10  13
HETATM   13  C   UNL     1     -41.293  54.719 -53.760  1.00  0.00     0.035 A 
HETATM   14  C   UNL     1     -41.097  54.248 -52.457  1.00  0.00     0.039 A 
HETATM   15  C   UNL     1     -40.459  53.032 -52.268  1.00  0.00    -0.022 A 
HETATM   16  C   UNL     1     -40.002  52.279 -53.348  1.00  0.00    -0.025 A 
HETATM   17  C   UNL     1     -40.218  52.327 -50.979  1.00  0.00     0.274 C 
HETATM   18  C   UNL     1     -39.398  51.002 -52.876  1.00  0.00     0.273 C 
HETATM   19  C   UNL     1     -40.178  52.731 -54.646  1.00  0.00     0.012 A 
HETATM   20  N   UNL     1     -39.403  51.093 -51.350  1.00  0.00    -0.067 N 
HETATM   21  H   UNL     1     -38.437  51.295 -51.069  1.00  0.00     0.280 HD
HETATM   22  C   UNL     1     -39.852  49.847 -50.666  1.00  0.00     0.270 C 
HETATM   23  C   UNL     1     -40.836  53.952 -54.847  1.00  0.00     0.030 A 
ENDBRANCH  10  13
ENDBRANCH   5   9
BRANCH   3  24
HETATM   24  C   UNL     1     -43.581  59.038 -58.024  1.00  0.00     0.097 A 
HETATM   25  C   UNL     1     -42.371  59.557 -58.517  1.00  0.00     0.145 A 
HETATM   26  F   UNL     1     -41.397  59.929 -57.669  1.00  0.00    -0.204 F 
HETATM   27  C   UNL     1     -42.128  59.669 -59.886  1.00  0.00     0.045 A 
HETATM   28  C   UNL     1     -43.106  59.278 -60.797  1.00  0.00     0.003 A 
HETATM   29  C   UNL     1     -44.329  58.791 -60.334  1.00  0.00     0.002 A 
HETATM   30  C   UNL     1     -44.566  58.679 -58.960  1.00  0.00     0.035 A 
ENDBRANCH   3  24
TORSDOF 3
ENDMDL
MODEL 5
REMARK VINA RESULT:      -8.1      2.977      8.735
REMARK  3 active torsions:
REMARK  status: ('A' for Active; 'I' for Inactive)
REMARK    1  A    between atoms: N_3  and  C_4 
REMARK    2  A    between atoms: C_12  and  C_13 
REMARK       I    between atoms: C_13  and  N_14 
REMARK    3  A    between atoms: N_14  and  C_15 
ROOT
HETATM    1  C   UNL     1     -43.602  54.166 -50.968  1.00  0.00     0.070 C 
HETATM    2  C   UNL     1     -43.202  55.321 -51.856  1.00  0.00     0.036 C 
HETATM    3  N   UNL     1     -42.171  55.178 -52.798  1.00  0.00    -0.235 N 
HETATM    4  N   UNL     1     -41.760  56.191 -53.636  1.00  0.00    -0.157 NA
HETATM    5  C   UNL     1     -42.321  57.359 -53.501  1.00  0.00     0.195 C 
HETATM    6  C   UNL     1     -43.335  57.639 -52.427  1.00  0.00     0.209 C 
HETATM    7  O   UNL     1     -43.686  58.781 -52.173  1.00  0.00    -0.286 OA
HETATM    8  C   UNL     1     -43.816  56.496 -51.651  1.00  0.00     0.084 C 
ENDROOT
BRANCH   5   9
HETATM    9  C   UNL     1     -41.877  58.451 -54.448  1.00  0.00     0.280 C 
HETATM   10  N   UNL     1     -42.634  58.523 -55.605  1.00  0.00    -0.322 N 
HETATM   11  H   UNL     1     -43.513  58.010 -55.585  1.00  0.00     0.169 HD
HETATM   12  O   UNL     1     -40.940  59.167 -54.129  1.00  0.00    -0.265 OA
BRANCH  10  13
HETATM   13  C   UNL     1     -42.314  59.271 -56.754  1.00  0.00     0.035 A 
HETATM   14  C   UNL     1     -42.316  58.713 -58.037  1.00  0.00     0.039 A 
HETATM   15  C   UNL     1     -42.059  59.529 -59.128  1.00  0.00    -0.022 A 
HETATM   16  C   UNL     1     -41.788  60.886 -58.967  1.00  0.00    -0.025 A 
HETATM   17  C   UNL     1     -42.084  59.150 -60.567  1.00  0.00     0.274 C 
HETATM   18  C   UNL     1     -41.593  61.539 -60.292  1.00  0.00     0.273 C 
HETATM   19  C   UNL     1     -41.772  61.457 -57.705  1.00  0.00     0.012 A 
HETATM   20  N   UNL     1     -41.638  60.403 -61.313  1.00  0.00    -0.067 N 
HETATM   21  H   UNL     1     -40.667  60.232 -61.600  1.00  0.00     0.280 HD
HETATM   22  C   UNL     1     -42.452  60.702 -62.525  1.00  0.00     0.270 C 
HETATM   23  C   UNL     1     -42.047  60.643 -56.598  1.00  0.00     0.030 A 
ENDBRANCH  10  13
ENDBRANCH   5   9
BRANCH   3  24
HETATM   24  C   UNL     1     -41.408  53.983 -52.962  1.00  0.00     0.097 A 
HETATM   25  C   UNL     1     -41.563  53.178 -54.104  1.00  0.00     0.145 A 
HETATM   26  F   UNL     1     -42.439  53.523 -55.063  1.00  0.00    -0.204 F 
HETATM   27  C   UNL     1     -40.799  52.027 -54.294  1.00  0.00     0.045 A 
HETATM   28  C   UNL     1     -39.869  51.645 -53.331  1.00  0.00     0.003 A 
HETATM   29  C   UNL     1     -39.719  52.408 -52.173  1.00  0.00     0.002 A 
HETATM   30  C   UNL     1     -40.487  53.562 -51.987  1.00  0.00     0.035 A 
ENDBRANCH   3  24
TORSDOF 3
ENDMDL
MODEL 6
REMARK VINA RESULT:      -8.0      2.406      8.881
REMARK  3 active torsions:
REMARK  status: ('A' for Active; 'I' for Inactive)
REMARK    1  A    between atoms: N_3  and  C_4 
REMARK    2  A    between atoms: C_12  and  C_13 
REMARK       I    between atoms: C_13  and  N_14 
REMARK    3  A    between atoms: N_14  and  C_15 
ROOT
HETATM    1  C   UNL     1     -39.793  54.381 -49.404  1.00  0.00     0.070 C 
HETATM    2  C   UNL     1     -40.596  54.722 -50.638  1.00  0.00     0.036 C 
HETATM    3  N   UNL     1     -40.883  53.741 -51.601  1.00  0.00    -0.235 N 
HETATM    4  N   UNL     1     -41.608  53.988 -52.745  1.00  0.00    -0.157 NA
HETATM    5  C   UNL     1     -41.995  55.212 -52.970  1.00  0.00     0.195 C 
HETATM    6  C   UNL     1     -41.616  56.349 -52.063  1.00  0.00     0.209 C 
HETATM    7  O   UNL     1     -41.796  57.510 -52.397  1.00  0.00    -0.286 OA
HETATM    8  C   UNL     1     -40.950  56.005 -50.806  1.00  0.00     0.084 C 
ENDROOT
BRANCH   5   9
HETATM    9  C   UNL     1     -42.815  55.458 -54.216  1.00  0.00     0.280 C 
HETATM   10  N   UNL     1     -42.058  55.835 -55.312  1.00  0.00    -0.322 N 
HETATM   11  H   UNL     1     -41.055  55.684 -55.225  1.00  0.00     0.169 HD
HETATM   12  O   UNL     1     -44.025  55.294 -54.171  1.00  0.00    -0.265 OA
BRANCH  10  13
HETATM   13  C   UNL     1     -42.560  56.350 -56.522  1.00  0.00     0.035 A 
HETATM   14  C   UNL     1     -42.593  57.722 -56.798  1.00  0.00     0.039 A 
HETATM   15  C   UNL     1     -43.037  58.149 -58.040  1.00  0.00    -0.022 A 
HETATM   16  C   UNL     1     -43.459  57.242 -59.009  1.00  0.00    -0.025 A 
HETATM   17  C   UNL     1     -43.081  59.546 -58.552  1.00  0.00     0.274 C 
HETATM   18  C   UNL     1     -43.840  57.955 -60.260  1.00  0.00     0.273 C 
HETATM   19  C   UNL     1     -43.444  55.880 -58.754  1.00  0.00     0.012 A 
HETATM   20  N   UNL     1     -43.738  59.443 -59.925  1.00  0.00    -0.067 N 
HETATM   21  H   UNL     1     -44.700  59.780 -59.806  1.00  0.00     0.280 HD
HETATM   22  C   UNL     1     -43.068  60.261 -60.975  1.00  0.00     0.270 C 
HETATM   23  C   UNL     1     -42.982  55.438 -57.506  1.00  0.00     0.030 A 
ENDBRANCH  10  13
ENDBRANCH   5   9
BRANCH   3  24
HETATM   24  C   UNL     1     -40.418  52.394 -51.522  1.00  0.00     0.097 A 
HETATM   25  C   UNL     1     -39.802  51.777 -52.624  1.00  0.00     0.145 A 
HETATM   26  F   UNL     1     -39.642  52.450 -53.777  1.00  0.00    -0.204 F 
HETATM   27  C   UNL     1     -39.311  50.474 -52.551  1.00  0.00     0.045 A 
HETATM   28  C   UNL     1     -39.442  49.750 -51.369  1.00  0.00     0.003 A 
HETATM   29  C   UNL     1     -40.080  50.327 -50.271  1.00  0.00     0.002 A 
HETATM   30  C   UNL     1     -40.570  51.634 -50.349  1.00  0.00     0.035 A 
ENDBRANCH   3  24
TORSDOF 3
ENDMDL
MODEL 7
REMARK VINA RESULT:      -7.9      3.327      8.881
REMARK  3 active torsions:
REMARK  status: ('A' for Active; 'I' for Inactive)
REMARK    1  A    between atoms: N_3  and  C_4 
REMARK    2  A    between atoms: C_12  and  C_13 
REMARK       I    between atoms: C_13  and  N_14 
REMARK    3  A    between atoms: N_14  and  C_15 
ROOT
HETATM    1  C   UNL     1     -43.483  54.171 -50.885  1.00  0.00     0.070 C 
HETATM    2  C   UNL     1     -43.130  55.316 -51.806  1.00  0.00     0.036 C 
HETATM    3  N   UNL     1     -42.124  55.174 -52.775  1.00  0.00    -0.235 N 
HETATM    4  N   UNL     1     -41.755  56.178 -53.642  1.00  0.00    -0.157 NA
HETATM    5  C   UNL     1     -42.333  57.339 -53.512  1.00  0.00     0.195 C 
HETATM    6  C   UNL     1     -43.320  57.621 -52.414  1.00  0.00     0.209 C 
HETATM    7  O   UNL     1     -43.685  58.762 -52.170  1.00  0.00    -0.286 OA
HETATM    8  C   UNL     1     -43.759  56.484 -51.604  1.00  0.00     0.084 C 
ENDROOT
BRANCH   5   9
HETATM    9  C   UNL     1     -41.936  58.420 -54.491  1.00  0.00     0.280 C 
HETATM   10  N   UNL     1     -42.723  58.452 -55.630  1.00  0.00    -0.322 N 
HETATM   11  H   UNL     1     -43.590  57.921 -55.579  1.00  0.00     0.169 HD
HETATM   12  O   UNL     1     -41.008  59.163 -54.209  1.00  0.00    -0.265 OA
BRANCH  10  13
HETATM   13  C   UNL     1     -42.447  59.183 -56.801  1.00  0.00     0.035 A 
HETATM   14  C   UNL     1     -42.125  60.545 -56.778  1.00  0.00     0.039 A 
HETATM   15  C   UNL     1     -41.797  61.181 -57.965  1.00  0.00    -0.022 A 
HETATM   16  C   UNL     1     -41.793  60.493 -59.177  1.00  0.00    -0.025 A 
HETATM   17  C   UNL     1     -41.360  62.592 -58.144  1.00  0.00     0.274 C 
HETATM   18  C   UNL     1     -41.363  61.392 -60.285  1.00  0.00     0.273 C 
HETATM   19  C   UNL     1     -42.116  59.147 -59.224  1.00  0.00     0.012 A 
HETATM   20  N   UNL     1     -41.225  62.776 -59.652  1.00  0.00    -0.067 N 
HETATM   21  H   UNL     1     -42.047  63.313 -59.948  1.00  0.00     0.280 HD
HETATM   22  C   UNL     1     -39.995  63.513 -60.060  1.00  0.00     0.270 C 
HETATM   23  C   UNL     1     -42.435  58.492 -58.026  1.00  0.00     0.030 A 
ENDBRANCH  10  13
ENDBRANCH   5   9
BRANCH   3  24
HETATM   24  C   UNL     1     -41.345  53.990 -52.939  1.00  0.00     0.097 A 
HETATM   25  C   UNL     1     -40.391  53.615 -51.978  1.00  0.00     0.145 A 
HETATM   26  F   UNL     1     -40.195  54.372 -50.884  1.00  0.00    -0.204 F 
HETATM   27  C   UNL     1     -39.647  52.442 -52.106  1.00  0.00     0.045 A 
HETATM   28  C   UNL     1     -39.833  51.622 -53.216  1.00  0.00     0.003 A 
HETATM   29  C   UNL     1     -40.749  51.988 -54.202  1.00  0.00     0.002 A 
HETATM   30  C   UNL     1     -41.493  53.165 -54.067  1.00  0.00     0.035 A 
ENDBRANCH   3  24
TORSDOF 3
ENDMDL
MODEL 8
REMARK VINA RESULT:      -7.8      3.090      8.914
REMARK  3 active torsions:
REMARK  status: ('A' for Active; 'I' for Inactive)
REMARK    1  A    between atoms: N_3  and  C_4 
REMARK    2  A    between atoms: C_12  and  C_13 
REMARK       I    between atoms: C_13  and  N_14 
REMARK    3  A    between atoms: N_14  and  C_15 
ROOT
HETATM    1  C   UNL     1     -43.183  53.910 -51.740  1.00  0.00     0.070 C 
HETATM    2  C   UNL     1     -43.144  54.530 -53.118  1.00  0.00     0.036 C 
HETATM    3  N   UNL     1     -42.253  54.053 -54.093  1.00  0.00    -0.235 N 
HETATM    4  N   UNL     1     -42.169  54.574 -55.365  1.00  0.00    -0.157 NA
HETATM    5  C   UNL     1     -42.914  55.602 -55.654  1.00  0.00     0.195 C 
HETATM    6  C   UNL     1     -43.794  56.263 -54.630  1.00  0.00     0.209 C 
HETATM    7  O   UNL     1     -44.315  57.347 -54.849  1.00  0.00    -0.286 OA
HETATM    8  C   UNL     1     -43.932  55.592 -53.337  1.00  0.00     0.084 C 
ENDROOT
BRANCH   5   9
HETATM    9  C   UNL     1     -42.829  56.143 -57.064  1.00  0.00     0.280 C 
HETATM   10  N   UNL     1     -42.181  57.363 -57.151  1.00  0.00    -0.322 N 
HETATM   11  H   UNL     1     -41.651  57.638 -56.327  1.00  0.00     0.169 HD
HETATM   12  O   UNL     1     -43.298  55.484 -57.979  1.00  0.00    -0.265 OA
BRANCH  10  13
HETATM   13  C   UNL     1     -42.160  58.205 -58.279  1.00  0.00     0.035 A 
HETATM   14  C   UNL     1     -42.335  59.590 -58.185  1.00  0.00     0.039 A 
HETATM   15  C   UNL     1     -42.231  60.362 -59.333  1.00  0.00    -0.022 A 
HETATM   16  C   UNL     1     -41.967  59.783 -60.572  1.00  0.00    -0.025 A 
HETATM   17  C   UNL     1     -42.312  61.845 -59.435  1.00  0.00     0.274 C 
HETATM   18  C   UNL     1     -41.862  60.832 -61.625  1.00  0.00     0.273 C 
HETATM   19  C   UNL     1     -41.799  58.413 -60.689  1.00  0.00     0.012 A 
HETATM   20  N   UNL     1     -42.226  62.143 -60.928  1.00  0.00    -0.067 N 
HETATM   21  H   UNL     1     -43.179  62.375 -61.227  1.00  0.00     0.280 HD
HETATM   22  C   UNL     1     -41.325  63.283 -61.263  1.00  0.00     0.270 C 
HETATM   23  C   UNL     1     -41.888  57.627 -59.532  1.00  0.00     0.030 A 
ENDBRANCH  10  13
ENDBRANCH   5   9
BRANCH   3  24
HETATM   24  C   UNL     1     -41.311  53.007 -53.861  1.00  0.00     0.097 A 
HETATM   25  C   UNL     1     -40.302  53.147 -52.893  1.00  0.00     0.145 A 
HETATM   26  F   UNL     1     -40.208  54.275 -52.168  1.00  0.00    -0.204 F 
HETATM   27  C   UNL     1     -39.396  52.120 -52.630  1.00  0.00     0.045 A 
HETATM   28  C   UNL     1     -39.470  50.929 -53.348  1.00  0.00     0.003 A 
HETATM   29  C   UNL     1     -40.441  50.778 -54.338  1.00  0.00     0.002 A 
HETATM   30  C   UNL     1     -41.348  51.810 -54.597  1.00  0.00     0.035 A 
ENDBRANCH   3  24
TORSDOF 3
ENDMDL
MODEL 9
REMARK VINA RESULT:      -7.3      4.303      5.135
REMARK  3 active torsions:
REMARK  status: ('A' for Active; 'I' for Inactive)
REMARK    1  A    between atoms: N_3  and  C_4 
REMARK    2  A    between atoms: C_12  and  C_13 
REMARK       I    between atoms: C_13  and  N_14 
REMARK    3  A    between atoms: N_14  and  C_15 
ROOT
HETATM    1  C   UNL     1     -45.756  61.596 -51.453  1.00  0.00     0.070 C 
HETATM    2  C   UNL     1     -45.209  60.234 -51.816  1.00  0.00     0.036 C 
HETATM    3  N   UNL     1     -44.707  59.983 -53.103  1.00  0.00    -0.235 N 
HETATM    4  N   UNL     1     -44.197  58.765 -53.496  1.00  0.00    -0.157 NA
HETATM    5  C   UNL     1     -44.238  57.782 -52.642  1.00  0.00     0.195 C 
HETATM    6  C   UNL     1     -44.882  57.924 -51.291  1.00  0.00     0.209 C 
HETATM    7  O   UNL     1     -45.109  56.947 -50.594  1.00  0.00    -0.286 OA
HETATM    8  C   UNL     1     -45.297  59.269 -50.889  1.00  0.00     0.084 C 
ENDROOT
BRANCH   5   9
HETATM    9  C   UNL     1     -43.647  56.462 -53.081  1.00  0.00     0.280 C 
HETATM   10  N   UNL     1     -42.788  55.903 -52.150  1.00  0.00    -0.322 N 
HETATM   11  H   UNL     1     -42.829  56.308 -51.217  1.00  0.00     0.169 HD
HETATM   12  O   UNL     1     -43.971  55.998 -54.164  1.00  0.00    -0.265 OA
BRANCH  10  13
HETATM   13  C   UNL     1     -41.923  54.816 -52.377  1.00  0.00     0.035 A 
HETATM   14  C   UNL     1     -41.513  53.956 -51.351  1.00  0.00     0.039 A 
HETATM   15  C   UNL     1     -40.716  52.866 -51.664  1.00  0.00    -0.022 A 
HETATM   16  C   UNL     1     -40.309  52.618 -52.973  1.00  0.00    -0.025 A 
HETATM   17  C   UNL     1     -40.236  51.802 -50.740  1.00  0.00     0.274 C 
HETATM   18  C   UNL     1     -39.504  51.367 -53.041  1.00  0.00     0.273 C 
HETATM   19  C   UNL     1     -40.696  53.461 -54.002  1.00  0.00     0.012 A 
HETATM   20  N   UNL     1     -39.332  50.917 -51.591  1.00  0.00    -0.067 N 
HETATM   21  H   UNL     1     -38.370  51.156 -51.325  1.00  0.00     0.280 HD
HETATM   22  C   UNL     1     -39.542  49.458 -51.375  1.00  0.00     0.270 C 
HETATM   23  C   UNL     1     -41.514  54.558 -53.698  1.00  0.00     0.030 A 
ENDBRANCH  10  13
ENDBRANCH   5   9
BRANCH   3  24
HETATM   24  C   UNL     1     -44.711  60.945 -54.157  1.00  0.00     0.097 A 
HETATM   25  C   UNL     1     -43.614  61.800 -54.358  1.00  0.00     0.145 A 
HETATM   26  F   UNL     1     -42.539  61.724 -53.555  1.00  0.00    -0.204 F 
HETATM   27  C   UNL     1     -43.588  62.721 -55.405  1.00  0.00     0.045 A 
HETATM   28  C   UNL     1     -44.676  62.818 -56.269  1.00  0.00     0.003 A 
HETATM   29  C   UNL     1     -45.792  62.005 -56.071  1.00  0.00     0.002 A 
HETATM   30  C   UNL     1     -45.812  61.082 -55.021  1.00  0.00     0.035 A 
ENDBRANCH   3  24
TORSDOF 3
ENDMDL
MODEL 10
REMARK VINA RESULT:      -7.3      3.211      9.356
REMARK  3 active torsions:
REMARK  status: ('A' for Active; 'I' for Inactive)
REMARK    1  A    between atoms: N_3  and  C_4 
REMARK    2  A    between atoms: C_12  and  C_13 
REMARK       I    between atoms: C_13  and  N_14 
REMARK    3  A    between atoms: N_14  and  C_15 
ROOT
HETATM    1  C   UNL     1     -41.032  54.649 -52.492  1.00  0.00     0.070 C 
HETATM    2  C   UNL     1     -41.588  55.285 -53.745  1.00  0.00     0.036 C 
HETATM    3  N   UNL     1     -41.674  56.682 -53.862  1.00  0.00    -0.235 N 
HETATM    4  N   UNL     1     -42.170  57.322 -54.976  1.00  0.00    -0.157 NA
HETATM    5  C   UNL     1     -42.638  56.587 -55.944  1.00  0.00     0.195 C 
HETATM    6  C   UNL     1     -42.712  55.089 -55.846  1.00  0.00     0.209 C 
HETATM    7  O   UNL     1     -43.348  54.433 -56.658  1.00  0.00    -0.286 OA
HETATM    8  C   UNL     1     -42.061  54.464 -54.694  1.00  0.00     0.084 C 
ENDROOT
BRANCH   5   9
HETATM    9  C   UNL     1     -43.152  57.307 -57.171  1.00  0.00     0.280 C 
HETATM   10  N   UNL     1     -44.533  57.396 -57.223  1.00  0.00    -0.322 N 
HETATM   11  H   UNL     1     -45.019  57.184 -56.354  1.00  0.00     0.169 HD
HETATM   12  O   UNL     1     -42.349  57.754 -57.975  1.00  0.00    -0.265 OA
BRANCH  10  13
HETATM   13  C   UNL     1     -45.290  57.795 -58.341  1.00  0.00     0.035 A 
HETATM   14  C   UNL     1     -45.844  56.876 -59.238  1.00  0.00     0.039 A 
HETATM   15  C   UNL     1     -46.637  57.341 -60.276  1.00  0.00    -0.022 A 
HETATM   16  C   UNL     1     -46.882  58.702 -60.446  1.00  0.00    -0.025 A 
HETATM   17  C   UNL     1     -47.370  56.531 -61.287  1.00  0.00     0.274 C 
HETATM   18  C   UNL     1     -47.796  58.928 -61.601  1.00  0.00     0.273 C 
HETATM   19  C   UNL     1     -46.337  59.630 -59.573  1.00  0.00     0.012 A 
HETATM   20  N   UNL     1     -47.996  57.551 -62.233  1.00  0.00    -0.067 N 
HETATM   21  H   UNL     1     -47.423  57.537 -63.084  1.00  0.00     0.280 HD
HETATM   22  C   UNL     1     -49.408  57.246 -62.598  1.00  0.00     0.270 C 
HETATM   23  C   UNL     1     -45.546  59.168 -58.512  1.00  0.00     0.030 A 
ENDBRANCH  10  13
ENDBRANCH   5   9
BRANCH   3  24
HETATM   24  C   UNL     1     -41.298  57.588 -52.826  1.00  0.00     0.097 A 
HETATM   25  C   UNL     1     -42.128  57.793 -51.711  1.00  0.00     0.145 A 
HETATM   26  F   UNL     1     -43.296  57.137 -51.604  1.00  0.00    -0.204 F 
HETATM   27  C   UNL     1     -41.757  58.648 -50.673  1.00  0.00     0.045 A 
HETATM   28  C   UNL     1     -40.547  59.334 -50.739  1.00  0.00     0.003 A 
HETATM   29  C   UNL     1     -39.720  59.174 -51.851  1.00  0.00     0.002 A 
HETATM   30  C   UNL     1     -40.096  58.314 -52.888  1.00  0.00     0.035 A 
ENDBRANCH   3  24
TORSDOF 3
ENDMDL
