MODEL 1
REMARK VINA RESULT:      -8.7      0.000      0.000
REMARK  3 active torsions:
REMARK  status: ('A' for Active; 'I' for Inactive)
REMARK    1  A    between atoms: C_2  and  C_3 
REMARK    2  A    between atoms: C_8  and  C_9 
REMARK    3  A    between atoms: C_9  and  N_10 
ROOT
HETATM    1  C   UNL     1     -43.573  56.205 -52.782  1.00  0.00     0.096 A 
HETATM    2  N   UNL     1     -44.172  57.291 -52.274  1.00  0.00    -0.174 NA
HETATM    3  N   UNL     1     -44.262  57.069 -50.960  1.00  0.00    -0.288 N 
HETATM    4  H   UNL     1     -44.727  57.766 -50.383  1.00  0.00     0.188 HD
HETATM    5  C   UNL     1     -43.672  55.902 -50.578  1.00  0.00     0.120 A 
HETATM    6  C   UNL     1     -43.204  55.300 -51.733  1.00  0.00     0.016 A 
ENDROOT
BRANCH   6   7
HETATM    7  C   UNL     1     -42.477  54.008 -51.806  1.00  0.00     0.277 C 
BRANCH   7   8
HETATM    8  N   UNL     1     -40.970  54.131 -51.944  1.00  0.00    -0.067 N 
HETATM    9  H   UNL     1     -40.797  55.146 -51.979  1.00  0.00     0.280 HD
HETATM   10  C   UNL     1     -40.446  53.574 -53.248  1.00  0.00     0.242 C 
HETATM   11  C   UNL     1     -40.462  52.050 -53.215  1.00  0.00     0.041 C 
HETATM   12  C   UNL     1     -39.653  51.530 -52.023  1.00  0.00     0.128 C 
HETATM   13  C   UNL     1     -39.917  51.429 -54.505  1.00  0.00     0.011 C 
HETATM   14  O   UNL     1     -39.767  50.110 -51.957  1.00  0.00    -0.385 OA
HETATM   15  C   UNL     1     -40.170  52.114 -50.712  1.00  0.00     0.060 C 
HETATM   16  C   UNL     1     -39.195  49.464 -53.100  1.00  0.00     0.168 C 
HETATM   17  C   UNL     1     -39.894  49.905 -54.382  1.00  0.00     0.027 C 
HETATM   18  C   UNL     1     -40.184  53.631 -50.754  1.00  0.00     0.237 C 
ENDBRANCH   7   8
ENDBRANCH   6   7
BRANCH   1  19
HETATM   19  C   UNL     1     -43.323  56.119 -54.225  1.00  0.00    -0.002 A 
HETATM   20  C   UNL     1     -43.334  54.865 -54.856  1.00  0.00     0.017 A 
HETATM   21  C   UNL     1     -43.126  54.751 -56.233  1.00  0.00     0.040 A 
HETATM   22  C   UNL     1     -42.915  55.894 -56.997  1.00  0.00     0.102 A 
HETATM   23  C   UNL     1     -42.868  57.144 -56.375  1.00  0.00     0.103 A 
HETATM   24  O   UNL     1     -42.743  55.712 -58.342  1.00  0.00    -0.346 OA
HETATM   25  C   UNL     1     -43.065  57.258 -54.998  1.00  0.00     0.053 A 
HETATM   26  O   UNL     1     -42.644  58.311 -57.059  1.00  0.00    -0.346 OA
HETATM   27  C   UNL     1     -42.058  58.049 -58.345  1.00  0.00     0.202 C 
HETATM   28  C   UNL     1     -42.818  56.947 -59.065  1.00  0.00     0.202 C 
ENDBRANCH   1  19
TORSDOF 3
ENDMDL
MODEL 2
REMARK VINA RESULT:      -8.3      1.681      6.728
REMARK  3 active torsions:
REMARK  status: ('A' for Active; 'I' for Inactive)
REMARK    1  A    between atoms: C_2  and  C_3 
REMARK    2  A    between atoms: C_8  and  C_9 
REMARK    3  A    between atoms: C_9  and  N_10 
ROOT
HETATM    1  C   UNL     1     -41.276  55.567 -51.843  1.00  0.00     0.096 A 
HETATM    2  N   UNL     1     -41.413  55.619 -50.512  1.00  0.00    -0.174 NA
HETATM    3  N   UNL     1     -41.593  56.910 -50.220  1.00  0.00    -0.288 N 
HETATM    4  H   UNL     1     -41.682  57.177 -49.242  1.00  0.00     0.188 HD
HETATM    5  C   UNL     1     -41.653  57.700 -51.328  1.00  0.00     0.120 A 
HETATM    6  C   UNL     1     -41.454  56.869 -52.415  1.00  0.00     0.016 A 
ENDROOT
BRANCH   6   7
HETATM    7  C   UNL     1     -41.447  57.288 -53.840  1.00  0.00     0.277 C 
BRANCH   7   8
HETATM    8  N   UNL     1     -42.794  57.735 -54.379  1.00  0.00    -0.067 N 
HETATM    9  H   UNL     1     -43.417  57.721 -53.559  1.00  0.00     0.280 HD
HETATM   10  C   UNL     1     -43.390  56.759 -55.370  1.00  0.00     0.242 C 
HETATM   11  C   UNL     1     -42.662  56.856 -56.706  1.00  0.00     0.041 C 
HETATM   12  C   UNL     1     -42.708  58.290 -57.241  1.00  0.00     0.128 C 
HETATM   13  C   UNL     1     -43.241  55.904 -57.759  1.00  0.00     0.011 C 
HETATM   14  O   UNL     1     -41.938  58.373 -58.438  1.00  0.00    -0.385 OA
HETATM   15  C   UNL     1     -42.129  59.272 -56.229  1.00  0.00     0.060 C 
HETATM   16  C   UNL     1     -42.479  57.570 -59.492  1.00  0.00     0.168 C 
HETATM   17  C   UNL     1     -42.517  56.098 -59.092  1.00  0.00     0.027 C 
HETATM   18  C   UNL     1     -42.831  59.157 -54.888  1.00  0.00     0.237 C 
ENDBRANCH   7   8
ENDBRANCH   6   7
BRANCH   1  19
HETATM   19  C   UNL     1     -41.053  54.276 -52.502  1.00  0.00    -0.002 A 
HETATM   20  C   UNL     1     -41.592  54.047 -53.779  1.00  0.00     0.017 A 
HETATM   21  C   UNL     1     -41.375  52.838 -54.445  1.00  0.00     0.040 A 
HETATM   22  C   UNL     1     -40.607  51.847 -53.845  1.00  0.00     0.102 A 
HETATM   23  C   UNL     1     -40.096  52.048 -52.561  1.00  0.00     0.103 A 
HETATM   24  O   UNL     1     -40.415  50.698 -54.563  1.00  0.00    -0.346 OA
HETATM   25  C   UNL     1     -40.320  53.252 -51.890  1.00  0.00     0.053 A 
HETATM   26  O   UNL     1     -39.348  51.109 -51.899  1.00  0.00    -0.346 OA
HETATM   27  C   UNL     1     -39.527  49.807 -52.478  1.00  0.00     0.202 C 
HETATM   28  C   UNL     1     -39.395  49.871 -53.991  1.00  0.00     0.202 C 
ENDBRANCH   1  19
TORSDOF 3
ENDMDL
MODEL 3
REMARK VINA RESULT:      -8.3      3.089      5.141
REMARK  3 active torsions:
REMARK  status: ('A' for Active; 'I' for Inactive)
REMARK    1  A    between atoms: C_2  and  C_3 
REMARK    2  A    between atoms: C_8  and  C_9 
REMARK    3  A    between atoms: C_9  and  N_10 
ROOT
HETATM    1  C   UNL     1     -42.796  56.737 -55.315  1.00  0.00     0.096 A 
HETATM    2  N   UNL     1     -43.679  57.240 -56.188  1.00  0.00    -0.174 NA
HETATM    3  N   UNL     1     -43.665  56.408 -57.233  1.00  0.00    -0.288 N 
HETATM    4  H   UNL     1     -44.247  56.632 -58.036  1.00  0.00     0.188 HD
HETATM    5  C   UNL     1     -42.855  55.331 -57.041  1.00  0.00     0.120 A 
HETATM    6  C   UNL     1     -42.264  55.497 -55.801  1.00  0.00     0.016 A 
ENDROOT
BRANCH   6   7
HETATM    7  C   UNL     1     -41.308  54.560 -55.160  1.00  0.00     0.277 C 
BRANCH   7   8
HETATM    8  N   UNL     1     -41.948  53.480 -54.307  1.00  0.00    -0.067 N 
HETATM    9  H   UNL     1     -42.712  53.110 -54.890  1.00  0.00     0.280 HD
HETATM   10  C   UNL     1     -42.604  54.023 -53.057  1.00  0.00     0.242 C 
HETATM   11  C   UNL     1     -41.544  54.407 -52.030  1.00  0.00     0.041 C 
HETATM   12  C   UNL     1     -40.646  53.209 -51.711  1.00  0.00     0.128 C 
HETATM   13  C   UNL     1     -42.155  54.942 -50.730  1.00  0.00     0.011 C 
HETATM   14  O   UNL     1     -39.605  53.620 -50.827  1.00  0.00    -0.385 OA
HETATM   15  C   UNL     1     -40.006  52.650 -52.977  1.00  0.00     0.060 C 
HETATM   16  C   UNL     1     -40.107  54.052 -49.557  1.00  0.00     0.168 C 
HETATM   17  C   UNL     1     -41.047  55.243 -49.719  1.00  0.00     0.027 C 
HETATM   18  C   UNL     1     -41.057  52.295 -54.013  1.00  0.00     0.237 C 
ENDBRANCH   7   8
ENDBRANCH   6   7
BRANCH   1  19
HETATM   19  C   UNL     1     -42.558  57.424 -54.041  1.00  0.00    -0.002 A 
HETATM   20  C   UNL     1     -43.650  57.781 -53.233  1.00  0.00     0.017 A 
HETATM   21  C   UNL     1     -43.457  58.412 -52.001  1.00  0.00     0.040 A 
HETATM   22  C   UNL     1     -42.167  58.685 -51.559  1.00  0.00     0.102 A 
HETATM   23  C   UNL     1     -41.075  58.366 -52.370  1.00  0.00     0.103 A 
HETATM   24  O   UNL     1     -42.049  59.282 -50.335  1.00  0.00    -0.346 OA
HETATM   25  C   UNL     1     -41.267  57.745 -53.605  1.00  0.00     0.053 A 
HETATM   26  O   UNL     1     -39.777  58.623 -52.010  1.00  0.00    -0.346 OA
HETATM   27  C   UNL     1     -39.718  59.602 -50.961  1.00  0.00     0.202 C 
HETATM   28  C   UNL     1     -40.701  59.260 -49.852  1.00  0.00     0.202 C 
ENDBRANCH   1  19
TORSDOF 3
ENDMDL
MODEL 4
REMARK VINA RESULT:      -8.3      3.158      4.635
REMARK  3 active torsions:
REMARK  status: ('A' for Active; 'I' for Inactive)
REMARK    1  A    between atoms: C_2  and  C_3 
REMARK    2  A    between atoms: C_8  and  C_9 
REMARK    3  A    between atoms: C_9  and  N_10 
ROOT
HETATM    1  C   UNL     1     -43.562  56.406 -53.127  1.00  0.00     0.096 A 
HETATM    2  N   UNL     1     -44.321  56.455 -54.230  1.00  0.00    -0.174 NA
HETATM    3  N   UNL     1     -44.374  55.201 -54.685  1.00  0.00    -0.288 N 
HETATM    4  H   UNL     1     -44.878  55.022 -55.550  1.00  0.00     0.188 HD
HETATM    5  C   UNL     1     -43.736  54.315 -53.872  1.00  0.00     0.120 A 
HETATM    6  C   UNL     1     -43.189  55.052 -52.837  1.00  0.00     0.016 A 
ENDROOT
BRANCH   6   7
HETATM    7  C   UNL     1     -42.408  54.506 -51.698  1.00  0.00     0.277 C 
BRANCH   7   8
HETATM    8  N   UNL     1     -40.902  54.539 -51.884  1.00  0.00    -0.067 N 
HETATM    9  H   UNL     1     -40.673  55.542 -51.948  1.00  0.00     0.280 HD
HETATM   10  C   UNL     1     -40.452  53.925 -53.191  1.00  0.00     0.242 C 
HETATM   11  C   UNL     1     -40.553  52.406 -53.122  1.00  0.00     0.041 C 
HETATM   12  C   UNL     1     -39.739  51.865 -51.943  1.00  0.00     0.128 C 
HETATM   13  C   UNL     1     -40.085  51.727 -54.414  1.00  0.00     0.011 C 
HETATM   14  O   UNL     1     -39.931  50.456 -51.842  1.00  0.00    -0.385 OA
HETATM   15  C   UNL     1     -40.180  52.506 -50.631  1.00  0.00     0.060 C 
HETATM   16  C   UNL     1     -39.433  49.754 -52.986  1.00  0.00     0.168 C 
HETATM   17  C   UNL     1     -40.146  50.208 -54.256  1.00  0.00     0.027 C 
HETATM   18  C   UNL     1     -40.109  54.020 -50.708  1.00  0.00     0.237 C 
ENDBRANCH   7   8
ENDBRANCH   6   7
BRANCH   1  19
HETATM   19  C   UNL     1     -43.292  57.635 -52.373  1.00  0.00    -0.002 A 
HETATM   20  C   UNL     1     -41.978  58.126 -52.297  1.00  0.00     0.017 A 
HETATM   21  C   UNL     1     -41.691  59.308 -51.609  1.00  0.00     0.040 A 
HETATM   22  C   UNL     1     -42.719  60.019 -50.999  1.00  0.00     0.102 A 
HETATM   23  C   UNL     1     -44.023  59.523 -51.039  1.00  0.00     0.103 A 
HETATM   24  O   UNL     1     -42.371  61.180 -50.365  1.00  0.00    -0.346 OA
HETATM   25  C   UNL     1     -44.310  58.337 -51.716  1.00  0.00     0.053 A 
HETATM   26  O   UNL     1     -45.083  60.158 -50.443  1.00  0.00    -0.346 OA
HETATM   27  C   UNL     1     -44.630  61.101 -49.459  1.00  0.00     0.202 C 
HETATM   28  C   UNL     1     -43.516  61.969 -50.021  1.00  0.00     0.202 C 
ENDBRANCH   1  19
TORSDOF 3
ENDMDL
MODEL 5
REMARK VINA RESULT:      -8.2      1.825      6.427
REMARK  3 active torsions:
REMARK  status: ('A' for Active; 'I' for Inactive)
REMARK    1  A    between atoms: C_2  and  C_3 
REMARK    2  A    between atoms: C_8  and  C_9 
REMARK    3  A    between atoms: C_9  and  N_10 
ROOT
HETATM    1  C   UNL     1     -40.488  53.352 -49.589  1.00  0.00     0.096 A 
HETATM    2  N   UNL     1     -40.307  53.133 -48.280  1.00  0.00    -0.174 NA
HETATM    3  N   UNL     1     -40.632  54.279 -47.676  1.00  0.00    -0.288 N 
HETATM    4  H   UNL     1     -40.528  54.340 -46.666  1.00  0.00     0.188 HD
HETATM    5  C   UNL     1     -41.094  55.222 -48.544  1.00  0.00     0.120 A 
HETATM    6  C   UNL     1     -41.021  54.665 -49.807  1.00  0.00     0.016 A 
ENDROOT
BRANCH   6   7
HETATM    7  C   UNL     1     -41.431  55.324 -51.073  1.00  0.00     0.277 C 
BRANCH   7   8
HETATM    8  N   UNL     1     -42.900  55.173 -51.424  1.00  0.00    -0.067 N 
HETATM    9  H   UNL     1     -43.303  54.657 -50.628  1.00  0.00     0.280 HD
HETATM   10  C   UNL     1     -43.134  54.307 -52.642  1.00  0.00     0.242 C 
HETATM   11  C   UNL     1     -42.762  55.068 -53.909  1.00  0.00     0.041 C 
HETATM   12  C   UNL     1     -43.549  56.378 -54.000  1.00  0.00     0.128 C 
HETATM   13  C   UNL     1     -43.002  54.245 -55.179  1.00  0.00     0.011 C 
HETATM   14  O   UNL     1     -43.111  57.116 -55.139  1.00  0.00    -0.385 OA
HETATM   15  C   UNL     1     -43.330  57.237 -52.759  1.00  0.00     0.060 C 
HETATM   16  C   UNL     1     -43.387  56.435 -56.368  1.00  0.00     0.168 C 
HETATM   17  C   UNL     1     -42.677  55.085 -56.415  1.00  0.00     0.027 C 
HETATM   18  C   UNL     1     -43.670  56.471 -51.493  1.00  0.00     0.237 C 
ENDBRANCH   7   8
ENDBRANCH   6   7
BRANCH   1  19
HETATM   19  C   UNL     1     -40.209  52.281 -50.552  1.00  0.00    -0.002 A 
HETATM   20  C   UNL     1     -40.098  50.956 -50.100  1.00  0.00     0.017 A 
HETATM   21  C   UNL     1     -39.860  49.909 -50.995  1.00  0.00     0.040 A 
HETATM   22  C   UNL     1     -39.741  50.176 -52.355  1.00  0.00     0.102 A 
HETATM   23  C   UNL     1     -39.816  51.493 -52.811  1.00  0.00     0.103 A 
HETATM   24  O   UNL     1     -39.533  49.102 -53.176  1.00  0.00    -0.346 OA
HETATM   25  C   UNL     1     -40.043  52.541 -51.918  1.00  0.00     0.053 A 
HETATM   26  O   UNL     1     -39.688  51.835 -54.133  1.00  0.00    -0.346 OA
HETATM   27  C   UNL     1     -39.062  50.778 -54.879  1.00  0.00     0.202 C 
HETATM   28  C   UNL     1     -39.707  49.440 -54.557  1.00  0.00     0.202 C 
ENDBRANCH   1  19
TORSDOF 3
ENDMDL
MODEL 6
REMARK VINA RESULT:      -8.1      2.679      5.091
REMARK  3 active torsions:
REMARK  status: ('A' for Active; 'I' for Inactive)
REMARK    1  A    between atoms: C_2  and  C_3 
REMARK    2  A    between atoms: C_8  and  C_9 
REMARK    3  A    between atoms: C_9  and  N_10 
ROOT
HETATM    1  C   UNL     1     -41.475  55.123 -49.602  1.00  0.00     0.096 A 
HETATM    2  N   UNL     1     -41.009  55.358 -48.368  1.00  0.00    -0.174 NA
HETATM    3  N   UNL     1     -40.444  54.214 -47.975  1.00  0.00    -0.288 N 
HETATM    4  H   UNL     1     -40.055  54.165 -47.036  1.00  0.00     0.188 HD
HETATM    5  C   UNL     1     -40.457  53.256 -48.943  1.00  0.00     0.120 A 
HETATM    6  C   UNL     1     -41.119  53.802 -50.028  1.00  0.00     0.016 A 
ENDROOT
BRANCH   6   7
HETATM    7  C   UNL     1     -41.365  53.124 -51.326  1.00  0.00     0.277 C 
BRANCH   7   8
HETATM    8  N   UNL     1     -40.345  53.429 -52.408  1.00  0.00    -0.067 N 
HETATM    9  H   UNL     1     -39.435  53.356 -51.931  1.00  0.00     0.280 HD
HETATM   10  C   UNL     1     -40.433  54.848 -52.924  1.00  0.00     0.242 C 
HETATM   11  C   UNL     1     -41.650  55.006 -53.827  1.00  0.00     0.041 C 
HETATM   12  C   UNL     1     -41.600  53.998 -54.979  1.00  0.00     0.128 C 
HETATM   13  C   UNL     1     -41.776  56.422 -54.400  1.00  0.00     0.011 C 
HETATM   14  O   UNL     1     -42.795  54.099 -55.750  1.00  0.00    -0.385 OA
HETATM   15  C   UNL     1     -41.487  52.570 -54.455  1.00  0.00     0.060 C 
HETATM   16  C   UNL     1     -42.928  55.376 -56.384  1.00  0.00     0.168 C 
HETATM   17  C   UNL     1     -42.972  56.497 -55.349  1.00  0.00     0.027 C 
HETATM   18  C   UNL     1     -40.293  52.418 -53.530  1.00  0.00     0.237 C 
ENDBRANCH   7   8
ENDBRANCH   6   7
BRANCH   1  19
HETATM   19  C   UNL     1     -42.171  56.188 -50.333  1.00  0.00    -0.002 A 
HETATM   20  C   UNL     1     -43.510  56.003 -50.717  1.00  0.00     0.017 A 
HETATM   21  C   UNL     1     -44.210  57.008 -51.390  1.00  0.00     0.040 A 
HETATM   22  C   UNL     1     -43.581  58.215 -51.677  1.00  0.00     0.102 A 
HETATM   23  C   UNL     1     -42.240  58.397 -51.331  1.00  0.00     0.103 A 
HETATM   24  O   UNL     1     -44.331  59.163 -52.316  1.00  0.00    -0.346 OA
HETATM   25  C   UNL     1     -41.537  57.390 -50.667  1.00  0.00     0.053 A 
HETATM   26  O   UNL     1     -41.549  59.550 -51.599  1.00  0.00    -0.346 OA
HETATM   27  C   UNL     1     -42.211  60.322 -52.614  1.00  0.00     0.202 C 
HETATM   28  C   UNL     1     -43.695  60.447 -52.311  1.00  0.00     0.202 C 
ENDBRANCH   1  19
TORSDOF 3
ENDMDL
MODEL 7
REMARK VINA RESULT:      -8.0      2.966      4.637
REMARK  3 active torsions:
REMARK  status: ('A' for Active; 'I' for Inactive)
REMARK    1  A    between atoms: C_2  and  C_3 
REMARK    2  A    between atoms: C_8  and  C_9 
REMARK    3  A    between atoms: C_9  and  N_10 
ROOT
HETATM    1  C   UNL     1     -43.627  56.977 -56.158  1.00  0.00     0.096 A 
HETATM    2  N   UNL     1     -44.166  57.561 -57.237  1.00  0.00    -0.174 NA
HETATM    3  N   UNL     1     -43.905  56.739 -58.257  1.00  0.00    -0.288 N 
HETATM    4  H   UNL     1     -44.200  57.018 -59.190  1.00  0.00     0.188 HD
HETATM    5  C   UNL     1     -43.276  55.596 -57.869  1.00  0.00     0.120 A 
HETATM    6  C   UNL     1     -43.073  55.701 -56.504  1.00  0.00     0.016 A 
ENDROOT
BRANCH   6   7
HETATM    7  C   UNL     1     -42.429  54.680 -55.640  1.00  0.00     0.277 C 
BRANCH   7   8
HETATM    8  N   UNL     1     -41.011  55.012 -55.211  1.00  0.00    -0.067 N 
HETATM    9  H   UNL     1     -40.652  55.623 -55.958  1.00  0.00     0.280 HD
HETATM   10  C   UNL     1     -40.100  53.804 -55.188  1.00  0.00     0.242 C 
HETATM   11  C   UNL     1     -40.415  52.930 -53.980  1.00  0.00     0.041 C 
HETATM   12  C   UNL     1     -40.297  53.739 -52.685  1.00  0.00     0.128 C 
HETATM   13  C   UNL     1     -39.503  51.701 -53.892  1.00  0.00     0.011 C 
HETATM   14  O   UNL     1     -40.692  52.927 -51.582  1.00  0.00    -0.385 OA
HETATM   15  C   UNL     1     -41.198  54.969 -52.722  1.00  0.00     0.060 C 
HETATM   16  C   UNL     1     -39.824  51.804 -51.393  1.00  0.00     0.168 C 
HETATM   17  C   UNL     1     -39.821  50.905 -52.626  1.00  0.00     0.027 C 
HETATM   18  C   UNL     1     -40.909  55.825 -53.941  1.00  0.00     0.237 C 
ENDBRANCH   7   8
ENDBRANCH   6   7
BRANCH   1  19
HETATM   19  C   UNL     1     -43.729  57.631 -54.849  1.00  0.00    -0.002 A 
HETATM   20  C   UNL     1     -44.505  57.040 -53.838  1.00  0.00     0.017 A 
HETATM   21  C   UNL     1     -44.601  57.623 -52.572  1.00  0.00     0.040 A 
HETATM   22  C   UNL     1     -43.913  58.800 -52.299  1.00  0.00     0.102 A 
HETATM   23  C   UNL     1     -43.166  59.415 -53.306  1.00  0.00     0.103 A 
HETATM   24  O   UNL     1     -44.032  59.303 -51.033  1.00  0.00    -0.346 OA
HETATM   25  C   UNL     1     -43.078  58.840 -54.575  1.00  0.00     0.053 A 
HETATM   26  O   UNL     1     -42.479  60.586 -53.117  1.00  0.00    -0.346 OA
HETATM   27  C   UNL     1     -42.960  61.284 -51.958  1.00  0.00     0.202 C 
HETATM   28  C   UNL     1     -43.077  60.338 -50.773  1.00  0.00     0.202 C 
ENDBRANCH   1  19
TORSDOF 3
ENDMDL
MODEL 8
REMARK VINA RESULT:      -8.0      1.552      6.837
REMARK  3 active torsions:
REMARK  status: ('A' for Active; 'I' for Inactive)
REMARK    1  A    between atoms: C_2  and  C_3 
REMARK    2  A    between atoms: C_8  and  C_9 
REMARK    3  A    between atoms: C_9  and  N_10 
ROOT
HETATM    1  C   UNL     1     -41.308  55.760 -51.583  1.00  0.00     0.096 A 
HETATM    2  N   UNL     1     -41.469  56.299 -50.367  1.00  0.00    -0.174 NA
HETATM    3  N   UNL     1     -41.925  57.536 -50.580  1.00  0.00    -0.288 N 
HETATM    4  H   UNL     1     -42.081  58.138 -49.775  1.00  0.00     0.188 HD
HETATM    5  C   UNL     1     -42.142  57.801 -51.898  1.00  0.00     0.120 A 
HETATM    6  C   UNL     1     -41.755  56.671 -52.596  1.00  0.00     0.016 A 
ENDROOT
BRANCH   6   7
HETATM    7  C   UNL     1     -41.823  56.493 -54.069  1.00  0.00     0.277 C 
BRANCH   7   8
HETATM    8  N   UNL     1     -43.135  55.931 -54.583  1.00  0.00    -0.067 N 
HETATM    9  H   UNL     1     -43.339  55.138 -53.958  1.00  0.00     0.280 HD
HETATM   10  C   UNL     1     -43.025  55.345 -55.974  1.00  0.00     0.242 C 
HETATM   11  C   UNL     1     -42.932  56.460 -57.009  1.00  0.00     0.041 C 
HETATM   12  C   UNL     1     -44.135  57.401 -56.895  1.00  0.00     0.128 C 
HETATM   13  C   UNL     1     -42.843  55.924 -58.442  1.00  0.00     0.011 C 
HETATM   14  O   UNL     1     -43.973  58.488 -57.805  1.00  0.00    -0.385 OA
HETATM   15  C   UNL     1     -44.256  57.970 -55.486  1.00  0.00     0.060 C 
HETATM   16  C   UNL     1     -43.969  58.059 -59.171  1.00  0.00     0.168 C 
HETATM   17  C   UNL     1     -42.823  57.087 -59.434  1.00  0.00     0.027 C 
HETATM   18  C   UNL     1     -44.318  56.862 -54.450  1.00  0.00     0.237 C 
ENDBRANCH   7   8
ENDBRANCH   6   7
BRANCH   1  19
HETATM   19  C   UNL     1     -40.805  54.389 -51.711  1.00  0.00    -0.002 A 
HETATM   20  C   UNL     1     -40.314  53.722 -50.577  1.00  0.00     0.017 A 
HETATM   21  C   UNL     1     -39.852  52.406 -50.659  1.00  0.00     0.040 A 
HETATM   22  C   UNL     1     -39.886  51.737 -51.878  1.00  0.00     0.102 A 
HETATM   23  C   UNL     1     -40.340  52.401 -53.020  1.00  0.00     0.103 A 
HETATM   24  O   UNL     1     -39.442  50.444 -51.883  1.00  0.00    -0.346 OA
HETATM   25  C   UNL     1     -40.792  53.719 -52.941  1.00  0.00     0.053 A 
HETATM   26  O   UNL     1     -40.383  51.813 -54.258  1.00  0.00    -0.346 OA
HETATM   27  C   UNL     1     -39.537  50.653 -54.307  1.00  0.00     0.202 C 
HETATM   28  C   UNL     1     -39.778  49.763 -53.098  1.00  0.00     0.202 C 
ENDBRANCH   1  19
TORSDOF 3
ENDMDL
MODEL 9
REMARK VINA RESULT:      -7.9      1.640      2.324
REMARK  3 active torsions:
REMARK  status: ('A' for Active; 'I' for Inactive)
REMARK    1  A    between atoms: C_2  and  C_3 
REMARK    2  A    between atoms: C_8  and  C_9 
REMARK    3  A    between atoms: C_9  and  N_10 
ROOT
HETATM    1  C   UNL     1     -44.219  58.091 -53.039  1.00  0.00     0.096 A 
HETATM    2  N   UNL     1     -44.986  59.041 -52.487  1.00  0.00    -0.174 NA
HETATM    3  N   UNL     1     -45.352  58.560 -51.296  1.00  0.00    -0.288 N 
HETATM    4  H   UNL     1     -45.978  59.118 -50.721  1.00  0.00     0.188 HD
HETATM    5  C   UNL     1     -44.788  57.353 -51.017  1.00  0.00     0.120 A 
HETATM    6  C   UNL     1     -44.036  57.003 -52.124  1.00  0.00     0.016 A 
ENDROOT
BRANCH   6   7
HETATM    7  C   UNL     1     -43.228  55.766 -52.271  1.00  0.00     0.277 C 
BRANCH   7   8
HETATM    8  N   UNL     1     -41.725  55.983 -52.279  1.00  0.00    -0.067 N 
HETATM    9  H   UNL     1     -41.613  57.002 -52.386  1.00  0.00     0.280 HD
HETATM   10  C   UNL     1     -41.043  55.362 -53.478  1.00  0.00     0.242 C 
HETATM   11  C   UNL     1     -40.967  53.848 -53.314  1.00  0.00     0.041 C 
HETATM   12  C   UNL     1     -40.247  53.483 -52.013  1.00  0.00     0.128 C 
HETATM   13  C   UNL     1     -40.261  53.166 -54.491  1.00  0.00     0.011 C 
HETATM   14  O   UNL     1     -40.278  52.068 -51.836  1.00  0.00    -0.385 OA
HETATM   15  C   UNL     1     -40.925  54.131 -50.810  1.00  0.00     0.060 C 
HETATM   16  C   UNL     1     -39.559  51.375 -52.861  1.00  0.00     0.168 C 
HETATM   17  C   UNL     1     -40.156  51.662 -54.236  1.00  0.00     0.027 C 
HETATM   18  C   UNL     1     -41.029  55.636 -50.984  1.00  0.00     0.237 C 
ENDBRANCH   7   8
ENDBRANCH   6   7
BRANCH   1  19
HETATM   19  C   UNL     1     -43.649  58.300 -54.374  1.00  0.00    -0.002 A 
HETATM   20  C   UNL     1     -42.679  59.298 -54.564  1.00  0.00     0.017 A 
HETATM   21  C   UNL     1     -42.096  59.505 -55.817  1.00  0.00     0.040 A 
HETATM   22  C   UNL     1     -42.470  58.707 -56.893  1.00  0.00     0.102 A 
HETATM   23  C   UNL     1     -43.458  57.735 -56.724  1.00  0.00     0.103 A 
HETATM   24  O   UNL     1     -41.842  58.947 -58.084  1.00  0.00    -0.346 OA
HETATM   25  C   UNL     1     -44.048  57.534 -55.476  1.00  0.00     0.053 A 
HETATM   26  O   UNL     1     -43.892  56.926 -57.742  1.00  0.00    -0.346 OA
HETATM   27  C   UNL     1     -43.541  57.476 -59.022  1.00  0.00     0.202 C 
HETATM   28  C   UNL     1     -42.083  57.907 -59.039  1.00  0.00     0.202 C 
ENDBRANCH   1  19
TORSDOF 3
ENDMDL
MODEL 10
REMARK VINA RESULT:      -7.8      3.102      7.349
REMARK  3 active torsions:
REMARK  status: ('A' for Active; 'I' for Inactive)
REMARK    1  A    between atoms: C_2  and  C_3 
REMARK    2  A    between atoms: C_8  and  C_9 
REMARK    3  A    between atoms: C_9  and  N_10 
ROOT
HETATM    1  C   UNL     1     -42.305  55.129 -54.212  1.00  0.00     0.096 A 
HETATM    2  N   UNL     1     -43.261  54.880 -55.116  1.00  0.00    -0.174 NA
HETATM    3  N   UNL     1     -43.789  56.069 -55.417  1.00  0.00    -0.288 N 
HETATM    4  H   UNL     1     -44.569  56.100 -56.069  1.00  0.00     0.188 HD
HETATM    5  C   UNL     1     -43.157  57.102 -54.794  1.00  0.00     0.120 A 
HETATM    6  C   UNL     1     -42.177  56.540 -53.995  1.00  0.00     0.016 A 
ENDROOT
BRANCH   6   7
HETATM    7  C   UNL     1     -41.224  57.286 -53.134  1.00  0.00     0.277 C 
BRANCH   7   8
HETATM    8  N   UNL     1     -41.552  57.263 -51.652  1.00  0.00    -0.067 N 
HETATM    9  H   UNL     1     -41.432  56.277 -51.377  1.00  0.00     0.280 HD
HETATM   10  C   UNL     1     -42.997  57.603 -51.358  1.00  0.00     0.242 C 
HETATM   11  C   UNL     1     -43.231  59.099 -51.533  1.00  0.00     0.041 C 
HETATM   12  C   UNL     1     -42.279  59.900 -50.641  1.00  0.00     0.128 C 
HETATM   13  C   UNL     1     -44.676  59.505 -51.223  1.00  0.00     0.011 C 
HETATM   14  O   UNL     1     -42.451  61.292 -50.897  1.00  0.00    -0.385 OA
HETATM   15  C   UNL     1     -40.825  59.536 -50.924  1.00  0.00     0.060 C 
HETATM   16  C   UNL     1     -43.759  61.754 -50.545  1.00  0.00     0.168 C 
HETATM   17  C   UNL     1     -44.830  61.021 -51.348  1.00  0.00     0.027 C 
HETATM   18  C   UNL     1     -40.595  58.043 -50.781  1.00  0.00     0.237 C 
ENDBRANCH   7   8
ENDBRANCH   6   7
BRANCH   1  19
HETATM   19  C   UNL     1     -41.521  54.020 -53.656  1.00  0.00    -0.002 A 
HETATM   20  C   UNL     1     -40.961  54.142 -52.374  1.00  0.00     0.017 A 
HETATM   21  C   UNL     1     -40.232  53.095 -51.805  1.00  0.00     0.040 A 
HETATM   22  C   UNL     1     -40.064  51.908 -52.509  1.00  0.00     0.102 A 
HETATM   23  C   UNL     1     -40.586  51.787 -53.799  1.00  0.00     0.103 A 
HETATM   24  O   UNL     1     -39.360  50.916 -51.884  1.00  0.00    -0.346 OA
HETATM   25  C   UNL     1     -41.306  52.837 -54.372  1.00  0.00     0.053 A 
HETATM   26  O   UNL     1     -40.443  50.656 -54.560  1.00  0.00    -0.346 OA
HETATM   27  C   UNL     1     -39.373  49.835 -54.066  1.00  0.00     0.202 C 
HETATM   28  C   UNL     1     -39.485  49.659 -52.560  1.00  0.00     0.202 C 
ENDBRANCH   1  19
TORSDOF 3
ENDMDL
