MODEL 1
REMARK VINA RESULT:      -8.6      0.000      0.000
REMARK  7 active torsions:
REMARK  status: ('A' for Active; 'I' for Inactive)
REMARK    1  A    between atoms: C_5  and  C_6 
REMARK    2  A    between atoms: C_6  and  N_7 
REMARK       I    between atoms: N_7  and  C_8 
REMARK    3  A    between atoms: C_8  and  C_9 
REMARK    4  A    between atoms: C_14  and  C_15 
REMARK    5  A    between atoms: C_15  and  S_16 
REMARK    6  A    between atoms: S_16  and  C_17 
REMARK    7  A    between atoms: C_17  and  C_18 
ROOT
HETATM    1  C   UNL     1     -43.659  56.518 -52.566  1.00  0.00     0.034 A 
HETATM    2  C   UNL     1     -43.667  56.294 -53.946  1.00  0.00     0.048 A 
HETATM    3  C   UNL     1     -44.333  57.187 -54.783  1.00  0.00     0.057 A 
HETATM    4  C   UNL     1     -45.012  58.305 -54.262  1.00  0.00     0.036 A 
HETATM    5  N   UNL     1     -45.762  59.151 -55.099  1.00  0.00    -0.277 NA
HETATM    6  C   UNL     1     -45.259  59.227 -56.502  1.00  0.00     0.162 C 
HETATM    7  C   UNL     1     -44.913  57.830 -57.055  1.00  0.00     0.240 C 
HETATM    8  O   UNL     1     -45.039  57.520 -58.238  1.00  0.00    -0.271 OA
HETATM    9  N   UNL     1     -44.348  56.950 -56.162  1.00  0.00    -0.324 N 
HETATM   10  C   UNL     1     -45.059  58.473 -52.874  1.00  0.00     0.027 A 
HETATM   11  C   UNL     1     -44.371  57.596 -52.028  1.00  0.00     0.019 A 
HETATM   12  H   UNL     1     -45.966  60.057 -54.690  1.00  0.00     0.128 HD
HETATM   13  H   UNL     1     -44.020  56.071 -56.542  1.00  0.00     0.169 HD
ENDROOT
BRANCH   1  14
HETATM   14  C   UNL     1     -42.900  55.567 -51.712  1.00  0.00     0.252 C 
HETATM   15  N   UNL     1     -41.557  55.445 -51.981  1.00  0.00    -0.353 N 
HETATM   16  H   UNL     1     -41.130  55.956 -52.741  1.00  0.00     0.163 HD
HETATM   17  O   UNL     1     -43.489  54.912 -50.860  1.00  0.00    -0.268 OA
BRANCH  15  18
HETATM   18  C   UNL     1     -40.724  54.502 -51.265  1.00  0.00     0.161 C 
BRANCH  18  19
HETATM   19  C   UNL     1     -40.372  53.306 -52.113  1.00  0.00    -0.041 A 
HETATM   20  C   UNL     1     -39.815  52.161 -51.528  1.00  0.00     0.009 A 
HETATM   21  C   UNL     1     -39.538  51.028 -52.299  1.00  0.00     0.007 A 
HETATM   22  C   UNL     1     -39.814  51.018 -53.670  1.00  0.00    -0.062 A 
HETATM   23  C   UNL     1     -39.545  49.800 -54.504  1.00  0.00     0.048 C 
HETATM   24  C   UNL     1     -40.380  52.155 -54.257  1.00  0.00     0.007 A 
HETATM   25  C   UNL     1     -40.662  53.284 -53.485  1.00  0.00     0.009 A 
ENDBRANCH  18  19
ENDBRANCH  15  18
ENDBRANCH   1  14
BRANCH   6  26
HETATM   26  C   UNL     1     -44.022  60.149 -56.545  1.00  0.00     0.103 C 
BRANCH  26  27
HETATM   27  S   UNL     1     -43.827  61.214 -55.077  1.00  0.00    -0.162 SA
BRANCH  27  28
HETATM   28  C   UNL     1     -42.208  60.598 -54.519  1.00  0.00     0.114 C 
BRANCH  28  29
HETATM   29  C   UNL     1     -42.151  60.451 -53.019  1.00  0.00    -0.027 A 
HETATM   30  C   UNL     1     -41.328  59.509 -52.380  1.00  0.00     0.041 A 
HETATM   31 CL   UNL     1     -40.313  58.425 -53.267  1.00  0.00    -0.084 Cl
HETATM   32  C   UNL     1     -41.308  59.412 -50.985  1.00  0.00     0.024 A 
HETATM   33  C   UNL     1     -42.102  60.256 -50.210  1.00  0.00     0.002 A 
HETATM   34  C   UNL     1     -42.913  61.204 -50.829  1.00  0.00     0.001 A 
HETATM   35  C   UNL     1     -42.937  61.303 -52.221  1.00  0.00     0.009 A 
ENDBRANCH  28  29
ENDBRANCH  27  28
ENDBRANCH  26  27
ENDBRANCH   6  26
TORSDOF 7
ENDMDL
MODEL 2
REMARK VINA RESULT:      -8.6      2.438      4.083
REMARK  7 active torsions:
REMARK  status: ('A' for Active; 'I' for Inactive)
REMARK    1  A    between atoms: C_5  and  C_6 
REMARK    2  A    between atoms: C_6  and  N_7 
REMARK       I    between atoms: N_7  and  C_8 
REMARK    3  A    between atoms: C_8  and  C_9 
REMARK    4  A    between atoms: C_14  and  C_15 
REMARK    5  A    between atoms: C_15  and  S_16 
REMARK    6  A    between atoms: S_16  and  C_17 
REMARK    7  A    between atoms: C_17  and  C_18 
ROOT
HETATM    1  C   UNL     1     -41.532  57.724 -51.855  1.00  0.00     0.034 A 
HETATM    2  C   UNL     1     -42.487  58.637 -51.398  1.00  0.00     0.048 A 
HETATM    3  C   UNL     1     -42.803  59.748 -52.176  1.00  0.00     0.057 A 
HETATM    4  C   UNL     1     -42.168  59.976 -53.412  1.00  0.00     0.036 A 
HETATM    5  N   UNL     1     -42.421  61.146 -54.150  1.00  0.00    -0.277 NA
HETATM    6  C   UNL     1     -43.786  61.715 -53.949  1.00  0.00     0.162 C 
HETATM    7  C   UNL     1     -44.174  61.737 -52.457  1.00  0.00     0.240 C 
HETATM    8  O   UNL     1     -44.893  62.599 -51.957  1.00  0.00    -0.271 OA
HETATM    9  N   UNL     1     -43.752  60.664 -51.707  1.00  0.00    -0.324 N 
HETATM   10  C   UNL     1     -41.160  59.096 -53.819  1.00  0.00     0.027 A 
HETATM   11  C   UNL     1     -40.854  57.963 -53.056  1.00  0.00     0.019 A 
HETATM   12  H   UNL     1     -42.145  61.084 -55.126  1.00  0.00     0.128 HD
HETATM   13  H   UNL     1     -44.093  60.617 -50.756  1.00  0.00     0.169 HD
ENDROOT
BRANCH   1  14
HETATM   14  C   UNL     1     -41.254  56.530 -51.015  1.00  0.00     0.252 C 
HETATM   15  N   UNL     1     -40.893  55.384 -51.686  1.00  0.00    -0.353 N 
HETATM   16  H   UNL     1     -40.854  55.363 -52.695  1.00  0.00     0.163 HD
HETATM   17  O   UNL     1     -41.398  56.594 -49.801  1.00  0.00    -0.268 OA
BRANCH  15  18
HETATM   18  C   UNL     1     -40.662  54.138 -50.987  1.00  0.00     0.161 C 
BRANCH  18  19
HETATM   19  C   UNL     1     -40.430  52.993 -51.940  1.00  0.00    -0.041 A 
HETATM   20  C   UNL     1     -40.778  53.114 -53.292  1.00  0.00     0.009 A 
HETATM   21  C   UNL     1     -40.516  52.078 -54.192  1.00  0.00     0.007 A 
HETATM   22  C   UNL     1     -39.899  50.899 -53.759  1.00  0.00    -0.062 A 
HETATM   23  C   UNL     1     -39.589  49.790 -54.720  1.00  0.00     0.048 C 
HETATM   24  C   UNL     1     -39.540  50.777 -52.412  1.00  0.00     0.007 A 
HETATM   25  C   UNL     1     -39.797  51.816 -51.514  1.00  0.00     0.009 A 
ENDBRANCH  18  19
ENDBRANCH  15  18
ENDBRANCH   1  14
BRANCH   6  26
HETATM   26  C   UNL     1     -44.803  60.886 -54.762  1.00  0.00     0.103 C 
BRANCH  26  27
HETATM   27  S   UNL     1     -44.201  60.357 -56.400  1.00  0.00    -0.162 SA
BRANCH  27  28
HETATM   28  C   UNL     1     -45.113  58.786 -56.520  1.00  0.00     0.114 C 
BRANCH  28  29
HETATM   29  C   UNL     1     -44.320  57.633 -55.958  1.00  0.00    -0.027 A 
HETATM   30  C   UNL     1     -43.279  57.011 -56.666  1.00  0.00     0.041 A 
HETATM   31 CL   UNL     1     -42.824  57.513 -58.258  1.00  0.00    -0.084 Cl
HETATM   32  C   UNL     1     -42.571  55.945 -56.101  1.00  0.00     0.024 A 
HETATM   33  C   UNL     1     -42.887  55.492 -54.822  1.00  0.00     0.002 A 
HETATM   34  C   UNL     1     -43.908  56.106 -54.102  1.00  0.00     0.001 A 
HETATM   35  C   UNL     1     -44.617  57.169 -54.663  1.00  0.00     0.009 A 
ENDBRANCH  28  29
ENDBRANCH  27  28
ENDBRANCH  26  27
ENDBRANCH   6  26
TORSDOF 7
ENDMDL
MODEL 3
REMARK VINA RESULT:      -8.2      2.393      4.339
REMARK  7 active torsions:
REMARK  status: ('A' for Active; 'I' for Inactive)
REMARK    1  A    between atoms: C_5  and  C_6 
REMARK    2  A    between atoms: C_6  and  N_7 
REMARK       I    between atoms: N_7  and  C_8 
REMARK    3  A    between atoms: C_8  and  C_9 
REMARK    4  A    between atoms: C_14  and  C_15 
REMARK    5  A    between atoms: C_15  and  S_16 
REMARK    6  A    between atoms: S_16  and  C_17 
REMARK    7  A    between atoms: C_17  and  C_18 
ROOT
HETATM    1  C   UNL     1     -42.129  57.552 -52.137  1.00  0.00     0.034 A 
HETATM    2  C   UNL     1     -43.379  58.173 -52.221  1.00  0.00     0.048 A 
HETATM    3  C   UNL     1     -43.527  59.313 -53.008  1.00  0.00     0.057 A 
HETATM    4  C   UNL     1     -42.437  59.859 -53.712  1.00  0.00     0.036 A 
HETATM    5  N   UNL     1     -42.569  61.062 -54.429  1.00  0.00    -0.277 NA
HETATM    6  C   UNL     1     -43.941  61.312 -54.959  1.00  0.00     0.162 C 
HETATM    7  C   UNL     1     -45.020  61.014 -53.899  1.00  0.00     0.240 C 
HETATM    8  O   UNL     1     -46.083  61.626 -53.823  1.00  0.00    -0.271 OA
HETATM    9  N   UNL     1     -44.778  59.937 -53.078  1.00  0.00    -0.324 N 
HETATM   10  C   UNL     1     -41.178  59.272 -53.557  1.00  0.00     0.027 A 
HETATM   11  C   UNL     1     -41.024  58.111 -52.789  1.00  0.00     0.019 A 
HETATM   12  H   UNL     1     -41.834  61.214 -55.114  1.00  0.00     0.128 HD
HETATM   13  H   UNL     1     -45.527  59.670 -52.453  1.00  0.00     0.169 HD
ENDROOT
BRANCH   1  14
HETATM   14  C   UNL     1     -42.021  56.314 -51.321  1.00  0.00     0.252 C 
HETATM   15  N   UNL     1     -40.961  55.486 -51.608  1.00  0.00    -0.353 N 
HETATM   16  H   UNL     1     -40.319  55.704 -52.356  1.00  0.00     0.163 HD
HETATM   17  O   UNL     1     -42.878  56.062 -50.483  1.00  0.00    -0.268 OA
BRANCH  15  18
HETATM   18  C   UNL     1     -40.786  54.219 -50.930  1.00  0.00     0.161 C 
BRANCH  18  19
HETATM   19  C   UNL     1     -40.440  53.110 -51.893  1.00  0.00    -0.041 A 
HETATM   20  C   UNL     1     -39.815  51.943 -51.435  1.00  0.00     0.009 A 
HETATM   21  C   UNL     1     -39.542  50.888 -52.311  1.00  0.00     0.007 A 
HETATM   22  C   UNL     1     -39.889  50.980 -53.662  1.00  0.00    -0.062 A 
HETATM   23  C   UNL     1     -39.624  49.846 -54.608  1.00  0.00     0.048 C 
HETATM   24  C   UNL     1     -40.522  52.140 -54.123  1.00  0.00     0.007 A 
HETATM   25  C   UNL     1     -40.801  53.190 -53.246  1.00  0.00     0.009 A 
ENDBRANCH  18  19
ENDBRANCH  15  18
ENDBRANCH   1  14
BRANCH   6  26
HETATM   26  C   UNL     1     -44.163  60.445 -56.216  1.00  0.00     0.103 C 
BRANCH  26  27
HETATM   27  S   UNL     1     -43.028  60.816 -57.595  1.00  0.00    -0.162 SA
BRANCH  27  28
HETATM   28  C   UNL     1     -41.836  59.466 -57.324  1.00  0.00     0.114 C 
BRANCH  28  29
HETATM   29  C   UNL     1     -42.201  58.230 -58.106  1.00  0.00    -0.027 A 
HETATM   30  C   UNL     1     -42.740  57.082 -57.503  1.00  0.00     0.041 A 
HETATM   31 CL   UNL     1     -43.020  56.986 -55.799  1.00  0.00    -0.084 Cl
HETATM   32  C   UNL     1     -43.064  55.959 -58.272  1.00  0.00     0.024 A 
HETATM   33  C   UNL     1     -42.863  55.971 -59.651  1.00  0.00     0.002 A 
HETATM   34  C   UNL     1     -42.342  57.106 -60.266  1.00  0.00     0.001 A 
HETATM   35  C   UNL     1     -42.016  58.228 -59.502  1.00  0.00     0.009 A 
ENDBRANCH  28  29
ENDBRANCH  27  28
ENDBRANCH  26  27
ENDBRANCH   6  26
TORSDOF 7
ENDMDL
MODEL 4
REMARK VINA RESULT:      -8.1      2.234      4.265
REMARK  7 active torsions:
REMARK  status: ('A' for Active; 'I' for Inactive)
REMARK    1  A    between atoms: C_5  and  C_6 
REMARK    2  A    between atoms: C_6  and  N_7 
REMARK       I    between atoms: N_7  and  C_8 
REMARK    3  A    between atoms: C_8  and  C_9 
REMARK    4  A    between atoms: C_14  and  C_15 
REMARK    5  A    between atoms: C_15  and  S_16 
REMARK    6  A    between atoms: S_16  and  C_17 
REMARK    7  A    between atoms: C_17  and  C_18 
ROOT
HETATM    1  C   UNL     1     -43.536  56.678 -51.958  1.00  0.00     0.034 A 
HETATM    2  C   UNL     1     -43.963  56.440 -53.268  1.00  0.00     0.048 A 
HETATM    3  C   UNL     1     -44.579  57.462 -53.987  1.00  0.00     0.057 A 
HETATM    4  C   UNL     1     -44.791  58.730 -53.412  1.00  0.00     0.036 A 
HETATM    5  N   UNL     1     -45.496  59.730 -54.106  1.00  0.00    -0.277 NA
HETATM    6  C   UNL     1     -45.378  59.645 -55.591  1.00  0.00     0.162 C 
HETATM    7  C   UNL     1     -45.554  58.196 -56.090  1.00  0.00     0.240 C 
HETATM    8  O   UNL     1     -46.061  57.910 -57.172  1.00  0.00    -0.271 OA
HETATM    9  N   UNL     1     -45.015  57.214 -55.293  1.00  0.00    -0.324 N 
HETATM   10  C   UNL     1     -44.428  58.929 -52.076  1.00  0.00     0.027 A 
HETATM   11  C   UNL     1     -43.785  57.916 -51.355  1.00  0.00     0.019 A 
HETATM   12  H   UNL     1     -45.351  60.665 -53.739  1.00  0.00     0.128 HD
HETATM   13  H   UNL     1     -45.031  56.273 -55.665  1.00  0.00     0.169 HD
ENDROOT
BRANCH   1  14
HETATM   14  C   UNL     1     -42.845  55.574 -51.241  1.00  0.00     0.252 C 
HETATM   15  N   UNL     1     -41.484  55.489 -51.422  1.00  0.00    -0.353 N 
HETATM   16  H   UNL     1     -41.000  56.128 -52.036  1.00  0.00     0.163 HD
HETATM   17  O   UNL     1     -43.498  54.779 -50.576  1.00  0.00    -0.268 OA
BRANCH  15  18
HETATM   18  C   UNL     1     -40.708  54.419 -50.832  1.00  0.00     0.161 C 
BRANCH  18  19
HETATM   19  C   UNL     1     -40.488  53.284 -51.800  1.00  0.00    -0.041 A 
HETATM   20  C   UNL     1     -40.851  53.420 -53.146  1.00  0.00     0.009 A 
HETATM   21  C   UNL     1     -40.600  52.394 -54.061  1.00  0.00     0.007 A 
HETATM   22  C   UNL     1     -39.979  51.210 -53.648  1.00  0.00    -0.062 A 
HETATM   23  C   UNL     1     -39.681  50.111 -54.624  1.00  0.00     0.048 C 
HETATM   24  C   UNL     1     -39.606  51.073 -52.306  1.00  0.00     0.007 A 
HETATM   25  C   UNL     1     -39.851  52.102 -51.394  1.00  0.00     0.009 A 
ENDBRANCH  18  19
ENDBRANCH  15  18
ENDBRANCH   1  14
BRANCH   6  26
HETATM   26  C   UNL     1     -44.005  60.203 -56.021  1.00  0.00     0.103 C 
BRANCH  26  27
HETATM   27  S   UNL     1     -43.923  60.732 -57.764  1.00  0.00    -0.162 SA
BRANCH  27  28
HETATM   28  C   UNL     1     -42.490  59.732 -58.275  1.00  0.00     0.114 C 
BRANCH  28  29
HETATM   29  C   UNL     1     -42.903  58.365 -58.756  1.00  0.00    -0.027 A 
HETATM   30  C   UNL     1     -43.531  58.153 -59.994  1.00  0.00     0.041 A 
HETATM   31 CL   UNL     1     -43.896  59.456 -61.072  1.00  0.00    -0.084 Cl
HETATM   32  C   UNL     1     -43.895  56.864 -60.397  1.00  0.00     0.024 A 
HETATM   33  C   UNL     1     -43.629  55.770 -59.576  1.00  0.00     0.002 A 
HETATM   34  C   UNL     1     -42.994  55.961 -58.351  1.00  0.00     0.001 A 
HETATM   35  C   UNL     1     -42.632  57.246 -57.945  1.00  0.00     0.009 A 
ENDBRANCH  28  29
ENDBRANCH  27  28
ENDBRANCH  26  27
ENDBRANCH   6  26
TORSDOF 7
ENDMDL
MODEL 5
REMARK VINA RESULT:      -8.0      3.206      8.010
REMARK  7 active torsions:
REMARK  status: ('A' for Active; 'I' for Inactive)
REMARK    1  A    between atoms: C_5  and  C_6 
REMARK    2  A    between atoms: C_6  and  N_7 
REMARK       I    between atoms: N_7  and  C_8 
REMARK    3  A    between atoms: C_8  and  C_9 
REMARK    4  A    between atoms: C_14  and  C_15 
REMARK    5  A    between atoms: C_15  and  S_16 
REMARK    6  A    between atoms: S_16  and  C_17 
REMARK    7  A    between atoms: C_17  and  C_18 
ROOT
HETATM    1  C   UNL     1     -43.091  57.386 -55.726  1.00  0.00     0.034 A 
HETATM    2  C   UNL     1     -41.983  58.010 -55.143  1.00  0.00     0.048 A 
HETATM    3  C   UNL     1     -41.909  58.123 -53.757  1.00  0.00     0.057 A 
HETATM    4  C   UNL     1     -42.937  57.630 -52.930  1.00  0.00     0.036 A 
HETATM    5  N   UNL     1     -42.903  57.829 -51.538  1.00  0.00    -0.277 NA
HETATM    6  C   UNL     1     -41.529  57.924 -50.965  1.00  0.00     0.162 C 
HETATM    7  C   UNL     1     -40.622  58.833 -51.820  1.00  0.00     0.240 C 
HETATM    8  O   UNL     1     -39.722  59.526 -51.349  1.00  0.00    -0.271 OA
HETATM    9  N   UNL     1     -40.803  58.759 -53.181  1.00  0.00    -0.324 N 
HETATM   10  C   UNL     1     -44.073  57.078 -53.531  1.00  0.00     0.027 A 
HETATM   11  C   UNL     1     -44.145  56.938 -54.922  1.00  0.00     0.019 A 
HETATM   12  H   UNL     1     -43.518  57.209 -51.020  1.00  0.00     0.128 HD
HETATM   13  H   UNL     1     -40.143  59.270 -53.752  1.00  0.00     0.169 HD
ENDROOT
BRANCH   1  14
HETATM   14  C   UNL     1     -43.112  57.248 -57.206  1.00  0.00     0.252 C 
HETATM   15  N   UNL     1     -43.985  56.316 -57.718  1.00  0.00    -0.353 N 
HETATM   16  H   UNL     1     -44.549  55.742 -57.108  1.00  0.00     0.163 HD
HETATM   17  O   UNL     1     -42.344  57.913 -57.889  1.00  0.00    -0.268 OA
BRANCH  15  18
HETATM   18  C   UNL     1     -44.050  56.040 -59.137  1.00  0.00     0.161 C 
BRANCH  18  19
HETATM   19  C   UNL     1     -45.246  56.694 -59.782  1.00  0.00    -0.041 A 
HETATM   20  C   UNL     1     -45.315  58.088 -59.900  1.00  0.00     0.009 A 
HETATM   21  C   UNL     1     -46.394  58.699 -60.545  1.00  0.00     0.007 A 
HETATM   22  C   UNL     1     -47.426  57.926 -61.088  1.00  0.00    -0.062 A 
HETATM   23  C   UNL     1     -48.577  58.567 -61.805  1.00  0.00     0.048 C 
HETATM   24  C   UNL     1     -47.357  56.532 -60.983  1.00  0.00     0.007 A 
HETATM   25  C   UNL     1     -46.275  55.923 -60.343  1.00  0.00     0.009 A 
ENDBRANCH  18  19
ENDBRANCH  15  18
ENDBRANCH   1  14
BRANCH   6  26
HETATM   26  C   UNL     1     -40.927  56.507 -50.858  1.00  0.00     0.103 C 
BRANCH  26  27
HETATM   27  S   UNL     1     -42.014  55.290 -50.043  1.00  0.00    -0.162 SA
BRANCH  27  28
HETATM   28  C   UNL     1     -42.564  54.392 -51.528  1.00  0.00     0.114 C 
BRANCH  28  29
HETATM   29  C   UNL     1     -41.502  53.453 -52.041  1.00  0.00    -0.027 A 
HETATM   30  C   UNL     1     -41.322  53.185 -53.408  1.00  0.00     0.041 A 
HETATM   31 CL   UNL     1     -42.319  53.907 -54.624  1.00  0.00    -0.084 Cl
HETATM   32  C   UNL     1     -40.321  52.307 -53.836  1.00  0.00     0.024 A 
HETATM   33  C   UNL     1     -39.482  51.692 -52.908  1.00  0.00     0.002 A 
HETATM   34  C   UNL     1     -39.640  51.957 -51.550  1.00  0.00     0.001 A 
HETATM   35  C   UNL     1     -40.638  52.832 -51.120  1.00  0.00     0.009 A 
ENDBRANCH  28  29
ENDBRANCH  27  28
ENDBRANCH  26  27
ENDBRANCH   6  26
TORSDOF 7
ENDMDL
MODEL 6
REMARK VINA RESULT:      -7.9      2.902      7.362
REMARK  7 active torsions:
REMARK  status: ('A' for Active; 'I' for Inactive)
REMARK    1  A    between atoms: C_5  and  C_6 
REMARK    2  A    between atoms: C_6  and  N_7 
REMARK       I    between atoms: N_7  and  C_8 
REMARK    3  A    between atoms: C_8  and  C_9 
REMARK    4  A    between atoms: C_14  and  C_15 
REMARK    5  A    between atoms: C_15  and  S_16 
REMARK    6  A    between atoms: S_16  and  C_17 
REMARK    7  A    between atoms: C_17  and  C_18 
ROOT
HETATM    1  C   UNL     1     -44.311  59.353 -54.305  1.00  0.00     0.034 A 
HETATM    2  C   UNL     1     -42.946  59.582 -54.104  1.00  0.00     0.048 A 
HETATM    3  C   UNL     1     -42.366  59.244 -52.884  1.00  0.00     0.057 A 
HETATM    4  C   UNL     1     -43.132  58.686 -51.842  1.00  0.00     0.036 A 
HETATM    5  N   UNL     1     -42.563  58.434 -50.581  1.00  0.00    -0.277 NA
HETATM    6  C   UNL     1     -41.103  58.129 -50.617  1.00  0.00     0.162 C 
HETATM    7  C   UNL     1     -40.344  59.104 -51.539  1.00  0.00     0.240 C 
HETATM    8  O   UNL     1     -39.187  59.465 -51.336  1.00  0.00    -0.271 OA
HETATM    9  N   UNL     1     -41.002  59.488 -52.684  1.00  0.00    -0.324 N 
HETATM   10  C   UNL     1     -44.509  58.535 -52.032  1.00  0.00     0.027 A 
HETATM   11  C   UNL     1     -45.097  58.847 -53.264  1.00  0.00     0.019 A 
HETATM   12  H   UNL     1     -43.101  57.789 -50.010  1.00  0.00     0.128 HD
HETATM   13  H   UNL     1     -40.471  60.040 -53.345  1.00  0.00     0.169 HD
ENDROOT
BRANCH   1  14
HETATM   14  C   UNL     1     -44.883  59.687 -55.636  1.00  0.00     0.252 C 
HETATM   15  N   UNL     1     -45.872  58.853 -56.100  1.00  0.00    -0.353 N 
HETATM   16  H   UNL     1     -46.161  58.043 -55.570  1.00  0.00     0.163 HD
HETATM   17  O   UNL     1     -44.434  60.634 -56.270  1.00  0.00    -0.268 OA
BRANCH  15  18
HETATM   18  C   UNL     1     -46.461  59.033 -57.410  1.00  0.00     0.161 C 
BRANCH  18  19
HETATM   19  C   UNL     1     -46.080  57.921 -58.356  1.00  0.00    -0.041 A 
HETATM   20  C   UNL     1     -47.034  57.361 -59.214  1.00  0.00     0.009 A 
HETATM   21  C   UNL     1     -46.676  56.369 -60.132  1.00  0.00     0.007 A 
HETATM   22  C   UNL     1     -45.355  55.918 -60.209  1.00  0.00    -0.062 A 
HETATM   23  C   UNL     1     -44.951  54.872 -61.206  1.00  0.00     0.048 C 
HETATM   24  C   UNL     1     -44.395  56.481 -59.360  1.00  0.00     0.007 A 
HETATM   25  C   UNL     1     -44.752  57.477 -58.449  1.00  0.00     0.009 A 
ENDBRANCH  18  19
ENDBRANCH  15  18
ENDBRANCH   1  14
BRANCH   6  26
HETATM   26  C   UNL     1     -40.903  56.672 -51.087  1.00  0.00     0.103 C 
BRANCH  26  27
HETATM   27  S   UNL     1     -41.946  55.454 -50.219  1.00  0.00    -0.162 SA
BRANCH  27  28
HETATM   28  C   UNL     1     -42.894  54.851 -51.651  1.00  0.00     0.114 C 
BRANCH  28  29
HETATM   29  C   UNL     1     -41.997  54.262 -52.710  1.00  0.00    -0.027 A 
HETATM   30  C   UNL     1     -42.023  54.686 -54.049  1.00  0.00     0.041 A 
HETATM   31 CL   UNL     1     -43.101  55.921 -54.599  1.00  0.00    -0.084 Cl
HETATM   32  C   UNL     1     -41.169  54.109 -54.995  1.00  0.00     0.024 A 
HETATM   33  C   UNL     1     -40.275  53.109 -54.617  1.00  0.00     0.002 A 
HETATM   34  C   UNL     1     -40.228  52.687 -53.291  1.00  0.00     0.001 A 
HETATM   35  C   UNL     1     -41.079  53.259 -52.345  1.00  0.00     0.009 A 
ENDBRANCH  28  29
ENDBRANCH  27  28
ENDBRANCH  26  27
ENDBRANCH   6  26
TORSDOF 7
ENDMDL
MODEL 7
REMARK VINA RESULT:      -7.8      2.843      4.368
REMARK  7 active torsions:
REMARK  status: ('A' for Active; 'I' for Inactive)
REMARK    1  A    between atoms: C_5  and  C_6 
REMARK    2  A    between atoms: C_6  and  N_7 
REMARK       I    between atoms: N_7  and  C_8 
REMARK    3  A    between atoms: C_8  and  C_9 
REMARK    4  A    between atoms: C_14  and  C_15 
REMARK    5  A    between atoms: C_15  and  S_16 
REMARK    6  A    between atoms: S_16  and  C_17 
REMARK    7  A    between atoms: C_17  and  C_18 
ROOT
HETATM    1  C   UNL     1     -43.134  57.394 -54.323  1.00  0.00     0.034 A 
HETATM    2  C   UNL     1     -43.293  56.930 -55.633  1.00  0.00     0.048 A 
HETATM    3  C   UNL     1     -44.301  57.464 -56.433  1.00  0.00     0.057 A 
HETATM    4  C   UNL     1     -45.173  58.456 -55.942  1.00  0.00     0.036 A 
HETATM    5  N   UNL     1     -46.246  58.924 -56.720  1.00  0.00    -0.277 NA
HETATM    6  C   UNL     1     -46.007  58.869 -58.192  1.00  0.00     0.162 C 
HETATM    7  C   UNL     1     -45.379  57.524 -58.612  1.00  0.00     0.240 C 
HETATM    8  O   UNL     1     -45.596  56.985 -59.695  1.00  0.00    -0.271 OA
HETATM    9  N   UNL     1     -44.463  56.987 -57.739  1.00  0.00    -0.324 N 
HETATM   10  C   UNL     1     -45.050  58.853 -54.607  1.00  0.00     0.027 A 
HETATM   11  C   UNL     1     -44.024  58.342 -53.804  1.00  0.00     0.019 A 
HETATM   12  H   UNL     1     -46.627  59.811 -56.403  1.00  0.00     0.128 HD
HETATM   13  H   UNL     1     -43.968  56.163 -58.055  1.00  0.00     0.169 HD
ENDROOT
BRANCH   1  14
HETATM   14  C   UNL     1     -42.021  56.830 -53.517  1.00  0.00     0.252 C 
HETATM   15  N   UNL     1     -42.236  55.588 -52.967  1.00  0.00    -0.353 N 
HETATM   16  H   UNL     1     -43.119  55.112 -53.087  1.00  0.00     0.163 HD
HETATM   17  O   UNL     1     -41.005  57.490 -53.337  1.00  0.00    -0.268 OA
BRANCH  15  18
HETATM   18  C   UNL     1     -41.256  54.961 -52.106  1.00  0.00     0.161 C 
BRANCH  18  19
HETATM   19  C   UNL     1     -40.826  53.614 -52.632  1.00  0.00    -0.041 A 
HETATM   20  C   UNL     1     -41.182  53.211 -53.925  1.00  0.00     0.009 A 
HETATM   21  C   UNL     1     -40.740  51.989 -54.439  1.00  0.00     0.007 A 
HETATM   22  C   UNL     1     -39.932  51.145 -53.670  1.00  0.00    -0.062 A 
HETATM   23  C   UNL     1     -39.430  49.842 -54.219  1.00  0.00     0.048 C 
HETATM   24  C   UNL     1     -39.564  51.548 -52.381  1.00  0.00     0.007 A 
HETATM   25  C   UNL     1     -40.001  52.772 -51.871  1.00  0.00     0.009 A 
ENDBRANCH  18  19
ENDBRANCH  15  18
ENDBRANCH   1  14
BRANCH   6  26
HETATM   26  C   UNL     1     -45.094  60.044 -58.600  1.00  0.00     0.103 C 
BRANCH  26  27
HETATM   27  S   UNL     1     -44.624  60.051 -60.363  1.00  0.00    -0.162 SA
BRANCH  27  28
HETATM   28  C   UNL     1     -42.904  59.484 -60.178  1.00  0.00     0.114 C 
BRANCH  28  29
HETATM   29  C   UNL     1     -41.959  60.630 -59.921  1.00  0.00    -0.027 A 
HETATM   30  C   UNL     1     -41.448  60.922 -58.646  1.00  0.00     0.041 A 
HETATM   31 CL   UNL     1     -41.872  59.989 -57.252  1.00  0.00    -0.084 Cl
HETATM   32  C   UNL     1     -40.573  61.997 -58.458  1.00  0.00     0.024 A 
HETATM   33  C   UNL     1     -40.190  62.788 -59.540  1.00  0.00     0.002 A 
HETATM   34  C   UNL     1     -40.678  62.504 -60.813  1.00  0.00     0.001 A 
HETATM   35  C   UNL     1     -41.553  61.434 -61.003  1.00  0.00     0.009 A 
ENDBRANCH  28  29
ENDBRANCH  27  28
ENDBRANCH  26  27
ENDBRANCH   6  26
TORSDOF 7
ENDMDL
MODEL 8
REMARK VINA RESULT:      -7.7      2.552      4.940
REMARK  7 active torsions:
REMARK  status: ('A' for Active; 'I' for Inactive)
REMARK    1  A    between atoms: C_5  and  C_6 
REMARK    2  A    between atoms: C_6  and  N_7 
REMARK       I    between atoms: N_7  and  C_8 
REMARK    3  A    between atoms: C_8  and  C_9 
REMARK    4  A    between atoms: C_14  and  C_15 
REMARK    5  A    between atoms: C_15  and  S_16 
REMARK    6  A    between atoms: S_16  and  C_17 
REMARK    7  A    between atoms: C_17  and  C_18 
ROOT
HETATM    1  C   UNL     1     -42.261  57.504 -52.688  1.00  0.00     0.034 A 
HETATM    2  C   UNL     1     -43.515  58.011 -53.045  1.00  0.00     0.048 A 
HETATM    3  C   UNL     1     -43.593  59.121 -53.883  1.00  0.00     0.057 A 
HETATM    4  C   UNL     1     -42.430  59.751 -54.368  1.00  0.00     0.036 A 
HETATM    5  N   UNL     1     -42.511  60.927 -55.135  1.00  0.00    -0.277 NA
HETATM    6  C   UNL     1     -43.761  61.047 -55.942  1.00  0.00     0.162 C 
HETATM    7  C   UNL     1     -45.006  60.670 -55.115  1.00  0.00     0.240 C 
HETATM    8  O   UNL     1     -46.109  61.187 -55.278  1.00  0.00    -0.271 OA
HETATM    9  N   UNL     1     -44.850  59.631 -54.228  1.00  0.00    -0.324 N 
HETATM   10  C   UNL     1     -41.185  59.280 -53.939  1.00  0.00     0.027 A 
HETATM   11  C   UNL     1     -41.097  58.149 -53.118  1.00  0.00     0.019 A 
HETATM   12  H   UNL     1     -41.667  61.134 -55.660  1.00  0.00     0.128 HD
HETATM   13  H   UNL     1     -45.687  59.308 -53.760  1.00  0.00     0.169 HD
ENDROOT
BRANCH   1  14
HETATM   14  C   UNL     1     -42.222  56.293 -51.827  1.00  0.00     0.252 C 
HETATM   15  N   UNL     1     -41.044  55.582 -51.831  1.00  0.00    -0.353 N 
HETATM   16  H   UNL     1     -40.270  55.861 -52.417  1.00  0.00     0.163 HD
HETATM   17  O   UNL     1     -43.221  55.957 -51.203  1.00  0.00    -0.268 OA
BRANCH  15  18
HETATM   18  C   UNL     1     -40.903  54.347 -51.088  1.00  0.00     0.161 C 
BRANCH  18  19
HETATM   19  C   UNL     1     -40.501  53.198 -51.978  1.00  0.00    -0.041 A 
HETATM   20  C   UNL     1     -39.867  52.072 -51.439  1.00  0.00     0.009 A 
HETATM   21  C   UNL     1     -39.541  50.979 -52.248  1.00  0.00     0.007 A 
HETATM   22  C   UNL     1     -39.845  50.992 -53.613  1.00  0.00    -0.062 A 
HETATM   23  C   UNL     1     -39.524  49.816 -54.488  1.00  0.00     0.048 C 
HETATM   24  C   UNL     1     -40.488  52.110 -54.155  1.00  0.00     0.007 A 
HETATM   25  C   UNL     1     -40.819  53.198 -53.345  1.00  0.00     0.009 A 
ENDBRANCH  18  19
ENDBRANCH  15  18
ENDBRANCH   1  14
BRANCH   6  26
HETATM   26  C   UNL     1     -43.646  60.144 -57.189  1.00  0.00     0.103 C 
BRANCH  26  27
HETATM   27  S   UNL     1     -44.950  60.417 -58.435  1.00  0.00    -0.162 SA
BRANCH  27  28
HETATM   28  C   UNL     1     -44.143  59.592 -59.843  1.00  0.00     0.114 C 
BRANCH  28  29
HETATM   29  C   UNL     1     -44.539  58.141 -59.945  1.00  0.00    -0.027 A 
HETATM   30  C   UNL     1     -43.604  57.110 -60.132  1.00  0.00     0.041 A 
HETATM   31 CL   UNL     1     -41.909  57.424 -60.272  1.00  0.00    -0.084 Cl
HETATM   32  C   UNL     1     -44.020  55.777 -60.218  1.00  0.00     0.024 A 
HETATM   33  C   UNL     1     -45.372  55.456 -60.113  1.00  0.00     0.002 A 
HETATM   34  C   UNL     1     -46.311  56.465 -59.914  1.00  0.00     0.001 A 
HETATM   35  C   UNL     1     -45.899  57.795 -59.829  1.00  0.00     0.009 A 
ENDBRANCH  28  29
ENDBRANCH  27  28
ENDBRANCH  26  27
ENDBRANCH   6  26
TORSDOF 7
ENDMDL
MODEL 9
REMARK VINA RESULT:      -7.7      2.385      4.333
REMARK  7 active torsions:
REMARK  status: ('A' for Active; 'I' for Inactive)
REMARK    1  A    between atoms: C_5  and  C_6 
REMARK    2  A    between atoms: C_6  and  N_7 
REMARK       I    between atoms: N_7  and  C_8 
REMARK    3  A    between atoms: C_8  and  C_9 
REMARK    4  A    between atoms: C_14  and  C_15 
REMARK    5  A    between atoms: C_15  and  S_16 
REMARK    6  A    between atoms: S_16  and  C_17 
REMARK    7  A    between atoms: C_17  and  C_18 
ROOT
HETATM    1  C   UNL     1     -42.338  56.914 -54.186  1.00  0.00     0.034 A 
HETATM    2  C   UNL     1     -43.404  56.812 -53.286  1.00  0.00     0.048 A 
HETATM    3  C   UNL     1     -43.860  57.953 -52.629  1.00  0.00     0.057 A 
HETATM    4  C   UNL     1     -43.258  59.207 -52.845  1.00  0.00     0.036 A 
HETATM    5  N   UNL     1     -43.659  60.338 -52.111  1.00  0.00    -0.277 NA
HETATM    6  C   UNL     1     -45.086  60.311 -51.676  1.00  0.00     0.162 C 
HETATM    7  C   UNL     1     -45.476  58.935 -51.100  1.00  0.00     0.240 C 
HETATM    8  O   UNL     1     -46.301  58.785 -50.201  1.00  0.00    -0.271 OA
HETATM    9  N   UNL     1     -44.920  57.841 -51.721  1.00  0.00    -0.324 N 
HETATM   10  C   UNL     1     -42.145  59.279 -53.688  1.00  0.00     0.027 A 
HETATM   11  C   UNL     1     -41.696  58.144 -54.373  1.00  0.00     0.019 A 
HETATM   12  H   UNL     1     -43.377  61.220 -52.528  1.00  0.00     0.128 HD
HETATM   13  H   UNL     1     -45.252  56.934 -51.421  1.00  0.00     0.169 HD
ENDROOT
BRANCH   1  14
HETATM   14  C   UNL     1     -41.909  55.682 -54.898  1.00  0.00     0.252 C 
HETATM   15  N   UNL     1     -40.978  54.900 -54.255  1.00  0.00    -0.353 N 
HETATM   16  H   UNL     1     -40.593  55.178 -53.363  1.00  0.00     0.163 HD
HETATM   17  O   UNL     1     -42.350  55.441 -56.015  1.00  0.00    -0.268 OA
BRANCH  15  18
HETATM   18  C   UNL     1     -40.431  53.712 -54.873  1.00  0.00     0.161 C 
BRANCH  18  19
HETATM   19  C   UNL     1     -40.124  52.640 -53.858  1.00  0.00    -0.041 A 
HETATM   20  C   UNL     1     -40.079  52.949 -52.492  1.00  0.00     0.009 A 
HETATM   21  C   UNL     1     -39.850  51.950 -51.541  1.00  0.00     0.007 A 
HETATM   22  C   UNL     1     -39.663  50.622 -51.937  1.00  0.00    -0.062 A 
HETATM   23  C   UNL     1     -39.442  49.537 -50.925  1.00  0.00     0.048 C 
HETATM   24  C   UNL     1     -39.717  50.306 -53.299  1.00  0.00     0.007 A 
HETATM   25  C   UNL     1     -39.952  51.303 -54.249  1.00  0.00     0.009 A 
ENDBRANCH  18  19
ENDBRANCH  15  18
ENDBRANCH   1  14
BRANCH   6  26
HETATM   26  C   UNL     1     -45.987  60.671 -52.876  1.00  0.00     0.103 C 
BRANCH  26  27
HETATM   27  S   UNL     1     -45.301  61.960 -53.969  1.00  0.00    -0.162 SA
BRANCH  27  28
HETATM   28  C   UNL     1     -46.014  61.379 -55.540  1.00  0.00     0.114 C 
BRANCH  28  29
HETATM   29  C   UNL     1     -45.125  60.370 -56.221  1.00  0.00    -0.027 A 
HETATM   30  C   UNL     1     -43.959  60.732 -56.915  1.00  0.00     0.041 A 
HETATM   31 CL   UNL     1     -43.449  62.379 -57.056  1.00  0.00    -0.084 Cl
HETATM   32  C   UNL     1     -43.164  59.759 -57.529  1.00  0.00     0.024 A 
HETATM   33  C   UNL     1     -43.518  58.413 -57.453  1.00  0.00     0.002 A 
HETATM   34  C   UNL     1     -44.664  58.036 -56.758  1.00  0.00     0.001 A 
HETATM   35  C   UNL     1     -45.459  59.005 -56.144  1.00  0.00     0.009 A 
ENDBRANCH  28  29
ENDBRANCH  27  28
ENDBRANCH  26  27
ENDBRANCH   6  26
TORSDOF 7
ENDMDL
MODEL 10
REMARK VINA RESULT:      -7.6     16.703     19.941
REMARK  7 active torsions:
REMARK  status: ('A' for Active; 'I' for Inactive)
REMARK    1  A    between atoms: C_5  and  C_6 
REMARK    2  A    between atoms: C_6  and  N_7 
REMARK       I    between atoms: N_7  and  C_8 
REMARK    3  A    between atoms: C_8  and  C_9 
REMARK    4  A    between atoms: C_14  and  C_15 
REMARK    5  A    between atoms: C_15  and  S_16 
REMARK    6  A    between atoms: S_16  and  C_17 
REMARK    7  A    between atoms: C_17  and  C_18 
ROOT
HETATM    1  C   UNL     1     -35.780  41.180 -52.741  1.00  0.00     0.034 A 
HETATM    2  C   UNL     1     -34.455  41.207 -52.295  1.00  0.00     0.048 A 
HETATM    3  C   UNL     1     -34.059  40.354 -51.267  1.00  0.00     0.057 A 
HETATM    4  C   UNL     1     -34.973  39.473 -50.659  1.00  0.00     0.036 A 
HETATM    5  N   UNL     1     -34.593  38.682 -49.560  1.00  0.00    -0.277 NA
HETATM    6  C   UNL     1     -33.147  38.314 -49.540  1.00  0.00     0.162 C 
HETATM    7  C   UNL     1     -32.251  39.526 -49.866  1.00  0.00     0.240 C 
HETATM    8  O   UNL     1     -31.130  39.687 -49.390  1.00  0.00    -0.271 OA
HETATM    9  N   UNL     1     -32.734  40.395 -50.817  1.00  0.00    -0.324 N 
HETATM   10  C   UNL     1     -36.311  39.512 -51.063  1.00  0.00     0.027 A 
HETATM   11  C   UNL     1     -36.713  40.347 -52.113  1.00  0.00     0.019 A 
HETATM   12  H   UNL     1     -35.215  37.899 -49.383  1.00  0.00     0.128 HD
HETATM   13  H   UNL     1     -32.107  41.131 -51.115  1.00  0.00     0.169 HD
ENDROOT
BRANCH   1  14
HETATM   14  C   UNL     1     -36.152  42.074 -53.868  1.00  0.00     0.252 C 
HETATM   15  N   UNL     1     -37.146  41.620 -54.704  1.00  0.00    -0.353 N 
HETATM   16  H   UNL     1     -37.567  40.712 -54.565  1.00  0.00     0.163 HD
HETATM   17  O   UNL     1     -35.548  43.127 -54.034  1.00  0.00    -0.268 OA
BRANCH  15  18
HETATM   18  C   UNL     1     -37.551  42.367 -55.875  1.00  0.00     0.161 C 
BRANCH  18  19
HETATM   19  C   UNL     1     -37.534  41.515 -57.119  1.00  0.00    -0.041 A 
HETATM   20  C   UNL     1     -38.033  40.207 -57.090  1.00  0.00     0.009 A 
HETATM   21  C   UNL     1     -38.072  39.430 -58.251  1.00  0.00     0.007 A 
HETATM   22  C   UNL     1     -37.612  39.948 -59.467  1.00  0.00    -0.062 A 
HETATM   23  C   UNL     1     -37.671  39.134 -60.726  1.00  0.00     0.048 C 
HETATM   24  C   UNL     1     -37.122  41.258 -59.504  1.00  0.00     0.007 A 
HETATM   25  C   UNL     1     -37.090  42.035 -58.344  1.00  0.00     0.009 A 
ENDBRANCH  18  19
ENDBRANCH  15  18
ENDBRANCH   1  14
BRANCH   6  26
HETATM   26  C   UNL     1     -32.902  37.172 -50.549  1.00  0.00     0.103 C 
BRANCH  26  27
HETATM   27  S   UNL     1     -31.958  37.669 -52.028  1.00  0.00    -0.162 SA
BRANCH  27  28
HETATM   28  C   UNL     1     -33.245  37.358 -53.277  1.00  0.00     0.114 C 
BRANCH  28  29
HETATM   29  C   UNL     1     -33.280  38.439 -54.327  1.00  0.00    -0.027 A 
HETATM   30  C   UNL     1     -34.424  38.716 -55.094  1.00  0.00     0.041 A 
HETATM   31 CL   UNL     1     -35.894  37.825 -54.903  1.00  0.00    -0.084 Cl
HETATM   32  C   UNL     1     -34.408  39.731 -56.056  1.00  0.00     0.024 A 
HETATM   33  C   UNL     1     -33.255  40.487 -56.260  1.00  0.00     0.002 A 
HETATM   34  C   UNL     1     -32.117  40.234 -55.500  1.00  0.00     0.001 A 
HETATM   35  C   UNL     1     -32.129  39.221 -54.540  1.00  0.00     0.009 A 
ENDBRANCH  28  29
ENDBRANCH  27  28
ENDBRANCH  26  27
ENDBRANCH   6  26
TORSDOF 7
ENDMDL
