MODEL 1
REMARK VINA RESULT:      -8.0      0.000      0.000
REMARK  8 active torsions:
REMARK  status: ('A' for Active; 'I' for Inactive)
REMARK    1  A    between atoms: O_2  and  C_3 
REMARK    2  A    between atoms: C_4  and  O_5 
REMARK    3  A    between atoms: C_8  and  C_9 
REMARK    4  A    between atoms: C_9  and  C_10 
REMARK    5  A    between atoms: C_10  and  N_11 
REMARK       I    between atoms: N_11  and  C_12 
REMARK    6  A    between atoms: C_12  and  C_13 
REMARK    7  A    between atoms: C_14  and  N_15 
REMARK       I    between atoms: N_15  and  C_16 
REMARK    8  A    between atoms: C_16  and  C_17 
ROOT
HETATM    1  C   UNL     1     -40.429  52.944 -53.360  1.00  0.00     0.058 A 
HETATM    2  C   UNL     1     -40.515  53.466 -52.055  1.00  0.00     0.050 A 
HETATM    3  C   UNL     1     -40.176  52.629 -50.976  1.00  0.00     0.030 A 
HETATM    4  C   UNL     1     -39.680  51.339 -51.185  1.00  0.00     0.002 A 
HETATM    5  C   UNL     1     -39.527  50.857 -52.478  1.00  0.00     0.001 A 
HETATM    6  C   UNL     1     -39.908  51.651 -53.559  1.00  0.00     0.019 A 
ENDROOT
BRANCH   1   7
HETATM    7  C   UNL     1     -40.994  53.572 -54.586  1.00  0.00     0.253 C 
HETATM    8  N   UNL     1     -42.372  53.567 -54.681  1.00  0.00    -0.356 N 
HETATM    9  H   UNL     1     -42.911  53.272 -53.879  1.00  0.00     0.162 HD
HETATM   10  O   UNL     1     -40.252  53.952 -55.485  1.00  0.00    -0.268 OA
BRANCH   8  11
HETATM   11  C   UNL     1     -43.047  54.256 -55.762  1.00  0.00     0.127 C 
BRANCH  11  12
HETATM   12  C   UNL     1     -43.014  55.780 -55.610  1.00  0.00     0.058 C 
BRANCH  12  13
HETATM   13  C   UNL     1     -42.808  56.458 -56.944  1.00  0.00    -0.054 A 
HETATM   14  C   UNL     1     -43.194  55.826 -58.136  1.00  0.00     0.046 A 
HETATM   15  C   UNL     1     -43.045  56.473 -59.369  1.00  0.00     0.102 A 
HETATM   16  C   UNL     1     -42.512  57.773 -59.405  1.00  0.00     0.101 A 
HETATM   17  C   UNL     1     -42.106  58.396 -58.220  1.00  0.00     0.040 A 
HETATM   18  C   UNL     1     -42.262  57.745 -56.997  1.00  0.00     0.010 A 
BRANCH  15  19
HETATM   19  O   UNL     1     -43.401  55.934 -60.581  1.00  0.00    -0.353 OA
HETATM   20  C   UNL     1     -44.656  55.275 -60.663  1.00  0.00     0.210 C 
ENDBRANCH  15  19
BRANCH  16  21
HETATM   21  O   UNL     1     -42.372  58.360 -60.640  1.00  0.00    -0.353 OA
HETATM   22  C   UNL     1     -42.019  59.739 -60.610  1.00  0.00     0.210 C 
ENDBRANCH  16  21
ENDBRANCH  12  13
ENDBRANCH  11  12
ENDBRANCH   8  11
ENDBRANCH   1   7
BRANCH   2  23
HETATM   23  N   UNL     1     -40.888  54.782 -51.688  1.00  0.00    -0.320 N 
HETATM   24  C   UNL     1     -42.169  55.303 -51.698  1.00  0.00     0.280 C 
HETATM   25  O   UNL     1     -43.202  54.700 -51.952  1.00  0.00    -0.265 OA
HETATM   26  H   UNL     1     -40.162  55.492 -51.714  1.00  0.00     0.169 HD
BRANCH  24  27
HETATM   27  C   UNL     1     -42.160  56.791 -51.431  1.00  0.00     0.143 C 
HETATM   28  O   UNL     1     -40.950  57.350 -51.044  1.00  0.00    -0.345 OA
HETATM   29  C   UNL     1     -41.010  58.694 -50.551  1.00  0.00     0.186 C 
HETATM   30  C   UNL     1     -41.763  59.633 -51.477  1.00  0.00     0.105 C 
HETATM   31  S   UNL     1     -43.512  59.160 -51.464  1.00  0.00    -0.136 SA
HETATM   32  C   UNL     1     -43.320  57.446 -51.626  1.00  0.00     0.087 C 
ENDBRANCH  24  27
ENDBRANCH   2  23
TORSDOF 8
ENDMDL
MODEL 2
REMARK VINA RESULT:      -7.8      2.497      7.253
REMARK  8 active torsions:
REMARK  status: ('A' for Active; 'I' for Inactive)
REMARK    1  A    between atoms: O_2  and  C_3 
REMARK    2  A    between atoms: C_4  and  O_5 
REMARK    3  A    between atoms: C_8  and  C_9 
REMARK    4  A    between atoms: C_9  and  C_10 
REMARK    5  A    between atoms: C_10  and  N_11 
REMARK       I    between atoms: N_11  and  C_12 
REMARK    6  A    between atoms: C_12  and  C_13 
REMARK    7  A    between atoms: C_14  and  N_15 
REMARK       I    between atoms: N_15  and  C_16 
REMARK    8  A    between atoms: C_16  and  C_17 
ROOT
HETATM    1  C   UNL     1     -42.817  56.537 -56.490  1.00  0.00     0.058 A 
HETATM    2  C   UNL     1     -43.443  57.793 -56.383  1.00  0.00     0.050 A 
HETATM    3  C   UNL     1     -44.134  58.294 -57.502  1.00  0.00     0.030 A 
HETATM    4  C   UNL     1     -44.280  57.534 -58.666  1.00  0.00     0.002 A 
HETATM    5  C   UNL     1     -43.723  56.264 -58.738  1.00  0.00     0.001 A 
HETATM    6  C   UNL     1     -42.988  55.772 -57.661  1.00  0.00     0.019 A 
ENDROOT
BRANCH   1   7
HETATM    7  C   UNL     1     -41.829  55.973 -55.529  1.00  0.00     0.253 C 
HETATM    8  N   UNL     1     -41.319  54.731 -55.854  1.00  0.00    -0.356 N 
HETATM    9  H   UNL     1     -41.531  54.344 -56.763  1.00  0.00     0.162 HD
HETATM   10  O   UNL     1     -41.596  56.549 -54.472  1.00  0.00    -0.268 OA
BRANCH   8  11
HETATM   11  C   UNL     1     -40.260  54.132 -55.068  1.00  0.00     0.127 C 
BRANCH  11  12
HETATM   12  C   UNL     1     -40.728  52.915 -54.265  1.00  0.00     0.058 C 
BRANCH  12  13
HETATM   13  C   UNL     1     -40.899  53.255 -52.804  1.00  0.00    -0.054 A 
HETATM   14  C   UNL     1     -42.044  53.933 -52.356  1.00  0.00     0.046 A 
HETATM   15  C   UNL     1     -42.224  54.208 -50.994  1.00  0.00     0.102 A 
HETATM   16  C   UNL     1     -41.249  53.791 -50.072  1.00  0.00     0.101 A 
HETATM   17  C   UNL     1     -40.097  53.136 -50.519  1.00  0.00     0.040 A 
HETATM   18  C   UNL     1     -39.928  52.863 -51.877  1.00  0.00     0.010 A 
BRANCH  15  19
HETATM   19  O   UNL     1     -43.313  54.858 -50.468  1.00  0.00    -0.353 OA
HETATM   20  C   UNL     1     -43.707  56.078 -51.077  1.00  0.00     0.210 C 
ENDBRANCH  15  19
BRANCH  16  21
HETATM   21  O   UNL     1     -41.463  54.098 -48.749  1.00  0.00    -0.353 OA
HETATM   22  C   UNL     1     -40.314  53.996 -47.917  1.00  0.00     0.210 C 
ENDBRANCH  16  21
ENDBRANCH  12  13
ENDBRANCH  11  12
ENDBRANCH   8  11
ENDBRANCH   1   7
BRANCH   2  23
HETATM   23  N   UNL     1     -43.484  58.629 -55.241  1.00  0.00    -0.320 N 
HETATM   24  C   UNL     1     -42.592  59.641 -54.934  1.00  0.00     0.280 C 
HETATM   25  O   UNL     1     -41.666  60.035 -55.629  1.00  0.00    -0.265 OA
HETATM   26  H   UNL     1     -43.999  58.286 -54.436  1.00  0.00     0.169 HD
BRANCH  24  27
HETATM   27  C   UNL     1     -42.836  60.187 -53.546  1.00  0.00     0.143 C 
HETATM   28  O   UNL     1     -42.728  59.290 -52.493  1.00  0.00    -0.345 OA
HETATM   29  C   UNL     1     -43.208  59.752 -51.224  1.00  0.00     0.186 C 
HETATM   30  C   UNL     1     -42.643  61.108 -50.834  1.00  0.00     0.105 C 
HETATM   31  S   UNL     1     -43.328  62.351 -51.960  1.00  0.00    -0.136 SA
HETATM   32  C   UNL     1     -43.103  61.503 -53.453  1.00  0.00     0.087 C 
ENDBRANCH  24  27
ENDBRANCH   2  23
TORSDOF 8
ENDMDL
MODEL 3
REMARK VINA RESULT:      -7.6      1.104      2.040
REMARK  8 active torsions:
REMARK  status: ('A' for Active; 'I' for Inactive)
REMARK    1  A    between atoms: O_2  and  C_3 
REMARK    2  A    between atoms: C_4  and  O_5 
REMARK    3  A    between atoms: C_8  and  C_9 
REMARK    4  A    between atoms: C_9  and  C_10 
REMARK    5  A    between atoms: C_10  and  N_11 
REMARK       I    between atoms: N_11  and  C_12 
REMARK    6  A    between atoms: C_12  and  C_13 
REMARK    7  A    between atoms: C_14  and  N_15 
REMARK       I    between atoms: N_15  and  C_16 
REMARK    8  A    between atoms: C_16  and  C_17 
ROOT
HETATM    1  C   UNL     1     -40.402  53.106 -53.355  1.00  0.00     0.058 A 
HETATM    2  C   UNL     1     -40.506  53.589 -52.037  1.00  0.00     0.050 A 
HETATM    3  C   UNL     1     -40.208  52.711 -50.978  1.00  0.00     0.030 A 
HETATM    4  C   UNL     1     -39.733  51.419 -51.217  1.00  0.00     0.002 A 
HETATM    5  C   UNL     1     -39.561  50.975 -52.521  1.00  0.00     0.001 A 
HETATM    6  C   UNL     1     -39.902  51.809 -53.584  1.00  0.00     0.019 A 
ENDROOT
BRANCH   1   7
HETATM    7  C   UNL     1     -40.927  53.783 -54.573  1.00  0.00     0.253 C 
HETATM    8  N   UNL     1     -42.299  53.750 -54.732  1.00  0.00    -0.356 N 
HETATM    9  H   UNL     1     -42.865  53.401 -53.971  1.00  0.00     0.162 HD
HETATM   10  O   UNL     1     -40.156  54.228 -55.415  1.00  0.00    -0.268 OA
BRANCH   8  11
HETATM   11  C   UNL     1     -42.942  54.478 -55.806  1.00  0.00     0.127 C 
BRANCH  11  12
HETATM   12  C   UNL     1     -43.290  55.920 -55.424  1.00  0.00     0.058 C 
BRANCH  12  13
HETATM   13  C   UNL     1     -42.920  56.883 -56.527  1.00  0.00    -0.054 A 
HETATM   14  C   UNL     1     -42.476  58.180 -56.225  1.00  0.00     0.046 A 
HETATM   15  C   UNL     1     -42.089  59.059 -57.245  1.00  0.00     0.102 A 
HETATM   16  C   UNL     1     -42.140  58.628 -58.582  1.00  0.00     0.101 A 
HETATM   17  C   UNL     1     -42.604  57.344 -58.886  1.00  0.00     0.040 A 
HETATM   18  C   UNL     1     -42.983  56.475 -57.863  1.00  0.00     0.010 A 
BRANCH  15  19
HETATM   19  O   UNL     1     -41.637  60.339 -57.042  1.00  0.00    -0.353 OA
HETATM   20  C   UNL     1     -42.574  61.301 -56.581  1.00  0.00     0.210 C 
ENDBRANCH  15  19
BRANCH  16  21
HETATM   21  O   UNL     1     -41.766  59.531 -59.548  1.00  0.00    -0.353 OA
HETATM   22  C   UNL     1     -42.483  59.429 -60.773  1.00  0.00     0.210 C 
ENDBRANCH  16  21
ENDBRANCH  12  13
ENDBRANCH  11  12
ENDBRANCH   8  11
ENDBRANCH   1   7
BRANCH   2  23
HETATM   23  N   UNL     1     -40.862  54.899 -51.636  1.00  0.00    -0.320 N 
HETATM   24  C   UNL     1     -42.134  55.442 -51.646  1.00  0.00     0.280 C 
HETATM   25  O   UNL     1     -43.174  54.864 -51.929  1.00  0.00    -0.265 OA
HETATM   26  H   UNL     1     -40.124  55.597 -51.633  1.00  0.00     0.169 HD
BRANCH  24  27
HETATM   27  C   UNL     1     -42.103  56.922 -51.336  1.00  0.00     0.143 C 
HETATM   28  O   UNL     1     -40.895  57.444 -50.897  1.00  0.00    -0.345 OA
HETATM   29  C   UNL     1     -40.942  58.774 -50.367  1.00  0.00     0.186 C 
HETATM   30  C   UNL     1     -41.648  59.755 -51.288  1.00  0.00     0.105 C 
HETATM   31  S   UNL     1     -43.405  59.318 -51.340  1.00  0.00    -0.136 SA
HETATM   32  C   UNL     1     -43.243  57.606 -51.546  1.00  0.00     0.087 C 
ENDBRANCH  24  27
ENDBRANCH   2  23
TORSDOF 8
ENDMDL
MODEL 4
REMARK VINA RESULT:      -7.6      2.502      6.100
REMARK  8 active torsions:
REMARK  status: ('A' for Active; 'I' for Inactive)
REMARK    1  A    between atoms: O_2  and  C_3 
REMARK    2  A    between atoms: C_4  and  O_5 
REMARK    3  A    between atoms: C_8  and  C_9 
REMARK    4  A    between atoms: C_9  and  C_10 
REMARK    5  A    between atoms: C_10  and  N_11 
REMARK       I    between atoms: N_11  and  C_12 
REMARK    6  A    between atoms: C_12  and  C_13 
REMARK    7  A    between atoms: C_14  and  N_15 
REMARK       I    between atoms: N_15  and  C_16 
REMARK    8  A    between atoms: C_16  and  C_17 
ROOT
HETATM    1  C   UNL     1     -41.156  54.164 -52.797  1.00  0.00     0.058 A 
HETATM    2  C   UNL     1     -40.973  54.043 -54.187  1.00  0.00     0.050 A 
HETATM    3  C   UNL     1     -40.214  52.961 -54.670  1.00  0.00     0.030 A 
HETATM    4  C   UNL     1     -39.725  51.975 -53.809  1.00  0.00     0.002 A 
HETATM    5  C   UNL     1     -39.974  52.060 -52.446  1.00  0.00     0.001 A 
HETATM    6  C   UNL     1     -40.677  53.153 -51.941  1.00  0.00     0.019 A 
ENDROOT
BRANCH   1   7
HETATM    7  C   UNL     1     -41.684  55.364 -52.090  1.00  0.00     0.253 C 
HETATM    8  N   UNL     1     -40.956  55.783 -50.994  1.00  0.00    -0.356 N 
HETATM    9  H   UNL     1     -40.059  55.352 -50.817  1.00  0.00     0.162 HD
HETATM   10  O   UNL     1     -42.761  55.851 -52.418  1.00  0.00    -0.268 OA
BRANCH   8  11
HETATM   11  C   UNL     1     -41.294  57.008 -50.299  1.00  0.00     0.127 C 
BRANCH  11  12
HETATM   12  C   UNL     1     -40.443  58.201 -50.746  1.00  0.00     0.058 C 
BRANCH  12  13
HETATM   13  C   UNL     1     -41.173  59.044 -51.763  1.00  0.00    -0.054 A 
HETATM   14  C   UNL     1     -42.061  60.051 -51.354  1.00  0.00     0.046 A 
HETATM   15  C   UNL     1     -42.704  60.864 -52.296  1.00  0.00     0.102 A 
HETATM   16  C   UNL     1     -42.446  60.670 -53.664  1.00  0.00     0.101 A 
HETATM   17  C   UNL     1     -41.579  59.652 -54.075  1.00  0.00     0.040 A 
HETATM   18  C   UNL     1     -40.940  58.850 -53.129  1.00  0.00     0.010 A 
BRANCH  15  19
HETATM   19  O   UNL     1     -43.580  61.874 -51.985  1.00  0.00    -0.353 OA
HETATM   20  C   UNL     1     -43.222  62.753 -50.930  1.00  0.00     0.210 C 
ENDBRANCH  15  19
BRANCH  16  21
HETATM   21  O   UNL     1     -43.113  61.482 -54.550  1.00  0.00    -0.353 OA
HETATM   22  C   UNL     1     -44.082  60.821 -55.355  1.00  0.00     0.210 C 
ENDBRANCH  16  21
ENDBRANCH  12  13
ENDBRANCH  11  12
ENDBRANCH   8  11
ENDBRANCH   1   7
BRANCH   2  23
HETATM   23  N   UNL     1     -41.497  54.892 -55.192  1.00  0.00    -0.320 N 
HETATM   24  C   UNL     1     -42.698  54.728 -55.858  1.00  0.00     0.280 C 
HETATM   25  O   UNL     1     -43.542  53.870 -55.643  1.00  0.00    -0.265 OA
HETATM   26  H   UNL     1     -40.836  55.483 -55.688  1.00  0.00     0.169 HD
BRANCH  24  27
HETATM   27  C   UNL     1     -42.835  55.715 -56.995  1.00  0.00     0.143 C 
HETATM   28  O   UNL     1     -43.378  55.236 -58.179  1.00  0.00    -0.345 OA
HETATM   29  C   UNL     1     -43.267  56.101 -59.315  1.00  0.00     0.186 C 
HETATM   30  C   UNL     1     -43.753  57.513 -59.036  1.00  0.00     0.105 C 
HETATM   31  S   UNL     1     -42.601  58.288 -57.871  1.00  0.00    -0.136 SA
HETATM   32  C   UNL     1     -42.450  56.981 -56.745  1.00  0.00     0.087 C 
ENDBRANCH  24  27
ENDBRANCH   2  23
TORSDOF 8
ENDMDL
MODEL 5
REMARK VINA RESULT:      -7.5      2.248      5.662
REMARK  8 active torsions:
REMARK  status: ('A' for Active; 'I' for Inactive)
REMARK    1  A    between atoms: O_2  and  C_3 
REMARK    2  A    between atoms: C_4  and  O_5 
REMARK    3  A    between atoms: C_8  and  C_9 
REMARK    4  A    between atoms: C_9  and  C_10 
REMARK    5  A    between atoms: C_10  and  N_11 
REMARK       I    between atoms: N_11  and  C_12 
REMARK    6  A    between atoms: C_12  and  C_13 
REMARK    7  A    between atoms: C_14  and  N_15 
REMARK       I    between atoms: N_15  and  C_16 
REMARK    8  A    between atoms: C_16  and  C_17 
ROOT
HETATM    1  C   UNL     1     -40.445  52.629 -52.347  1.00  0.00     0.058 A 
HETATM    2  C   UNL     1     -40.470  52.758 -53.748  1.00  0.00     0.050 A 
HETATM    3  C   UNL     1     -39.958  51.704 -54.527  1.00  0.00     0.030 A 
HETATM    4  C   UNL     1     -39.515  50.516 -53.940  1.00  0.00     0.002 A 
HETATM    5  C   UNL     1     -39.564  50.365 -52.560  1.00  0.00     0.001 A 
HETATM    6  C   UNL     1     -40.016  51.419 -51.768  1.00  0.00     0.019 A 
ENDROOT
BRANCH   1   7
HETATM    7  C   UNL     1     -40.683  53.726 -51.368  1.00  0.00     0.253 C 
HETATM    8  N   UNL     1     -42.000  54.108 -51.205  1.00  0.00    -0.356 N 
HETATM    9  H   UNL     1     -42.722  53.551 -51.640  1.00  0.00     0.162 HD
HETATM   10  O   UNL     1     -39.737  54.306 -50.847  1.00  0.00    -0.268 OA
BRANCH   8  11
HETATM   11  C   UNL     1     -42.376  55.075 -50.193  1.00  0.00     0.127 C 
BRANCH  11  12
HETATM   12  C   UNL     1     -43.576  55.931 -50.605  1.00  0.00     0.058 C 
BRANCH  12  13
HETATM   13  C   UNL     1     -43.135  57.187 -51.318  1.00  0.00    -0.054 A 
HETATM   14  C   UNL     1     -41.788  57.583 -51.303  1.00  0.00     0.046 A 
HETATM   15  C   UNL     1     -41.370  58.723 -52.002  1.00  0.00     0.102 A 
HETATM   16  C   UNL     1     -42.313  59.468 -52.732  1.00  0.00     0.101 A 
HETATM   17  C   UNL     1     -43.659  59.087 -52.730  1.00  0.00     0.040 A 
HETATM   18  C   UNL     1     -44.065  57.949 -52.034  1.00  0.00     0.010 A 
BRANCH  15  19
HETATM   19  O   UNL     1     -40.076  59.179 -52.047  1.00  0.00    -0.353 OA
HETATM   20  C   UNL     1     -39.414  59.399 -50.811  1.00  0.00     0.210 C 
ENDBRANCH  15  19
BRANCH  16  21
HETATM   21  O   UNL     1     -41.857  60.586 -53.388  1.00  0.00    -0.353 OA
HETATM   22  C   UNL     1     -42.859  61.325 -54.078  1.00  0.00     0.210 C 
ENDBRANCH  16  21
ENDBRANCH  12  13
ENDBRANCH  11  12
ENDBRANCH   8  11
ENDBRANCH   1   7
BRANCH   2  23
HETATM   23  N   UNL     1     -40.988  53.845 -54.494  1.00  0.00    -0.320 N 
HETATM   24  C   UNL     1     -42.304  54.269 -54.517  1.00  0.00     0.280 C 
HETATM   25  O   UNL     1     -43.226  53.830 -53.846  1.00  0.00    -0.265 OA
HETATM   26  H   UNL     1     -40.450  54.150 -55.299  1.00  0.00     0.169 HD
BRANCH  24  27
HETATM   27  C   UNL     1     -42.521  55.332 -55.571  1.00  0.00     0.143 C 
HETATM   28  O   UNL     1     -43.044  54.912 -56.785  1.00  0.00    -0.345 OA
HETATM   29  C   UNL     1     -43.005  55.869 -57.850  1.00  0.00     0.186 C 
HETATM   30  C   UNL     1     -43.581  57.219 -57.456  1.00  0.00     0.105 C 
HETATM   31  S   UNL     1     -42.471  57.975 -56.241  1.00  0.00    -0.136 SA
HETATM   32  C   UNL     1     -42.218  56.597 -55.223  1.00  0.00     0.087 C 
ENDBRANCH  24  27
ENDBRANCH   2  23
TORSDOF 8
ENDMDL
MODEL 6
REMARK VINA RESULT:      -7.4      2.683      8.645
REMARK  8 active torsions:
REMARK  status: ('A' for Active; 'I' for Inactive)
REMARK    1  A    between atoms: O_2  and  C_3 
REMARK    2  A    between atoms: C_4  and  O_5 
REMARK    3  A    between atoms: C_8  and  C_9 
REMARK    4  A    between atoms: C_9  and  C_10 
REMARK    5  A    between atoms: C_10  and  N_11 
REMARK       I    between atoms: N_11  and  C_12 
REMARK    6  A    between atoms: C_12  and  C_13 
REMARK    7  A    between atoms: C_14  and  N_15 
REMARK       I    between atoms: N_15  and  C_16 
REMARK    8  A    between atoms: C_16  and  C_17 
ROOT
HETATM    1  C   UNL     1     -43.680  55.955 -58.497  1.00  0.00     0.058 A 
HETATM    2  C   UNL     1     -43.860  56.936 -59.491  1.00  0.00     0.050 A 
HETATM    3  C   UNL     1     -44.410  56.545 -60.725  1.00  0.00     0.030 A 
HETATM    4  C   UNL     1     -44.855  55.238 -60.941  1.00  0.00     0.002 A 
HETATM    5  C   UNL     1     -44.744  54.293 -59.930  1.00  0.00     0.001 A 
HETATM    6  C   UNL     1     -44.151  54.647 -58.719  1.00  0.00     0.019 A 
ENDROOT
BRANCH   1   7
HETATM    7  C   UNL     1     -42.877  56.115 -57.253  1.00  0.00     0.253 C 
HETATM    8  N   UNL     1     -43.028  55.116 -56.311  1.00  0.00    -0.356 N 
HETATM    9  H   UNL     1     -43.551  54.289 -56.563  1.00  0.00     0.162 HD
HETATM   10  O   UNL     1     -42.227  57.136 -57.063  1.00  0.00    -0.268 OA
BRANCH   8  11
HETATM   11  C   UNL     1     -42.210  55.091 -55.116  1.00  0.00     0.127 C 
BRANCH  11  12
HETATM   12  C   UNL     1     -40.871  54.378 -55.325  1.00  0.00     0.058 C 
BRANCH  12  13
HETATM   13  C   UNL     1     -40.514  53.521 -54.134  1.00  0.00    -0.054 A 
HETATM   14  C   UNL     1     -40.607  54.031 -52.830  1.00  0.00     0.046 A 
HETATM   15  C   UNL     1     -40.320  53.222 -51.724  1.00  0.00     0.102 A 
HETATM   16  C   UNL     1     -39.945  51.883 -51.927  1.00  0.00     0.101 A 
HETATM   17  C   UNL     1     -39.829  51.379 -53.227  1.00  0.00     0.040 A 
HETATM   18  C   UNL     1     -40.121  52.191 -54.323  1.00  0.00     0.010 A 
BRANCH  15  19
HETATM   19  O   UNL     1     -40.392  53.636 -50.416  1.00  0.00    -0.353 OA
HETATM   20  C   UNL     1     -40.763  54.984 -50.173  1.00  0.00     0.210 C 
ENDBRANCH  15  19
BRANCH  16  21
HETATM   21  O   UNL     1     -39.658  51.135 -50.811  1.00  0.00    -0.353 OA
HETATM   22  C   UNL     1     -39.461  49.747 -51.056  1.00  0.00     0.210 C 
ENDBRANCH  16  21
ENDBRANCH  12  13
ENDBRANCH  11  12
ENDBRANCH   8  11
ENDBRANCH   1   7
BRANCH   2  23
HETATM   23  N   UNL     1     -43.567  58.318 -59.386  1.00  0.00    -0.320 N 
HETATM   24  C   UNL     1     -42.480  58.970 -59.940  1.00  0.00     0.280 C 
HETATM   25  O   UNL     1     -41.632  58.483 -60.673  1.00  0.00    -0.265 OA
HETATM   26  H   UNL     1     -43.989  58.821 -58.611  1.00  0.00     0.169 HD
BRANCH  24  27
HETATM   27  C   UNL     1     -42.392  60.400 -59.458  1.00  0.00     0.143 C 
HETATM   28  O   UNL     1     -41.657  61.280 -60.239  1.00  0.00    -0.345 OA
HETATM   29  C   UNL     1     -41.369  62.553 -59.649  1.00  0.00     0.186 C 
HETATM   30  C   UNL     1     -42.602  63.238 -59.084  1.00  0.00     0.105 C 
HETATM   31  S   UNL     1     -43.171  62.288 -57.650  1.00  0.00    -0.136 SA
HETATM   32  C   UNL     1     -43.064  60.699 -58.330  1.00  0.00     0.087 C 
ENDBRANCH  24  27
ENDBRANCH   2  23
TORSDOF 8
ENDMDL
MODEL 7
REMARK VINA RESULT:      -7.3      2.875      5.904
REMARK  8 active torsions:
REMARK  status: ('A' for Active; 'I' for Inactive)
REMARK    1  A    between atoms: O_2  and  C_3 
REMARK    2  A    between atoms: C_4  and  O_5 
REMARK    3  A    between atoms: C_8  and  C_9 
REMARK    4  A    between atoms: C_9  and  C_10 
REMARK    5  A    between atoms: C_10  and  N_11 
REMARK       I    between atoms: N_11  and  C_12 
REMARK    6  A    between atoms: C_12  and  C_13 
REMARK    7  A    between atoms: C_14  and  N_15 
REMARK       I    between atoms: N_15  and  C_16 
REMARK    8  A    between atoms: C_16  and  C_17 
ROOT
HETATM    1  C   UNL     1     -40.234  52.153 -52.472  1.00  0.00     0.058 A 
HETATM    2  C   UNL     1     -40.737  52.109 -53.787  1.00  0.00     0.050 A 
HETATM    3  C   UNL     1     -40.521  50.944 -54.546  1.00  0.00     0.030 A 
HETATM    4  C   UNL     1     -39.905  49.819 -53.992  1.00  0.00     0.002 A 
HETATM    5  C   UNL     1     -39.478  49.843 -52.671  1.00  0.00     0.001 A 
HETATM    6  C   UNL     1     -39.632  51.006 -51.919  1.00  0.00     0.019 A 
ENDROOT
BRANCH   1   7
HETATM    7  C   UNL     1     -40.123  53.373 -51.625  1.00  0.00     0.253 C 
HETATM    8  N   UNL     1     -40.128  53.157 -50.261  1.00  0.00    -0.356 N 
HETATM    9  H   UNL     1     -40.071  52.206 -49.922  1.00  0.00     0.162 HD
HETATM   10  O   UNL     1     -40.145  54.486 -52.137  1.00  0.00    -0.268 OA
BRANCH   8  11
HETATM   11  C   UNL     1     -39.901  54.246 -49.333  1.00  0.00     0.127 C 
BRANCH  11  12
HETATM   12  C   UNL     1     -41.192  54.964 -48.929  1.00  0.00     0.058 C 
BRANCH  12  13
HETATM   13  C   UNL     1     -41.511  56.093 -49.880  1.00  0.00    -0.054 A 
HETATM   14  C   UNL     1     -42.784  56.200 -50.462  1.00  0.00     0.046 A 
HETATM   15  C   UNL     1     -43.095  57.272 -51.308  1.00  0.00     0.102 A 
HETATM   16  C   UNL     1     -42.120  58.252 -51.566  1.00  0.00     0.101 A 
HETATM   17  C   UNL     1     -40.844  58.134 -51.006  1.00  0.00     0.040 A 
HETATM   18  C   UNL     1     -40.545  57.065 -50.161  1.00  0.00     0.010 A 
BRANCH  15  19
HETATM   19  O   UNL     1     -44.313  57.460 -51.914  1.00  0.00    -0.353 OA
HETATM   20  C   UNL     1     -45.348  58.045 -51.138  1.00  0.00     0.210 C 
ENDBRANCH  15  19
BRANCH  16  21
HETATM   21  O   UNL     1     -42.468  59.275 -52.415  1.00  0.00    -0.353 OA
HETATM   22  C   UNL     1     -41.560  59.497 -53.488  1.00  0.00     0.210 C 
ENDBRANCH  16  21
ENDBRANCH  12  13
ENDBRANCH  11  12
ENDBRANCH   8  11
ENDBRANCH   1   7
BRANCH   2  23
HETATM   23  N   UNL     1     -41.478  53.117 -54.449  1.00  0.00    -0.320 N 
HETATM   24  C   UNL     1     -40.959  54.204 -55.129  1.00  0.00     0.280 C 
HETATM   25  O   UNL     1     -39.777  54.438 -55.339  1.00  0.00    -0.265 OA
HETATM   26  H   UNL     1     -42.444  53.244 -54.160  1.00  0.00     0.169 HD
BRANCH  24  27
HETATM   27  C   UNL     1     -42.048  55.168 -55.539  1.00  0.00     0.143 C 
HETATM   28  O   UNL     1     -42.721  55.823 -54.517  1.00  0.00    -0.345 OA
HETATM   29  C   UNL     1     -43.907  56.530 -54.900  1.00  0.00     0.186 C 
HETATM   30  C   UNL     1     -43.689  57.460 -56.081  1.00  0.00     0.105 C 
HETATM   31  S   UNL     1     -43.375  56.446 -57.550  1.00  0.00    -0.136 SA
HETATM   32  C   UNL     1     -42.244  55.331 -56.861  1.00  0.00     0.087 C 
ENDBRANCH  24  27
ENDBRANCH   2  23
TORSDOF 8
ENDMDL
MODEL 8
REMARK VINA RESULT:      -7.3      2.040      3.024
REMARK  8 active torsions:
REMARK  status: ('A' for Active; 'I' for Inactive)
REMARK    1  A    between atoms: O_2  and  C_3 
REMARK    2  A    between atoms: C_4  and  O_5 
REMARK    3  A    between atoms: C_8  and  C_9 
REMARK    4  A    between atoms: C_9  and  C_10 
REMARK    5  A    between atoms: C_10  and  N_11 
REMARK       I    between atoms: N_11  and  C_12 
REMARK    6  A    between atoms: C_12  and  C_13 
REMARK    7  A    between atoms: C_14  and  N_15 
REMARK       I    between atoms: N_15  and  C_16 
REMARK    8  A    between atoms: C_16  and  C_17 
ROOT
HETATM    1  C   UNL     1     -41.419  54.044 -54.243  1.00  0.00     0.058 A 
HETATM    2  C   UNL     1     -41.015  54.370 -52.934  1.00  0.00     0.050 A 
HETATM    3  C   UNL     1     -40.319  53.401 -52.188  1.00  0.00     0.030 A 
HETATM    4  C   UNL     1     -39.954  52.175 -52.750  1.00  0.00     0.002 A 
HETATM    5  C   UNL     1     -40.291  51.890 -54.067  1.00  0.00     0.001 A 
HETATM    6  C   UNL     1     -41.027  52.814 -54.806  1.00  0.00     0.019 A 
ENDROOT
BRANCH   1   7
HETATM    7  C   UNL     1     -42.383  54.818 -55.073  1.00  0.00     0.253 C 
HETATM    8  N   UNL     1     -41.826  55.754 -55.922  1.00  0.00    -0.356 N 
HETATM    9  H   UNL     1     -40.822  55.770 -56.032  1.00  0.00     0.162 HD
HETATM   10  O   UNL     1     -43.590  54.688 -54.903  1.00  0.00    -0.268 OA
BRANCH   8  11
HETATM   11  C   UNL     1     -42.645  56.481 -56.870  1.00  0.00     0.127 C 
BRANCH  11  12
HETATM   12  C   UNL     1     -42.661  55.839 -58.260  1.00  0.00     0.058 C 
BRANCH  12  13
HETATM   13  C   UNL     1     -44.031  55.929 -58.889  1.00  0.00    -0.054 A 
HETATM   14  C   UNL     1     -44.864  57.031 -58.637  1.00  0.00     0.046 A 
HETATM   15  C   UNL     1     -46.116  57.137 -59.256  1.00  0.00     0.102 A 
HETATM   16  C   UNL     1     -46.533  56.131 -60.144  1.00  0.00     0.101 A 
HETATM   17  C   UNL     1     -45.715  55.021 -60.379  1.00  0.00     0.040 A 
HETATM   18  C   UNL     1     -44.468  54.926 -59.761  1.00  0.00     0.010 A 
BRANCH  15  19
HETATM   19  O   UNL     1     -46.990  58.180 -59.074  1.00  0.00    -0.353 OA
HETATM   20  C   UNL     1     -47.351  58.508 -57.741  1.00  0.00     0.210 C 
ENDBRANCH  15  19
BRANCH  16  21
HETATM   21  O   UNL     1     -47.776  56.272 -60.714  1.00  0.00    -0.353 OA
HETATM   22  C   UNL     1     -47.765  56.588 -62.102  1.00  0.00     0.210 C 
ENDBRANCH  16  21
ENDBRANCH  12  13
ENDBRANCH  11  12
ENDBRANCH   8  11
ENDBRANCH   1   7
BRANCH   2  23
HETATM   23  N   UNL     1     -41.208  55.604 -52.266  1.00  0.00    -0.320 N 
HETATM   24  C   UNL     1     -42.354  56.008 -51.606  1.00  0.00     0.280 C 
HETATM   25  O   UNL     1     -43.364  55.343 -51.421  1.00  0.00    -0.265 OA
HETATM   26  H   UNL     1     -40.605  56.375 -52.537  1.00  0.00     0.169 HD
BRANCH  24  27
HETATM   27  C   UNL     1     -42.264  57.456 -51.183  1.00  0.00     0.143 C 
HETATM   28  O   UNL     1     -41.069  57.868 -50.611  1.00  0.00    -0.345 OA
HETATM   29  C   UNL     1     -41.084  59.158 -49.987  1.00  0.00     0.186 C 
HETATM   30  C   UNL     1     -41.652  60.245 -50.884  1.00  0.00     0.105 C 
HETATM   31  S   UNL     1     -43.422  59.925 -51.109  1.00  0.00    -0.136 SA
HETATM   32  C   UNL     1     -43.341  58.225 -51.430  1.00  0.00     0.087 C 
ENDBRANCH  24  27
ENDBRANCH   2  23
TORSDOF 8
ENDMDL
MODEL 9
REMARK VINA RESULT:      -7.2      2.771      5.853
REMARK  8 active torsions:
REMARK  status: ('A' for Active; 'I' for Inactive)
REMARK    1  A    between atoms: O_2  and  C_3 
REMARK    2  A    between atoms: C_4  and  O_5 
REMARK    3  A    between atoms: C_8  and  C_9 
REMARK    4  A    between atoms: C_9  and  C_10 
REMARK    5  A    between atoms: C_10  and  N_11 
REMARK       I    between atoms: N_11  and  C_12 
REMARK    6  A    between atoms: C_12  and  C_13 
REMARK    7  A    between atoms: C_14  and  N_15 
REMARK       I    between atoms: N_15  and  C_16 
REMARK    8  A    between atoms: C_16  and  C_17 
ROOT
HETATM    1  C   UNL     1     -40.997  53.350 -52.129  1.00  0.00     0.058 A 
HETATM    2  C   UNL     1     -40.953  53.397 -53.535  1.00  0.00     0.050 A 
HETATM    3  C   UNL     1     -40.126  52.480 -54.209  1.00  0.00     0.030 A 
HETATM    4  C   UNL     1     -39.430  51.484 -53.518  1.00  0.00     0.002 A 
HETATM    5  C   UNL     1     -39.537  51.397 -52.136  1.00  0.00     0.001 A 
HETATM    6  C   UNL     1     -40.308  52.330 -51.445  1.00  0.00     0.019 A 
ENDROOT
BRANCH   1   7
HETATM    7  C   UNL     1     -41.586  54.391 -51.242  1.00  0.00     0.253 C 
HETATM    8  N   UNL     1     -40.771  55.470 -50.960  1.00  0.00    -0.356 N 
HETATM    9  H   UNL     1     -39.898  55.560 -51.462  1.00  0.00     0.162 HD
HETATM   10  O   UNL     1     -42.682  54.214 -50.722  1.00  0.00    -0.268 OA
BRANCH   8  11
HETATM   11  C   UNL     1     -41.270  56.607 -50.214  1.00  0.00     0.127 C 
BRANCH  11  12
HETATM   12  C   UNL     1     -41.019  57.941 -50.923  1.00  0.00     0.058 C 
BRANCH  12  13
HETATM   13  C   UNL     1     -42.306  58.535 -51.444  1.00  0.00    -0.054 A 
HETATM   14  C   UNL     1     -42.295  59.720 -52.196  1.00  0.00     0.046 A 
HETATM   15  C   UNL     1     -43.483  60.246 -52.718  1.00  0.00     0.102 A 
HETATM   16  C   UNL     1     -44.695  59.572 -52.489  1.00  0.00     0.101 A 
HETATM   17  C   UNL     1     -44.711  58.403 -51.720  1.00  0.00     0.040 A 
HETATM   18  C   UNL     1     -43.522  57.884 -51.208  1.00  0.00     0.010 A 
BRANCH  15  19
HETATM   19  O   UNL     1     -43.565  61.393 -53.469  1.00  0.00    -0.353 OA
HETATM   20  C   UNL     1     -43.391  62.632 -52.797  1.00  0.00     0.210 C 
ENDBRANCH  15  19
BRANCH  16  21
HETATM   21  O   UNL     1     -45.836  60.136 -53.008  1.00  0.00    -0.353 OA
HETATM   22  C   UNL     1     -46.729  60.676 -52.042  1.00  0.00     0.210 C 
ENDBRANCH  16  21
ENDBRANCH  12  13
ENDBRANCH  11  12
ENDBRANCH   8  11
ENDBRANCH   1   7
BRANCH   2  23
HETATM   23  N   UNL     1     -41.683  54.267 -54.381  1.00  0.00    -0.320 N 
HETATM   24  C   UNL     1     -41.451  55.618 -54.564  1.00  0.00     0.280 C 
HETATM   25  O   UNL     1     -40.535  56.273 -54.088  1.00  0.00    -0.265 OA
HETATM   26  H   UNL     1     -42.622  53.979 -54.638  1.00  0.00     0.169 HD
BRANCH  24  27
HETATM   27  C   UNL     1     -42.546  56.258 -55.387  1.00  0.00     0.143 C 
HETATM   28  O   UNL     1     -43.443  57.072 -54.711  1.00  0.00    -0.345 OA
HETATM   29  C   UNL     1     -44.611  57.461 -55.443  1.00  0.00     0.186 C 
HETATM   30  C   UNL     1     -44.290  58.038 -56.811  1.00  0.00     0.105 C 
HETATM   31  S   UNL     1     -43.634  56.704 -57.848  1.00  0.00    -0.136 SA
HETATM   32  C   UNL     1     -42.531  56.007 -56.710  1.00  0.00     0.087 C 
ENDBRANCH  24  27
ENDBRANCH   2  23
TORSDOF 8
ENDMDL
MODEL 10
REMARK VINA RESULT:      -7.2      2.668      7.581
REMARK  8 active torsions:
REMARK  status: ('A' for Active; 'I' for Inactive)
REMARK    1  A    between atoms: O_2  and  C_3 
REMARK    2  A    between atoms: C_4  and  O_5 
REMARK    3  A    between atoms: C_8  and  C_9 
REMARK    4  A    between atoms: C_9  and  C_10 
REMARK    5  A    between atoms: C_10  and  N_11 
REMARK       I    between atoms: N_11  and  C_12 
REMARK    6  A    between atoms: C_12  and  C_13 
REMARK    7  A    between atoms: C_14  and  N_15 
REMARK       I    between atoms: N_15  and  C_16 
REMARK    8  A    between atoms: C_16  and  C_17 
ROOT
HETATM    1  C   UNL     1     -42.639  58.429 -57.195  1.00  0.00     0.058 A 
HETATM    2  C   UNL     1     -42.418  59.705 -56.642  1.00  0.00     0.050 A 
HETATM    3  C   UNL     1     -41.916  60.718 -57.479  1.00  0.00     0.030 A 
HETATM    4  C   UNL     1     -41.724  60.502 -58.847  1.00  0.00     0.002 A 
HETATM    5  C   UNL     1     -42.015  59.262 -59.400  1.00  0.00     0.001 A 
HETATM    6  C   UNL     1     -42.461  58.229 -58.577  1.00  0.00     0.019 A 
ENDROOT
BRANCH   1   7
HETATM    7  C   UNL     1     -42.899  57.181 -56.424  1.00  0.00     0.253 C 
HETATM    8  N   UNL     1     -41.930  56.202 -56.523  1.00  0.00    -0.356 N 
HETATM    9  H   UNL     1     -41.061  56.428 -56.987  1.00  0.00     0.162 HD
HETATM   10  O   UNL     1     -43.969  57.023 -55.845  1.00  0.00    -0.268 OA
BRANCH   8  11
HETATM   11  C   UNL     1     -42.005  54.996 -55.725  1.00  0.00     0.127 C 
BRANCH  11  12
HETATM   12  C   UNL     1     -41.768  55.252 -54.234  1.00  0.00     0.058 C 
BRANCH  12  13
HETATM   13  C   UNL     1     -41.058  54.088 -53.584  1.00  0.00    -0.054 A 
HETATM   14  C   UNL     1     -40.998  53.976 -52.187  1.00  0.00     0.046 A 
HETATM   15  C   UNL     1     -40.379  52.874 -51.584  1.00  0.00     0.102 A 
HETATM   16  C   UNL     1     -39.821  51.869 -52.393  1.00  0.00     0.101 A 
HETATM   17  C   UNL     1     -39.859  51.991 -53.786  1.00  0.00     0.040 A 
HETATM   18  C   UNL     1     -40.482  53.090 -54.377  1.00  0.00     0.010 A 
BRANCH  15  19
HETATM   19  O   UNL     1     -40.281  52.679 -50.228  1.00  0.00    -0.353 OA
HETATM   20  C   UNL     1     -40.084  53.825 -49.413  1.00  0.00     0.210 C 
ENDBRANCH  15  19
BRANCH  16  21
HETATM   21  O   UNL     1     -39.212  50.815 -51.755  1.00  0.00    -0.353 OA
HETATM   22  C   UNL     1     -39.652  49.528 -52.171  1.00  0.00     0.210 C 
ENDBRANCH  16  21
ENDBRANCH  12  13
ENDBRANCH  11  12
ENDBRANCH   8  11
ENDBRANCH   1   7
BRANCH   2  23
HETATM   23  N   UNL     1     -42.670  60.111 -55.309  1.00  0.00    -0.320 N 
HETATM   24  C   UNL     1     -41.906  59.800 -54.199  1.00  0.00     0.280 C 
HETATM   25  O   UNL     1     -40.847  59.190 -54.188  1.00  0.00    -0.265 OA
HETATM   26  H   UNL     1     -43.623  60.381 -55.082  1.00  0.00     0.169 HD
BRANCH  24  27
HETATM   27  C   UNL     1     -42.586  60.241 -52.922  1.00  0.00     0.143 C 
HETATM   28  O   UNL     1     -41.818  60.223 -51.767  1.00  0.00    -0.345 OA
HETATM   29  C   UNL     1     -42.533  60.394 -50.537  1.00  0.00     0.186 C 
HETATM   30  C   UNL     1     -43.456  61.601 -50.549  1.00  0.00     0.105 C 
HETATM   31  S   UNL     1     -44.804  61.271 -51.714  1.00  0.00    -0.136 SA
HETATM   32  C   UNL     1     -43.866  60.645 -53.029  1.00  0.00     0.087 C 
ENDBRANCH  24  27
ENDBRANCH   2  23
TORSDOF 8
ENDMDL
