MODEL 1
REMARK VINA RESULT:      -9.2      0.000      0.000
REMARK  6 active torsions:
REMARK  status: ('A' for Active; 'I' for Inactive)
REMARK    1  A    between atoms: C_4  and  C_5 
REMARK    2  A    between atoms: C_5  and  N_6 
REMARK    3  A    between atoms: C_10  and  C_11 
REMARK    4  A    between atoms: C_11  and  C_12 
REMARK    5  A    between atoms: N_21  and  C_22 
REMARK    6  A    between atoms: C_22  and  C_23 
ROOT
HETATM    1  C   UNL     1     -43.473  57.900 -54.801  1.00  0.00     0.164 A 
HETATM    2  N   UNL     1     -42.059  58.002 -54.466  1.00  0.00    -0.319 N 
HETATM    3  C   UNL     1     -41.749  59.206 -53.879  1.00  0.00     0.326 A 
HETATM    4  O   UNL     1     -40.609  59.521 -53.587  1.00  0.00    -0.247 OA
HETATM    5  N   UNL     1     -42.890  59.900 -53.663  1.00  0.00    -0.265 N 
HETATM    6  C   UNL     1     -43.957  59.248 -54.221  1.00  0.00     0.263 A 
HETATM    7  O   UNL     1     -45.119  59.630 -54.203  1.00  0.00    -0.270 OA
HETATM    8  H   UNL     1     -41.374  57.672 -55.144  1.00  0.00     0.166 HD
ENDROOT
BRANCH   1   9
HETATM    9  C   UNL     1     -44.182  56.707 -54.064  1.00  0.00     0.033 C 
HETATM   10  C   UNL     1     -43.825  56.544 -52.574  1.00  0.00     0.036 C 
HETATM   11  C   UNL     1     -42.415  56.034 -52.322  1.00  0.00     0.235 C 
HETATM   12  N   UNL     1     -42.104  54.788 -53.115  1.00  0.00    -0.067 N 
HETATM   13  H   UNL     1     -42.580  54.022 -52.625  1.00  0.00     0.280 HD
HETATM   14  C   UNL     1     -42.576  54.768 -54.553  1.00  0.00     0.235 C 
HETATM   15  C   UNL     1     -43.987  55.318 -54.700  1.00  0.00     0.036 C 
BRANCH  12  16
HETATM   16  C   UNL     1     -40.609  54.449 -53.080  1.00  0.00     0.274 C 
BRANCH  16  17
HETATM   17  C   UNL     1     -40.284  53.016 -52.740  1.00  0.00    -0.026 A 
HETATM   18  C   UNL     1     -40.180  52.089 -53.802  1.00  0.00     0.016 A 
HETATM   19  C   UNL     1     -39.837  50.754 -53.575  1.00  0.00    -0.061 A 
HETATM   20  C   UNL     1     -39.704  49.783 -54.712  1.00  0.00     0.048 C 
HETATM   21  C   UNL     1     -39.601  50.334 -52.266  1.00  0.00     0.007 A 
HETATM   22  C   UNL     1     -39.719  51.232 -51.204  1.00  0.00     0.008 A 
HETATM   23  C   UNL     1     -40.047  52.579 -51.422  1.00  0.00    -0.054 A 
HETATM   24  C   UNL     1     -40.217  53.477 -50.226  1.00  0.00     0.049 C 
ENDBRANCH  16  17
ENDBRANCH  12  16
ENDBRANCH   1   9
BRANCH   1  25
HETATM   25  C   UNL     1     -43.607  57.803 -56.316  1.00  0.00     0.072 A 
HETATM   26  N   UNL     1     -42.440  57.542 -56.981  1.00  0.00    -0.262 NA
HETATM   27  C   UNL     1     -42.496  57.441 -58.330  1.00  0.00     0.117 A 
HETATM   28  C   UNL     1     -43.659  57.580 -59.063  1.00  0.00     0.019 A 
HETATM   29  C   UNL     1     -44.839  57.832 -58.375  1.00  0.00     0.003 A 
HETATM   30  C   UNL     1     -44.821  57.937 -56.986  1.00  0.00     0.030 A 
ENDBRANCH   1  25
BRANCH   5  31
HETATM   31  C   UNL     1     -42.967  61.150 -52.932  1.00  0.00     0.168 C 
BRANCH  31  32
HETATM   32  C   UNL     1     -43.016  60.990 -51.413  1.00  0.00     0.140 C 
HETATM   33  O   UNL     1     -44.106  60.109 -51.074  1.00  0.00    -0.384 OA
HETATM   34  C   UNL     1     -44.849  60.692 -49.995  1.00  0.00     0.168 C 
HETATM   35  C   UNL     1     -43.984  61.795 -49.427  1.00  0.00     0.029 C 
HETATM   36  C   UNL     1     -43.264  62.287 -50.657  1.00  0.00     0.036 C 
ENDBRANCH  31  32
ENDBRANCH   5  31
TORSDOF 6
ENDMDL
MODEL 2
REMARK VINA RESULT:      -8.6      1.732      5.474
REMARK  6 active torsions:
REMARK  status: ('A' for Active; 'I' for Inactive)
REMARK    1  A    between atoms: C_4  and  C_5 
REMARK    2  A    between atoms: C_5  and  N_6 
REMARK    3  A    between atoms: C_10  and  C_11 
REMARK    4  A    between atoms: C_11  and  C_12 
REMARK    5  A    between atoms: N_21  and  C_22 
REMARK    6  A    between atoms: C_22  and  C_23 
ROOT
HETATM    1  C   UNL     1     -42.888  59.163 -52.266  1.00  0.00     0.164 A 
HETATM    2  N   UNL     1     -43.761  58.023 -52.508  1.00  0.00    -0.319 N 
HETATM    3  C   UNL     1     -44.242  58.001 -53.796  1.00  0.00     0.326 A 
HETATM    4  O   UNL     1     -45.044  57.171 -54.183  1.00  0.00    -0.247 OA
HETATM    5  N   UNL     1     -43.650  58.989 -54.507  1.00  0.00    -0.265 N 
HETATM    6  C   UNL     1     -42.879  59.768 -53.688  1.00  0.00     0.263 A 
HETATM    7  O   UNL     1     -42.229  60.745 -54.033  1.00  0.00    -0.270 OA
HETATM    8  H   UNL     1     -44.445  57.774 -51.796  1.00  0.00     0.166 HD
ENDROOT
BRANCH   1   9
HETATM    9  C   UNL     1     -41.434  58.733 -51.851  1.00  0.00     0.033 C 
HETATM   10  C   UNL     1     -40.598  58.072 -52.964  1.00  0.00     0.036 C 
HETATM   11  C   UNL     1     -41.050  56.668 -53.336  1.00  0.00     0.235 C 
HETATM   12  N   UNL     1     -41.190  55.772 -52.129  1.00  0.00    -0.067 N 
HETATM   13  H   UNL     1     -40.233  55.507 -51.868  1.00  0.00     0.280 HD
HETATM   14  C   UNL     1     -41.840  56.383 -50.906  1.00  0.00     0.235 C 
HETATM   15  C   UNL     1     -41.336  57.793 -50.635  1.00  0.00     0.036 C 
BRANCH  12  16
HETATM   16  C   UNL     1     -41.914  54.465 -52.472  1.00  0.00     0.274 C 
BRANCH  16  17
HETATM   17  C   UNL     1     -41.014  53.314 -52.851  1.00  0.00    -0.026 A 
HETATM   18  C   UNL     1     -40.596  52.435 -51.828  1.00  0.00     0.016 A 
HETATM   19  C   UNL     1     -39.801  51.319 -52.103  1.00  0.00    -0.061 A 
HETATM   20  C   UNL     1     -39.382  50.376 -51.012  1.00  0.00     0.048 C 
HETATM   21  C   UNL     1     -39.410  51.082 -53.421  1.00  0.00     0.007 A 
HETATM   22  C   UNL     1     -39.799  51.952 -54.441  1.00  0.00     0.008 A 
HETATM   23  C   UNL     1     -40.611  53.066 -54.178  1.00  0.00    -0.054 A 
HETATM   24  C   UNL     1     -40.940  53.995 -55.314  1.00  0.00     0.049 C 
ENDBRANCH  16  17
ENDBRANCH  12  16
ENDBRANCH   1   9
BRANCH   1  25
HETATM   25  C   UNL     1     -43.542  60.062 -51.223  1.00  0.00     0.072 A 
HETATM   26  N   UNL     1     -44.755  59.624 -50.766  1.00  0.00    -0.262 NA
HETATM   27  C   UNL     1     -45.385  60.379 -49.835  1.00  0.00     0.117 A 
HETATM   28  C   UNL     1     -44.868  61.553 -49.322  1.00  0.00     0.019 A 
HETATM   29  C   UNL     1     -43.630  61.980 -49.784  1.00  0.00     0.003 A 
HETATM   30  C   UNL     1     -42.950  61.226 -50.737  1.00  0.00     0.030 A 
ENDBRANCH   1  25
BRANCH   5  31
HETATM   31  C   UNL     1     -43.804  59.179 -55.936  1.00  0.00     0.168 C 
BRANCH  31  32
HETATM   32  C   UNL     1     -42.908  58.284 -56.792  1.00  0.00     0.140 C 
HETATM   33  O   UNL     1     -42.222  59.105 -57.758  1.00  0.00    -0.384 OA
HETATM   34  C   UNL     1     -42.312  58.473 -59.043  1.00  0.00     0.168 C 
HETATM   35  C   UNL     1     -42.769  57.053 -58.790  1.00  0.00     0.029 C 
HETATM   36  C   UNL     1     -43.659  57.226 -57.585  1.00  0.00     0.036 C 
ENDBRANCH  31  32
ENDBRANCH   5  31
TORSDOF 6
ENDMDL
MODEL 3
REMARK VINA RESULT:      -8.4      1.679      5.291
REMARK  6 active torsions:
REMARK  status: ('A' for Active; 'I' for Inactive)
REMARK    1  A    between atoms: C_4  and  C_5 
REMARK    2  A    between atoms: C_5  and  N_6 
REMARK    3  A    between atoms: C_10  and  C_11 
REMARK    4  A    between atoms: C_11  and  C_12 
REMARK    5  A    between atoms: N_21  and  C_22 
REMARK    6  A    between atoms: C_22  and  C_23 
ROOT
HETATM    1  C   UNL     1     -42.837  59.168 -52.545  1.00  0.00     0.164 A 
HETATM    2  N   UNL     1     -43.701  58.010 -52.725  1.00  0.00    -0.319 N 
HETATM    3  C   UNL     1     -44.219  57.941 -53.997  1.00  0.00     0.326 A 
HETATM    4  O   UNL     1     -45.021  57.089 -54.335  1.00  0.00    -0.247 OA
HETATM    5  N   UNL     1     -43.661  58.913 -54.756  1.00  0.00    -0.265 N 
HETATM    6  C   UNL     1     -42.877  59.728 -53.984  1.00  0.00     0.263 A 
HETATM    7  O   UNL     1     -42.250  60.701 -54.379  1.00  0.00    -0.270 OA
HETATM    8  H   UNL     1     -44.361  57.775 -51.986  1.00  0.00     0.166 HD
ENDROOT
BRANCH   1   9
HETATM    9  C   UNL     1     -41.366  58.769 -52.159  1.00  0.00     0.033 C 
HETATM   10  C   UNL     1     -40.604  57.951 -53.220  1.00  0.00     0.036 C 
HETATM   11  C   UNL     1     -41.093  56.519 -53.376  1.00  0.00     0.235 C 
HETATM   12  N   UNL     1     -41.172  55.793 -52.055  1.00  0.00    -0.067 N 
HETATM   13  H   UNL     1     -40.204  55.547 -51.815  1.00  0.00     0.280 HD
HETATM   14  C   UNL     1     -41.742  56.572 -50.890  1.00  0.00     0.235 C 
HETATM   15  C   UNL     1     -41.208  57.995 -50.837  1.00  0.00     0.036 C 
BRANCH  12  16
HETATM   16  C   UNL     1     -41.929  54.465 -52.180  1.00  0.00     0.274 C 
BRANCH  16  17
HETATM   17  C   UNL     1     -41.068  53.228 -52.118  1.00  0.00    -0.026 A 
HETATM   18  C   UNL     1     -40.830  52.524 -53.319  1.00  0.00     0.016 A 
HETATM   19  C   UNL     1     -40.007  51.396 -53.355  1.00  0.00    -0.061 A 
HETATM   20  C   UNL     1     -39.740  50.669 -54.641  1.00  0.00     0.048 C 
HETATM   21  C   UNL     1     -39.417  50.957 -52.169  1.00  0.00     0.007 A 
HETATM   22  C   UNL     1     -39.658  51.630 -50.969  1.00  0.00     0.008 A 
HETATM   23  C   UNL     1     -40.470  52.774 -50.926  1.00  0.00    -0.054 A 
HETATM   24  C   UNL     1     -40.736  53.412 -49.589  1.00  0.00     0.049 C 
ENDBRANCH  16  17
ENDBRANCH  12  16
ENDBRANCH   1   9
BRANCH   1  25
HETATM   25  C   UNL     1     -43.472  60.092 -51.512  1.00  0.00     0.072 A 
HETATM   26  N   UNL     1     -44.661  59.648 -50.999  1.00  0.00    -0.262 NA
HETATM   27  C   UNL     1     -45.273  60.424 -50.074  1.00  0.00     0.117 A 
HETATM   28  C   UNL     1     -44.762  61.625 -49.620  1.00  0.00     0.019 A 
HETATM   29  C   UNL     1     -43.548  62.057 -50.138  1.00  0.00     0.003 A 
HETATM   30  C   UNL     1     -42.887  61.282 -51.088  1.00  0.00     0.030 A 
ENDBRANCH   1  25
BRANCH   5  31
HETATM   31  C   UNL     1     -43.858  59.056 -56.185  1.00  0.00     0.168 C 
BRANCH  31  32
HETATM   32  C   UNL     1     -42.941  58.182 -57.040  1.00  0.00     0.140 C 
HETATM   33  O   UNL     1     -42.128  59.036 -57.870  1.00  0.00    -0.384 OA
HETATM   34  C   UNL     1     -42.140  58.521 -59.208  1.00  0.00     0.168 C 
HETATM   35  C   UNL     1     -42.693  57.115 -59.120  1.00  0.00     0.029 C 
HETATM   36  C   UNL     1     -43.675  57.241 -57.983  1.00  0.00     0.036 C 
ENDBRANCH  31  32
ENDBRANCH   5  31
TORSDOF 6
ENDMDL
MODEL 4
REMARK VINA RESULT:      -8.3      1.943      7.773
REMARK  6 active torsions:
REMARK  status: ('A' for Active; 'I' for Inactive)
REMARK    1  A    between atoms: C_4  and  C_5 
REMARK    2  A    between atoms: C_5  and  N_6 
REMARK    3  A    between atoms: C_10  and  C_11 
REMARK    4  A    between atoms: C_11  and  C_12 
REMARK    5  A    between atoms: N_21  and  C_22 
REMARK    6  A    between atoms: C_22  and  C_23 
ROOT
HETATM    1  C   UNL     1     -42.050  55.324 -52.900  1.00  0.00     0.164 A 
HETATM    2  N   UNL     1     -41.252  56.477 -53.292  1.00  0.00    -0.319 N 
HETATM    3  C   UNL     1     -41.782  57.130 -54.381  1.00  0.00     0.326 A 
HETATM    4  O   UNL     1     -41.230  58.077 -54.912  1.00  0.00    -0.247 OA
HETATM    5  N   UNL     1     -42.977  56.576 -54.690  1.00  0.00    -0.265 N 
HETATM    6  C   UNL     1     -43.203  55.469 -53.918  1.00  0.00     0.263 A 
HETATM    7  O   UNL     1     -44.190  54.748 -53.970  1.00  0.00    -0.270 OA
HETATM    8  H   UNL     1     -40.238  56.385 -53.307  1.00  0.00     0.166 HD
ENDROOT
BRANCH   1   9
HETATM    9  C   UNL     1     -42.603  55.445 -51.433  1.00  0.00     0.033 C 
HETATM   10  C   UNL     1     -43.797  56.401 -51.254  1.00  0.00     0.036 C 
HETATM   11  C   UNL     1     -43.442  57.875 -51.382  1.00  0.00     0.235 C 
HETATM   12  N   UNL     1     -42.274  58.263 -50.509  1.00  0.00    -0.067 N 
HETATM   13  H   UNL     1     -42.650  58.329 -49.556  1.00  0.00     0.280 HD
HETATM   14  C   UNL     1     -41.111  57.294 -50.468  1.00  0.00     0.235 C 
HETATM   15  C   UNL     1     -41.573  55.849 -50.362  1.00  0.00     0.036 C 
BRANCH  12  16
HETATM   16  C   UNL     1     -41.744  59.659 -50.854  1.00  0.00     0.274 C 
BRANCH  16  17
HETATM   17  C   UNL     1     -42.787  60.748 -50.899  1.00  0.00    -0.026 A 
HETATM   18  C   UNL     1     -43.373  61.156 -49.680  1.00  0.00     0.016 A 
HETATM   19  C   UNL     1     -44.311  62.190 -49.631  1.00  0.00    -0.061 A 
HETATM   20  C   UNL     1     -44.910  62.634 -48.327  1.00  0.00     0.048 C 
HETATM   21  C   UNL     1     -44.678  62.821 -50.819  1.00  0.00     0.007 A 
HETATM   22  C   UNL     1     -44.123  62.417 -52.035  1.00  0.00     0.008 A 
HETATM   23  C   UNL     1     -43.167  61.390 -52.093  1.00  0.00    -0.054 A 
HETATM   24  C   UNL     1     -42.657  60.964 -53.443  1.00  0.00     0.049 C 
ENDBRANCH  16  17
ENDBRANCH  12  16
ENDBRANCH   1   9
BRANCH   1  25
HETATM   25  C   UNL     1     -41.214  54.065 -53.098  1.00  0.00     0.072 A 
HETATM   26  N   UNL     1     -40.738  53.503 -51.944  1.00  0.00    -0.262 NA
HETATM   27  C   UNL     1     -39.991  52.380 -52.056  1.00  0.00     0.117 A 
HETATM   28  C   UNL     1     -39.692  51.773 -53.261  1.00  0.00     0.019 A 
HETATM   29  C   UNL     1     -40.191  52.346 -54.423  1.00  0.00     0.003 A 
HETATM   30  C   UNL     1     -40.969  53.499 -54.347  1.00  0.00     0.030 A 
ENDBRANCH   1  25
BRANCH   5  31
HETATM   31  C   UNL     1     -43.890  57.095 -55.689  1.00  0.00     0.168 C 
BRANCH  31  32
HETATM   32  C   UNL     1     -43.364  57.026 -57.123  1.00  0.00     0.140 C 
HETATM   33  O   UNL     1     -44.373  57.543 -58.012  1.00  0.00    -0.384 OA
HETATM   34  C   UNL     1     -44.509  56.646 -59.124  1.00  0.00     0.168 C 
HETATM   35  C   UNL     1     -43.302  55.735 -59.086  1.00  0.00     0.029 C 
HETATM   36  C   UNL     1     -43.049  55.618 -57.604  1.00  0.00     0.036 C 
ENDBRANCH  31  32
ENDBRANCH   5  31
TORSDOF 6
ENDMDL
MODEL 5
REMARK VINA RESULT:      -8.2      1.674      2.608
REMARK  6 active torsions:
REMARK  status: ('A' for Active; 'I' for Inactive)
REMARK    1  A    between atoms: C_4  and  C_5 
REMARK    2  A    between atoms: C_5  and  N_6 
REMARK    3  A    between atoms: C_10  and  C_11 
REMARK    4  A    between atoms: C_11  and  C_12 
REMARK    5  A    between atoms: N_21  and  C_22 
REMARK    6  A    between atoms: C_22  and  C_23 
ROOT
HETATM    1  C   UNL     1     -43.588  58.625 -52.710  1.00  0.00     0.164 A 
HETATM    2  N   UNL     1     -42.231  58.652 -52.183  1.00  0.00    -0.319 N 
HETATM    3  C   UNL     1     -42.077  59.594 -51.193  1.00  0.00     0.326 A 
HETATM    4  O   UNL     1     -41.003  59.827 -50.669  1.00  0.00    -0.247 OA
HETATM    5  N   UNL     1     -43.283  60.137 -50.907  1.00  0.00    -0.265 N 
HETATM    6  C   UNL     1     -44.231  59.679 -51.782  1.00  0.00     0.263 A 
HETATM    7  O   UNL     1     -45.413  59.995 -51.787  1.00  0.00    -0.270 OA
HETATM    8  H   UNL     1     -41.453  58.594 -52.837  1.00  0.00     0.166 HD
ENDROOT
BRANCH   1   9
HETATM    9  C   UNL     1     -44.285  57.230 -52.511  1.00  0.00     0.033 C 
HETATM   10  C   UNL     1     -43.958  56.512 -51.188  1.00  0.00     0.036 C 
HETATM   11  C   UNL     1     -42.542  55.963 -51.107  1.00  0.00     0.235 C 
HETATM   12  N   UNL     1     -42.182  55.123 -52.308  1.00  0.00    -0.067 N 
HETATM   13  H   UNL     1     -42.650  54.221 -52.165  1.00  0.00     0.280 HD
HETATM   14  C   UNL     1     -42.620  55.651 -53.657  1.00  0.00     0.235 C 
HETATM   15  C   UNL     1     -44.040  56.195 -53.625  1.00  0.00     0.036 C 
BRANCH  12  16
HETATM   16  C   UNL     1     -40.681  54.818 -52.359  1.00  0.00     0.274 C 
BRANCH  16  17
HETATM   17  C   UNL     1     -40.327  53.390 -52.695  1.00  0.00    -0.026 A 
HETATM   18  C   UNL     1     -40.163  52.479 -51.628  1.00  0.00     0.016 A 
HETATM   19  C   UNL     1     -39.881  51.130 -51.856  1.00  0.00    -0.061 A 
HETATM   20  C   UNL     1     -39.733  50.164 -50.716  1.00  0.00     0.048 C 
HETATM   21  C   UNL     1     -39.753  50.683 -53.171  1.00  0.00     0.007 A 
HETATM   22  C   UNL     1     -39.893  51.574 -54.237  1.00  0.00     0.008 A 
HETATM   23  C   UNL     1     -40.192  52.929 -54.019  1.00  0.00    -0.054 A 
HETATM   24  C   UNL     1     -40.268  53.845 -55.211  1.00  0.00     0.049 C 
ENDBRANCH  16  17
ENDBRANCH  12  16
ENDBRANCH   1   9
BRANCH   1  25
HETATM   25  C   UNL     1     -43.548  59.044 -54.175  1.00  0.00     0.072 A 
HETATM   26  N   UNL     1     -42.292  59.132 -54.713  1.00  0.00    -0.262 NA
HETATM   27  C   UNL     1     -42.191  59.498 -56.013  1.00  0.00     0.117 A 
HETATM   28  C   UNL     1     -43.278  59.776 -56.819  1.00  0.00     0.019 A 
HETATM   29  C   UNL     1     -44.547  59.670 -56.264  1.00  0.00     0.003 A 
HETATM   30  C   UNL     1     -44.691  59.291 -54.932  1.00  0.00     0.030 A 
ENDBRANCH   1  25
BRANCH   5  31
HETATM   31  C   UNL     1     -43.531  61.060 -49.817  1.00  0.00     0.168 C 
BRANCH  31  32
HETATM   32  C   UNL     1     -43.767  62.506 -50.255  1.00  0.00     0.140 C 
HETATM   33  O   UNL     1     -42.529  63.234 -50.135  1.00  0.00    -0.384 OA
HETATM   34  C   UNL     1     -42.794  64.484 -49.483  1.00  0.00     0.168 C 
HETATM   35  C   UNL     1     -44.294  64.675 -49.519  1.00  0.00     0.029 C 
HETATM   36  C   UNL     1     -44.788  63.255 -49.413  1.00  0.00     0.036 C 
ENDBRANCH  31  32
ENDBRANCH   5  31
TORSDOF 6
ENDMDL
MODEL 6
REMARK VINA RESULT:      -8.0      2.033      5.236
REMARK  6 active torsions:
REMARK  status: ('A' for Active; 'I' for Inactive)
REMARK    1  A    between atoms: C_4  and  C_5 
REMARK    2  A    between atoms: C_5  and  N_6 
REMARK    3  A    between atoms: C_10  and  C_11 
REMARK    4  A    between atoms: C_11  and  C_12 
REMARK    5  A    between atoms: N_21  and  C_22 
REMARK    6  A    between atoms: C_22  and  C_23 
ROOT
HETATM    1  C   UNL     1     -42.856  59.767 -53.895  1.00  0.00     0.164 A 
HETATM    2  N   UNL     1     -43.795  58.660 -53.773  1.00  0.00    -0.319 N 
HETATM    3  C   UNL     1     -43.945  57.973 -54.955  1.00  0.00     0.326 A 
HETATM    4  O   UNL     1     -44.736  57.058 -55.087  1.00  0.00    -0.247 OA
HETATM    5  N   UNL     1     -43.064  58.456 -55.862  1.00  0.00    -0.265 N 
HETATM    6  C   UNL     1     -42.415  59.551 -55.360  1.00  0.00     0.263 A 
HETATM    7  O   UNL     1     -41.570  60.214 -55.945  1.00  0.00    -0.270 OA
HETATM    8  H   UNL     1     -44.660  58.810 -53.258  1.00  0.00     0.166 HD
ENDROOT
BRANCH   1   9
HETATM    9  C   UNL     1     -41.623  59.621 -52.931  1.00  0.00     0.033 C 
HETATM   10  C   UNL     1     -40.582  58.564 -53.346  1.00  0.00     0.036 C 
HETATM   11  C   UNL     1     -41.050  57.126 -53.179  1.00  0.00     0.235 C 
HETATM   12  N   UNL     1     -41.605  56.859 -51.801  1.00  0.00    -0.067 N 
HETATM   13  H   UNL     1     -40.789  56.774 -51.185  1.00  0.00     0.280 HD
HETATM   14  C   UNL     1     -42.504  57.928 -51.217  1.00  0.00     0.235 C 
HETATM   15  C   UNL     1     -41.958  59.328 -51.456  1.00  0.00     0.036 C 
BRANCH  12  16
HETATM   16  C   UNL     1     -42.331  55.511 -51.732  1.00  0.00     0.274 C 
BRANCH  16  17
HETATM   17  C   UNL     1     -41.433  54.300 -51.690  1.00  0.00    -0.026 A 
HETATM   18  C   UNL     1     -41.235  53.579 -52.889  1.00  0.00     0.016 A 
HETATM   19  C   UNL     1     -40.382  52.474 -52.945  1.00  0.00    -0.061 A 
HETATM   20  C   UNL     1     -40.159  51.729 -54.230  1.00  0.00     0.048 C 
HETATM   21  C   UNL     1     -39.721  52.076 -51.783  1.00  0.00     0.007 A 
HETATM   22  C   UNL     1     -39.919  52.766 -50.586  1.00  0.00     0.008 A 
HETATM   23  C   UNL     1     -40.762  53.887 -50.522  1.00  0.00    -0.054 A 
HETATM   24  C   UNL     1     -40.978  54.545 -49.186  1.00  0.00     0.049 C 
ENDBRANCH  16  17
ENDBRANCH  12  16
ENDBRANCH   1   9
BRANCH   1  25
HETATM   25  C   UNL     1     -43.612  61.071 -53.669  1.00  0.00     0.072 A 
HETATM   26  N   UNL     1     -42.821  62.184 -53.575  1.00  0.00    -0.262 NA
HETATM   27  C   UNL     1     -43.436  63.375 -53.377  1.00  0.00     0.117 A 
HETATM   28  C   UNL     1     -44.805  63.524 -53.275  1.00  0.00     0.019 A 
HETATM   29  C   UNL     1     -45.597  62.388 -53.385  1.00  0.00     0.003 A 
HETATM   30  C   UNL     1     -45.001  61.147 -53.595  1.00  0.00     0.030 A 
ENDBRANCH   1  25
BRANCH   5  31
HETATM   31  C   UNL     1     -42.836  57.881 -57.173  1.00  0.00     0.168 C 
BRANCH  31  32
HETATM   32  C   UNL     1     -43.656  58.518 -58.294  1.00  0.00     0.140 C 
HETATM   33  O   UNL     1     -44.570  57.533 -58.817  1.00  0.00    -0.384 OA
HETATM   34  C   UNL     1     -44.514  57.570 -60.250  1.00  0.00     0.168 C 
HETATM   35  C   UNL     1     -43.802  58.853 -60.617  1.00  0.00     0.029 C 
HETATM   36  C   UNL     1     -42.828  59.003 -59.475  1.00  0.00     0.036 C 
ENDBRANCH  31  32
ENDBRANCH   5  31
TORSDOF 6
ENDMDL
MODEL 7
REMARK VINA RESULT:      -8.0      2.520      7.742
REMARK  6 active torsions:
REMARK  status: ('A' for Active; 'I' for Inactive)
REMARK    1  A    between atoms: C_4  and  C_5 
REMARK    2  A    between atoms: C_5  and  N_6 
REMARK    3  A    between atoms: C_10  and  C_11 
REMARK    4  A    between atoms: C_11  and  C_12 
REMARK    5  A    between atoms: N_21  and  C_22 
REMARK    6  A    between atoms: C_22  and  C_23 
ROOT
HETATM    1  C   UNL     1     -42.256  57.339 -52.728  1.00  0.00     0.164 A 
HETATM    2  N   UNL     1     -41.746  57.190 -54.084  1.00  0.00    -0.319 N 
HETATM    3  C   UNL     1     -41.463  55.880 -54.392  1.00  0.00     0.326 A 
HETATM    4  O   UNL     1     -40.961  55.547 -55.450  1.00  0.00    -0.247 OA
HETATM    5  N   UNL     1     -41.870  55.088 -53.373  1.00  0.00    -0.265 N 
HETATM    6  C   UNL     1     -42.298  55.849 -52.319  1.00  0.00     0.263 A 
HETATM    7  O   UNL     1     -42.715  55.424 -51.251  1.00  0.00    -0.270 OA
HETATM    8  H   UNL     1     -41.061  57.862 -54.423  1.00  0.00     0.166 HD
ENDROOT
BRANCH   1   9
HETATM    9  C   UNL     1     -43.703  57.952 -52.691  1.00  0.00     0.033 C 
HETATM   10  C   UNL     1     -44.757  57.207 -53.533  1.00  0.00     0.036 C 
HETATM   11  C   UNL     1     -44.584  57.368 -55.036  1.00  0.00     0.235 C 
HETATM   12  N   UNL     1     -44.454  58.814 -55.448  1.00  0.00    -0.067 N 
HETATM   13  H   UNL     1     -45.404  59.200 -55.411  1.00  0.00     0.280 HD
HETATM   14  C   UNL     1     -43.577  59.687 -54.575  1.00  0.00     0.235 C 
HETATM   15  C   UNL     1     -43.811  59.435 -53.094  1.00  0.00     0.036 C 
BRANCH  12  16
HETATM   16  C   UNL     1     -43.996  58.952 -56.904  1.00  0.00     0.274 C 
BRANCH  16  17
HETATM   17  C   UNL     1     -44.769  58.125 -57.901  1.00  0.00    -0.026 A 
HETATM   18  C   UNL     1     -44.122  57.013 -58.484  1.00  0.00     0.016 A 
HETATM   19  C   UNL     1     -44.784  56.170 -59.380  1.00  0.00    -0.061 A 
HETATM   20  C   UNL     1     -44.095  54.976 -59.976  1.00  0.00     0.048 C 
HETATM   21  C   UNL     1     -46.112  56.446 -59.706  1.00  0.00     0.007 A 
HETATM   22  C   UNL     1     -46.760  57.552 -59.154  1.00  0.00     0.008 A 
HETATM   23  C   UNL     1     -46.110  58.396 -58.240  1.00  0.00    -0.054 A 
HETATM   24  C   UNL     1     -46.848  59.604 -57.731  1.00  0.00     0.049 C 
ENDBRANCH  16  17
ENDBRANCH  12  16
ENDBRANCH   1   9
BRANCH   1  25
HETATM   25  C   UNL     1     -41.260  58.166 -51.923  1.00  0.00     0.072 A 
HETATM   26  N   UNL     1     -40.109  58.487 -52.591  1.00  0.00    -0.262 NA
HETATM   27  C   UNL     1     -39.185  59.224 -51.929  1.00  0.00     0.117 A 
HETATM   28  C   UNL     1     -39.346  59.670 -50.631  1.00  0.00     0.019 A 
HETATM   29  C   UNL     1     -40.524  59.348 -49.970  1.00  0.00     0.003 A 
HETATM   30  C   UNL     1     -41.499  58.596 -50.621  1.00  0.00     0.030 A 
ENDBRANCH   1  25
BRANCH   5  31
HETATM   31  C   UNL     1     -41.864  53.638 -53.405  1.00  0.00     0.168 C 
BRANCH  31  32
HETATM   32  C   UNL     1     -40.479  53.009 -53.256  1.00  0.00     0.140 C 
HETATM   33  O   UNL     1     -40.369  51.907 -54.180  1.00  0.00    -0.384 OA
HETATM   34  C   UNL     1     -39.812  50.782 -53.487  1.00  0.00     0.168 C 
HETATM   35  C   UNL     1     -39.242  51.317 -52.192  1.00  0.00     0.029 C 
HETATM   36  C   UNL     1     -40.199  52.438 -51.874  1.00  0.00     0.036 C 
ENDBRANCH  31  32
ENDBRANCH   5  31
TORSDOF 6
ENDMDL
MODEL 8
REMARK VINA RESULT:      -8.0      1.526      2.227
REMARK  6 active torsions:
REMARK  status: ('A' for Active; 'I' for Inactive)
REMARK    1  A    between atoms: C_4  and  C_5 
REMARK    2  A    between atoms: C_5  and  N_6 
REMARK    3  A    between atoms: C_10  and  C_11 
REMARK    4  A    between atoms: C_11  and  C_12 
REMARK    5  A    between atoms: N_21  and  C_22 
REMARK    6  A    between atoms: C_22  and  C_23 
ROOT
HETATM    1  C   UNL     1     -43.332  57.576 -56.181  1.00  0.00     0.164 A 
HETATM    2  N   UNL     1     -42.026  57.880 -55.615  1.00  0.00    -0.319 N 
HETATM    3  C   UNL     1     -42.059  58.985 -54.796  1.00  0.00     0.326 A 
HETATM    4  O   UNL     1     -41.059  59.450 -54.279  1.00  0.00    -0.247 OA
HETATM    5  N   UNL     1     -43.342  59.392 -54.653  1.00  0.00    -0.265 N 
HETATM    6  C   UNL     1     -44.165  58.668 -55.472  1.00  0.00     0.263 A 
HETATM    7  O   UNL     1     -45.375  58.809 -55.577  1.00  0.00    -0.270 OA
HETATM    8  H   UNL     1     -41.209  57.826 -56.219  1.00  0.00     0.166 HD
ENDROOT
BRANCH   1   9
HETATM    9  C   UNL     1     -43.849  56.149 -55.773  1.00  0.00     0.033 C 
HETATM   10  C   UNL     1     -44.259  55.993 -54.296  1.00  0.00     0.036 C 
HETATM   11  C   UNL     1     -43.092  55.994 -53.320  1.00  0.00     0.235 C 
HETATM   12  N   UNL     1     -42.014  55.013 -53.712  1.00  0.00    -0.067 N 
HETATM   13  H   UNL     1     -42.371  54.088 -53.446  1.00  0.00     0.280 HD
HETATM   14  C   UNL     1     -41.658  54.954 -55.182  1.00  0.00     0.235 C 
HETATM   15  C   UNL     1     -42.892  54.980 -56.071  1.00  0.00     0.036 C 
BRANCH  12  16
HETATM   16  C   UNL     1     -40.731  55.223 -52.900  1.00  0.00     0.274 C 
BRANCH  16  17
HETATM   17  C   UNL     1     -40.700  54.534 -51.559  1.00  0.00    -0.026 A 
HETATM   18  C   UNL     1     -40.521  53.133 -51.537  1.00  0.00     0.016 A 
HETATM   19  C   UNL     1     -40.435  52.426 -50.335  1.00  0.00    -0.061 A 
HETATM   20  C   UNL     1     -40.219  50.940 -50.321  1.00  0.00     0.048 C 
HETATM   21  C   UNL     1     -40.538  53.128 -49.134  1.00  0.00     0.007 A 
HETATM   22  C   UNL     1     -40.735  54.510 -49.138  1.00  0.00     0.008 A 
HETATM   23  C   UNL     1     -40.807  55.232 -50.340  1.00  0.00    -0.054 A 
HETATM   24  C   UNL     1     -41.082  56.710 -50.271  1.00  0.00     0.049 C 
ENDBRANCH  16  17
ENDBRANCH  12  16
ENDBRANCH   1   9
BRANCH   1  25
HETATM   25  C   UNL     1     -43.258  57.751 -57.694  1.00  0.00     0.072 A 
HETATM   26  N   UNL     1     -44.455  57.625 -58.346  1.00  0.00    -0.262 NA
HETATM   27  C   UNL     1     -44.454  57.773 -59.692  1.00  0.00     0.117 A 
HETATM   28  C   UNL     1     -43.321  58.048 -60.433  1.00  0.00     0.019 A 
HETATM   29  C   UNL     1     -42.115  58.186 -59.758  1.00  0.00     0.003 A 
HETATM   30  C   UNL     1     -42.078  58.046 -58.372  1.00  0.00     0.030 A 
ENDBRANCH   1  25
BRANCH   5  31
HETATM   31  C   UNL     1     -43.776  60.438 -53.748  1.00  0.00     0.168 C 
BRANCH  31  32
HETATM   32  C   UNL     1     -43.722  60.056 -52.269  1.00  0.00     0.140 C 
HETATM   33  O   UNL     1     -45.041  60.201 -51.704  1.00  0.00    -0.384 OA
HETATM   34  C   UNL     1     -44.931  60.900 -50.457  1.00  0.00     0.168 C 
HETATM   35  C   UNL     1     -43.466  60.876 -50.080  1.00  0.00     0.029 C 
HETATM   36  C   UNL     1     -42.800  60.930 -51.432  1.00  0.00     0.036 C 
ENDBRANCH  31  32
ENDBRANCH   5  31
TORSDOF 6
ENDMDL
MODEL 9
REMARK VINA RESULT:      -7.9      2.997      5.276
REMARK  6 active torsions:
REMARK  status: ('A' for Active; 'I' for Inactive)
REMARK    1  A    between atoms: C_4  and  C_5 
REMARK    2  A    between atoms: C_5  and  N_6 
REMARK    3  A    between atoms: C_10  and  C_11 
REMARK    4  A    between atoms: C_11  and  C_12 
REMARK    5  A    between atoms: N_21  and  C_22 
REMARK    6  A    between atoms: C_22  and  C_23 
ROOT
HETATM    1  C   UNL     1     -43.805  58.667 -57.362  1.00  0.00     0.164 A 
HETATM    2  N   UNL     1     -42.375  58.894 -57.212  1.00  0.00    -0.319 N 
HETATM    3  C   UNL     1     -41.991  60.125 -57.688  1.00  0.00     0.326 A 
HETATM    4  O   UNL     1     -40.828  60.484 -57.722  1.00  0.00    -0.247 OA
HETATM    5  N   UNL     1     -43.093  60.826 -58.043  1.00  0.00    -0.265 N 
HETATM    6  C   UNL     1     -44.209  60.040 -57.946  1.00  0.00     0.263 A 
HETATM    7  O   UNL     1     -45.353  60.384 -58.208  1.00  0.00    -0.270 OA
HETATM    8  H   UNL     1     -41.735  58.134 -57.438  1.00  0.00     0.166 HD
ENDROOT
BRANCH   1   9
HETATM    9  C   UNL     1     -44.526  58.430 -55.986  1.00  0.00     0.033 C 
HETATM   10  C   UNL     1     -43.976  59.249 -54.803  1.00  0.00     0.036 C 
HETATM   11  C   UNL     1     -42.608  58.800 -54.314  1.00  0.00     0.235 C 
HETATM   12  N   UNL     1     -42.553  57.316 -54.045  1.00  0.00    -0.067 N 
HETATM   13  H   UNL     1     -43.033  57.178 -53.148  1.00  0.00     0.280 HD
HETATM   14  C   UNL     1     -43.228  56.421 -55.061  1.00  0.00     0.235 C 
HETATM   15  C   UNL     1     -44.577  56.969 -55.501  1.00  0.00     0.036 C 
BRANCH  12  16
HETATM   16  C   UNL     1     -41.115  56.828 -53.834  1.00  0.00     0.274 C 
BRANCH  16  17
HETATM   17  C   UNL     1     -40.979  55.553 -53.040  1.00  0.00    -0.026 A 
HETATM   18  C   UNL     1     -41.274  55.597 -51.659  1.00  0.00     0.016 A 
HETATM   19  C   UNL     1     -41.219  54.450 -50.863  1.00  0.00    -0.061 A 
HETATM   20  C   UNL     1     -41.558  54.501 -49.401  1.00  0.00     0.048 C 
HETATM   21  C   UNL     1     -40.854  53.240 -51.454  1.00  0.00     0.007 A 
HETATM   22  C   UNL     1     -40.540  53.183 -52.813  1.00  0.00     0.008 A 
HETATM   23  C   UNL     1     -40.609  54.326 -53.625  1.00  0.00    -0.054 A 
HETATM   24  C   UNL     1     -40.198  54.205 -55.067  1.00  0.00     0.049 C 
ENDBRANCH  16  17
ENDBRANCH  12  16
ENDBRANCH   1   9
BRANCH   1  25
HETATM   25  C   UNL     1     -44.014  57.507 -58.329  1.00  0.00     0.072 A 
HETATM   26  N   UNL     1     -45.289  57.384 -58.812  1.00  0.00    -0.262 NA
HETATM   27  C   UNL     1     -45.536  56.373 -59.678  1.00  0.00     0.117 A 
HETATM   28  C   UNL     1     -44.577  55.473 -60.101  1.00  0.00     0.019 A 
HETATM   29  C   UNL     1     -43.285  55.616 -59.614  1.00  0.00     0.003 A 
HETATM   30  C   UNL     1     -42.991  56.648 -58.725  1.00  0.00     0.030 A 
ENDBRANCH   1  25
BRANCH   5  31
HETATM   31  C   UNL     1     -43.087  62.217 -58.453  1.00  0.00     0.168 C 
BRANCH  31  32
HETATM   32  C   UNL     1     -42.718  62.442 -59.919  1.00  0.00     0.140 C 
HETATM   33  O   UNL     1     -42.930  61.214 -60.644  1.00  0.00    -0.384 OA
HETATM   34  C   UNL     1     -41.786  60.969 -61.474  1.00  0.00     0.168 C 
HETATM   35  C   UNL     1     -41.005  62.263 -61.518  1.00  0.00     0.029 C 
HETATM   36  C   UNL     1     -41.264  62.828 -60.144  1.00  0.00     0.036 C 
ENDBRANCH  31  32
ENDBRANCH   5  31
TORSDOF 6
ENDMDL
MODEL 10
REMARK VINA RESULT:      -7.8      2.566      8.110
REMARK  6 active torsions:
REMARK  status: ('A' for Active; 'I' for Inactive)
REMARK    1  A    between atoms: C_4  and  C_5 
REMARK    2  A    between atoms: C_5  and  N_6 
REMARK    3  A    between atoms: C_10  and  C_11 
REMARK    4  A    between atoms: C_11  and  C_12 
REMARK    5  A    between atoms: N_21  and  C_22 
REMARK    6  A    between atoms: C_22  and  C_23 
ROOT
HETATM    1  C   UNL     1     -42.115  55.968 -53.378  1.00  0.00     0.164 A 
HETATM    2  N   UNL     1     -41.200  55.819 -54.501  1.00  0.00    -0.319 N 
HETATM    3  C   UNL     1     -40.239  54.864 -54.265  1.00  0.00     0.326 A 
HETATM    4  O   UNL     1     -39.335  54.634 -55.047  1.00  0.00    -0.247 OA
HETATM    5  N   UNL     1     -40.510  54.243 -53.093  1.00  0.00    -0.265 N 
HETATM    6  C   UNL     1     -41.559  54.855 -52.462  1.00  0.00     0.263 A 
HETATM    7  O   UNL     1     -42.031  54.532 -51.381  1.00  0.00    -0.270 OA
HETATM    8  H   UNL     1     -40.857  56.659 -54.964  1.00  0.00     0.166 HD
ENDROOT
BRANCH   1   9
HETATM    9  C   UNL     1     -43.605  55.655 -53.768  1.00  0.00     0.033 C 
HETATM   10  C   UNL     1     -43.808  54.409 -54.652  1.00  0.00     0.036 C 
HETATM   11  C   UNL     1     -43.328  54.576 -56.086  1.00  0.00     0.235 C 
HETATM   12  N   UNL     1     -43.878  55.823 -56.735  1.00  0.00    -0.067 N 
HETATM   13  H   UNL     1     -44.852  55.603 -56.976  1.00  0.00     0.280 HD
HETATM   14  C   UNL     1     -43.895  57.074 -55.884  1.00  0.00     0.235 C 
HETATM   15  C   UNL     1     -44.368  56.797 -54.466  1.00  0.00     0.036 C 
BRANCH  12  16
HETATM   16  C   UNL     1     -43.173  56.133 -58.060  1.00  0.00     0.274 C 
BRANCH  16  17
HETATM   17  C   UNL     1     -43.914  57.074 -58.976  1.00  0.00    -0.026 A 
HETATM   18  C   UNL     1     -45.167  56.659 -59.481  1.00  0.00     0.016 A 
HETATM   19  C   UNL     1     -45.938  57.491 -60.297  1.00  0.00    -0.061 A 
HETATM   20  C   UNL     1     -47.279  57.050 -60.809  1.00  0.00     0.048 C 
HETATM   21  C   UNL     1     -45.446  58.755 -60.624  1.00  0.00     0.007 A 
HETATM   22  C   UNL     1     -44.201  59.173 -60.149  1.00  0.00     0.008 A 
HETATM   23  C   UNL     1     -43.427  58.352 -59.315  1.00  0.00    -0.054 A 
HETATM   24  C   UNL     1     -42.068  58.842 -58.891  1.00  0.00     0.049 C 
ENDBRANCH  16  17
ENDBRANCH  12  16
ENDBRANCH   1   9
BRANCH   1  25
HETATM   25  C   UNL     1     -41.953  57.370 -52.802  1.00  0.00     0.072 A 
HETATM   26  N   UNL     1     -42.393  57.517 -51.514  1.00  0.00    -0.262 NA
HETATM   27  C   UNL     1     -42.273  58.740 -50.946  1.00  0.00     0.117 A 
HETATM   28  C   UNL     1     -41.729  59.835 -51.590  1.00  0.00     0.019 A 
HETATM   29  C   UNL     1     -41.275  59.670 -52.892  1.00  0.00     0.003 A 
HETATM   30  C   UNL     1     -41.376  58.424 -53.507  1.00  0.00     0.030 A 
ENDBRANCH   1  25
BRANCH   5  31
HETATM   31  C   UNL     1     -39.796  53.086 -52.592  1.00  0.00     0.168 C 
BRANCH  31  32
HETATM   32  C   UNL     1     -40.419  51.744 -52.974  1.00  0.00     0.140 C 
HETATM   33  O   UNL     1     -39.859  50.716 -52.133  1.00  0.00    -0.384 OA
HETATM   34  C   UNL     1     -39.492  49.599 -52.957  1.00  0.00     0.168 C 
HETATM   35  C   UNL     1     -40.168  49.814 -54.293  1.00  0.00     0.029 C 
HETATM   36  C   UNL     1     -40.151  51.317 -54.409  1.00  0.00     0.036 C 
ENDBRANCH  31  32
ENDBRANCH   5  31
TORSDOF 6
ENDMDL
