MODEL 1
REMARK VINA RESULT:      -8.3      0.000      0.000
REMARK  6 active torsions:
REMARK  status: ('A' for Active; 'I' for Inactive)
REMARK    1  A    between atoms: C_3  and  N_4 
REMARK    2  A    between atoms: N_4  and  C_5 
REMARK    3  A    between atoms: C_12  and  C_13 
REMARK       I    between atoms: C_13  and  N_14 
REMARK    4  A    between atoms: N_14  and  C_15 
REMARK    5  A    between atoms: C_15  and  C_16 
REMARK    6  A    between atoms: C_16  and  C_17 
ROOT
HETATM    1  C   UNL     1     -41.229  57.242 -50.588  1.00  0.00     0.251 C 
HETATM    2  N   UNL     1     -42.564  57.549 -50.780  1.00  0.00    -0.357 N 
HETATM    3  O   UNL     1     -40.327  58.058 -50.756  1.00  0.00    -0.268 OA
HETATM    4  H   UNL     1     -43.221  56.788 -50.899  1.00  0.00     0.162 HD
ENDROOT
BRANCH   1   5
HETATM    5  C   UNL     1     -40.900  55.841 -50.202  1.00  0.00     0.034 A 
HETATM    6  C   UNL     1     -40.169  54.981 -51.037  1.00  0.00     0.047 A 
HETATM    7  C   UNL     1     -39.873  53.670 -50.643  1.00  0.00     0.050 A 
HETATM    8  C   UNL     1     -40.349  53.234 -49.395  1.00  0.00     0.030 A 
HETATM    9  C   UNL     1     -41.092  54.074 -48.564  1.00  0.00     0.003 A 
HETATM   10  C   UNL     1     -41.368  55.376 -48.968  1.00  0.00     0.017 A 
BRANCH   7  11
HETATM   11  N   UNL     1     -39.145  52.765 -51.425  1.00  0.00    -0.188 N 
HETATM   12  H   UNL     1     -38.139  52.823 -51.381  1.00  0.00     0.184 HD
BRANCH  11  13
HETATM   13  C   UNL     1     -39.489  51.781 -52.345  1.00  0.00     0.726 A 
HETATM   14  N   UNL     1     -39.843  52.075 -53.605  1.00  0.00    -0.075 NA
HETATM   15  C   UNL     1     -40.165  51.046 -54.413  1.00  0.00     0.138 A 
HETATM   16  C   UNL     1     -40.138  49.733 -54.018  1.00  0.00     0.040 A 
HETATM   17  C   UNL     1     -39.762  49.528 -52.716  1.00  0.00     0.138 A 
HETATM   18  N   UNL     1     -39.439  50.524 -51.869  1.00  0.00    -0.075 NA
ENDBRANCH  11  13
ENDBRANCH   7  11
ENDBRANCH   1   5
BRANCH   2  19
HETATM   19  C   UNL     1     -42.938  58.840 -51.330  1.00  0.00     0.127 C 
BRANCH  19  20
HETATM   20  C   UNL     1     -42.837  58.901 -52.854  1.00  0.00     0.060 C 
BRANCH  20  21
HETATM   21  C   UNL     1     -43.390  57.695 -53.554  1.00  0.00    -0.029 A 
HETATM   22  C   UNL     1     -42.643  56.626 -54.151  1.00  0.00     0.001 A 
HETATM   23  C   UNL     1     -43.562  55.699 -54.651  1.00  0.00     0.043 A 
HETATM   24  C   UNL     1     -41.269  56.356 -54.304  1.00  0.00     0.056 A 
HETATM   25  C   UNL     1     -43.179  54.515 -55.294  1.00  0.00     0.033 A 
HETATM   26  N   UNL     1     -44.818  56.187 -54.376  1.00  0.00    -0.365 N 
HETATM   27  C   UNL     1     -41.811  54.269 -55.431  1.00  0.00     0.044 A 
HETATM   28  C   UNL     1     -40.882  55.177 -54.942  1.00  0.00     0.117 A 
HETATM   29  F   UNL     1     -39.575  54.920 -55.099  1.00  0.00    -0.206 F 
HETATM   30  H   UNL     1     -45.681  55.721 -54.620  1.00  0.00     0.165 HD
HETATM   31  C   UNL     1     -44.726  57.378 -53.708  1.00  0.00     0.096 A 
ENDBRANCH  20  21
ENDBRANCH  19  20
ENDBRANCH   2  19
TORSDOF 6
ENDMDL
MODEL 2
REMARK VINA RESULT:      -8.0      2.706      6.370
REMARK  6 active torsions:
REMARK  status: ('A' for Active; 'I' for Inactive)
REMARK    1  A    between atoms: C_3  and  N_4 
REMARK    2  A    between atoms: N_4  and  C_5 
REMARK    3  A    between atoms: C_12  and  C_13 
REMARK       I    between atoms: C_13  and  N_14 
REMARK    4  A    between atoms: N_14  and  C_15 
REMARK    5  A    between atoms: C_15  and  C_16 
REMARK    6  A    between atoms: C_16  and  C_17 
ROOT
HETATM    1  C   UNL     1     -43.224  55.057 -51.610  1.00  0.00     0.251 C 
HETATM    2  N   UNL     1     -42.368  55.641 -50.695  1.00  0.00    -0.357 N 
HETATM    3  O   UNL     1     -43.633  53.905 -51.500  1.00  0.00    -0.268 OA
HETATM    4  H   UNL     1     -41.855  56.468 -50.974  1.00  0.00     0.162 HD
ENDROOT
BRANCH   1   5
HETATM    5  C   UNL     1     -43.618  55.874 -52.793  1.00  0.00     0.034 A 
HETATM    6  C   UNL     1     -43.388  55.450 -54.112  1.00  0.00     0.047 A 
HETATM    7  C   UNL     1     -43.772  56.240 -55.203  1.00  0.00     0.050 A 
HETATM    8  C   UNL     1     -44.377  57.481 -54.937  1.00  0.00     0.030 A 
HETATM    9  C   UNL     1     -44.595  57.920 -53.630  1.00  0.00     0.003 A 
HETATM   10  C   UNL     1     -44.215  57.118 -52.560  1.00  0.00     0.017 A 
BRANCH   7  11
HETATM   11  N   UNL     1     -43.576  55.875 -56.540  1.00  0.00    -0.188 N 
HETATM   12  H   UNL     1     -43.861  54.944 -56.809  1.00  0.00     0.184 HD
BRANCH  11  13
HETATM   13  C   UNL     1     -43.001  56.496 -57.642  1.00  0.00     0.726 A 
HETATM   14  N   UNL     1     -42.391  57.687 -57.552  1.00  0.00    -0.075 NA
HETATM   15  C   UNL     1     -41.874  58.204 -58.683  1.00  0.00     0.138 A 
HETATM   16  C   UNL     1     -41.931  57.576 -59.901  1.00  0.00     0.040 A 
HETATM   17  C   UNL     1     -42.570  56.364 -59.898  1.00  0.00     0.138 A 
HETATM   18  N   UNL     1     -43.109  55.810 -58.794  1.00  0.00    -0.075 NA
ENDBRANCH  11  13
ENDBRANCH   7  11
ENDBRANCH   1   5
BRANCH   2  19
HETATM   19  C   UNL     1     -41.805  54.842 -49.620  1.00  0.00     0.127 C 
BRANCH  19  20
HETATM   20  C   UNL     1     -40.359  54.416 -49.877  1.00  0.00     0.060 C 
BRANCH  20  21
HETATM   21  C   UNL     1     -40.224  53.103 -50.589  1.00  0.00    -0.029 A 
HETATM   22  C   UNL     1     -40.190  52.890 -52.007  1.00  0.00     0.001 A 
HETATM   23  C   UNL     1     -40.014  51.520 -52.222  1.00  0.00     0.043 A 
HETATM   24  C   UNL     1     -40.281  53.737 -53.129  1.00  0.00     0.056 A 
HETATM   25  C   UNL     1     -39.922  50.954 -53.500  1.00  0.00     0.033 A 
HETATM   26  N   UNL     1     -39.951  50.922 -50.986  1.00  0.00    -0.365 N 
HETATM   27  C   UNL     1     -40.013  51.816 -54.596  1.00  0.00     0.044 A 
HETATM   28  C   UNL     1     -40.189  53.179 -54.404  1.00  0.00     0.117 A 
HETATM   29  F   UNL     1     -40.286  53.980 -55.474  1.00  0.00    -0.206 F 
HETATM   30  H   UNL     1     -39.823  49.931 -50.833  1.00  0.00     0.165 HD
HETATM   31  C   UNL     1     -40.065  51.863 -49.999  1.00  0.00     0.096 A 
ENDBRANCH  20  21
ENDBRANCH  19  20
ENDBRANCH   2  19
TORSDOF 6
ENDMDL
MODEL 3
REMARK VINA RESULT:      -7.9      4.818      8.971
REMARK  6 active torsions:
REMARK  status: ('A' for Active; 'I' for Inactive)
REMARK    1  A    between atoms: C_3  and  N_4 
REMARK    2  A    between atoms: N_4  and  C_5 
REMARK    3  A    between atoms: C_12  and  C_13 
REMARK       I    between atoms: C_13  and  N_14 
REMARK    4  A    between atoms: N_14  and  C_15 
REMARK    5  A    between atoms: C_15  and  C_16 
REMARK    6  A    between atoms: C_16  and  C_17 
ROOT
HETATM    1  C   UNL     1     -42.856  56.032 -56.237  1.00  0.00     0.251 C 
HETATM    2  N   UNL     1     -41.881  55.075 -56.022  1.00  0.00    -0.357 N 
HETATM    3  O   UNL     1     -43.684  56.342 -55.385  1.00  0.00    -0.268 OA
HETATM    4  H   UNL     1     -41.419  54.669 -56.826  1.00  0.00     0.162 HD
ENDROOT
BRANCH   1   5
HETATM    5  C   UNL     1     -42.905  56.665 -57.585  1.00  0.00     0.034 A 
HETATM    6  C   UNL     1     -42.909  58.058 -57.763  1.00  0.00     0.047 A 
HETATM    7  C   UNL     1     -42.953  58.622 -59.045  1.00  0.00     0.050 A 
HETATM    8  C   UNL     1     -43.013  57.751 -60.146  1.00  0.00     0.030 A 
HETATM    9  C   UNL     1     -43.027  56.365 -59.980  1.00  0.00     0.003 A 
HETATM   10  C   UNL     1     -42.974  55.823 -58.700  1.00  0.00     0.017 A 
BRANCH   7  11
HETATM   11  N   UNL     1     -42.955  60.000 -59.292  1.00  0.00    -0.188 N 
HETATM   12  H   UNL     1     -43.853  60.458 -59.340  1.00  0.00     0.184 HD
BRANCH  11  13
HETATM   13  C   UNL     1     -41.966  60.940 -59.559  1.00  0.00     0.726 A 
HETATM   14  N   UNL     1     -41.754  61.422 -60.792  1.00  0.00    -0.075 NA
HETATM   15  C   UNL     1     -40.765  62.324 -60.943  1.00  0.00     0.138 A 
HETATM   16  C   UNL     1     -39.985  62.775 -59.908  1.00  0.00     0.040 A 
HETATM   17  C   UNL     1     -40.275  62.231 -58.685  1.00  0.00     0.138 A 
HETATM   18  N   UNL     1     -41.248  61.321 -58.487  1.00  0.00    -0.075 NA
ENDBRANCH  11  13
ENDBRANCH   7  11
ENDBRANCH   1   5
BRANCH   2  19
HETATM   19  C   UNL     1     -41.892  54.293 -54.798  1.00  0.00     0.127 C 
BRANCH  19  20
HETATM   20  C   UNL     1     -40.796  54.700 -53.811  1.00  0.00     0.060 C 
BRANCH  20  21
HETATM   21  C   UNL     1     -40.478  53.656 -52.783  1.00  0.00    -0.029 A 
HETATM   22  C   UNL     1     -40.189  52.272 -53.020  1.00  0.00     0.001 A 
HETATM   23  C   UNL     1     -39.913  51.682 -51.783  1.00  0.00     0.043 A 
HETATM   24  C   UNL     1     -40.125  51.466 -54.174  1.00  0.00     0.056 A 
HETATM   25  C   UNL     1     -39.575  50.330 -51.640  1.00  0.00     0.033 A 
HETATM   26  N   UNL     1     -40.037  52.666 -50.830  1.00  0.00    -0.365 N 
HETATM   27  C   UNL     1     -39.516  49.554 -52.800  1.00  0.00     0.044 A 
HETATM   28  C   UNL     1     -39.787  50.120 -54.038  1.00  0.00     0.117 A 
HETATM   29  F   UNL     1     -39.735  49.348 -55.133  1.00  0.00    -0.206 F 
HETATM   30  H   UNL     1     -39.890  52.528 -49.840  1.00  0.00     0.165 HD
HETATM   31  C   UNL     1     -40.364  53.856 -51.420  1.00  0.00     0.096 A 
ENDBRANCH  20  21
ENDBRANCH  19  20
ENDBRANCH   2  19
TORSDOF 6
ENDMDL
MODEL 4
REMARK VINA RESULT:      -7.7      2.636      2.794
REMARK  6 active torsions:
REMARK  status: ('A' for Active; 'I' for Inactive)
REMARK    1  A    between atoms: C_3  and  N_4 
REMARK    2  A    between atoms: N_4  and  C_5 
REMARK    3  A    between atoms: C_12  and  C_13 
REMARK       I    between atoms: C_13  and  N_14 
REMARK    4  A    between atoms: N_14  and  C_15 
REMARK    5  A    between atoms: C_15  and  C_16 
REMARK    6  A    between atoms: C_16  and  C_17 
ROOT
HETATM    1  C   UNL     1     -41.572  56.851 -51.825  1.00  0.00     0.251 C 
HETATM    2  N   UNL     1     -41.162  56.800 -53.145  1.00  0.00    -0.357 N 
HETATM    3  O   UNL     1     -42.211  57.791 -51.362  1.00  0.00    -0.268 OA
HETATM    4  H   UNL     1     -40.420  56.158 -53.395  1.00  0.00     0.162 HD
ENDROOT
BRANCH   1   5
HETATM    5  C   UNL     1     -41.167  55.721 -50.941  1.00  0.00     0.034 A 
HETATM    6  C   UNL     1     -40.608  54.535 -51.442  1.00  0.00     0.047 A 
HETATM    7  C   UNL     1     -40.235  53.493 -50.584  1.00  0.00     0.050 A 
HETATM    8  C   UNL     1     -40.459  53.662 -49.207  1.00  0.00     0.030 A 
HETATM    9  C   UNL     1     -41.030  54.830 -48.699  1.00  0.00     0.003 A 
HETATM   10  C   UNL     1     -41.385  55.858 -49.566  1.00  0.00     0.017 A 
BRANCH   7  11
HETATM   11  N   UNL     1     -39.669  52.289 -51.018  1.00  0.00    -0.188 N 
HETATM   12  H   UNL     1     -38.998  51.848 -50.406  1.00  0.00     0.184 HD
BRANCH  11  13
HETATM   13  C   UNL     1     -39.767  51.532 -52.180  1.00  0.00     0.726 A 
HETATM   14  N   UNL     1     -40.093  52.077 -53.361  1.00  0.00    -0.075 NA
HETATM   15  C   UNL     1     -40.169  51.253 -54.423  1.00  0.00     0.138 A 
HETATM   16  C   UNL     1     -39.921  49.905 -54.358  1.00  0.00     0.040 A 
HETATM   17  C   UNL     1     -39.594  49.437 -53.113  1.00  0.00     0.138 A 
HETATM   18  N   UNL     1     -39.513  50.221 -52.021  1.00  0.00    -0.075 NA
ENDBRANCH  11  13
ENDBRANCH   7  11
ENDBRANCH   1   5
BRANCH   2  19
HETATM   19  C   UNL     1     -41.366  57.948 -54.011  1.00  0.00     0.127 C 
BRANCH  19  20
HETATM   20  C   UNL     1     -42.750  57.977 -54.661  1.00  0.00     0.060 C 
BRANCH  20  21
HETATM   21  C   UNL     1     -42.922  56.994 -55.780  1.00  0.00    -0.029 A 
HETATM   22  C   UNL     1     -42.683  57.224 -57.175  1.00  0.00     0.001 A 
HETATM   23  C   UNL     1     -42.934  56.026 -57.848  1.00  0.00     0.043 A 
HETATM   24  C   UNL     1     -42.265  58.339 -57.928  1.00  0.00     0.056 A 
HETATM   25  C   UNL     1     -42.787  55.883 -59.234  1.00  0.00     0.033 A 
HETATM   26  N   UNL     1     -43.318  55.104 -56.903  1.00  0.00    -0.365 N 
HETATM   27  C   UNL     1     -42.369  57.003 -59.957  1.00  0.00     0.044 A 
HETATM   28  C   UNL     1     -42.115  58.203 -59.308  1.00  0.00     0.117 A 
HETATM   29  F   UNL     1     -41.727  59.264 -60.029  1.00  0.00    -0.206 F 
HETATM   30  H   UNL     1     -43.560  54.143 -57.102  1.00  0.00     0.165 HD
HETATM   31  C   UNL     1     -43.304  55.671 -55.658  1.00  0.00     0.096 A 
ENDBRANCH  20  21
ENDBRANCH  19  20
ENDBRANCH   2  19
TORSDOF 6
ENDMDL
MODEL 5
REMARK VINA RESULT:      -7.7      3.074      7.039
REMARK  6 active torsions:
REMARK  status: ('A' for Active; 'I' for Inactive)
REMARK    1  A    between atoms: C_3  and  N_4 
REMARK    2  A    between atoms: N_4  and  C_5 
REMARK    3  A    between atoms: C_12  and  C_13 
REMARK       I    between atoms: C_13  and  N_14 
REMARK    4  A    between atoms: N_14  and  C_15 
REMARK    5  A    between atoms: C_15  and  C_16 
REMARK    6  A    between atoms: C_16  and  C_17 
ROOT
HETATM    1  C   UNL     1     -43.843  56.877 -52.220  1.00  0.00     0.251 C 
HETATM    2  N   UNL     1     -42.776  56.042 -52.494  1.00  0.00    -0.357 N 
HETATM    3  O   UNL     1     -44.380  56.933 -51.118  1.00  0.00    -0.268 OA
HETATM    4  H   UNL     1     -42.561  55.835 -53.461  1.00  0.00     0.162 HD
ENDROOT
BRANCH   1   5
HETATM    5  C   UNL     1     -44.369  57.703 -53.344  1.00  0.00     0.034 A 
HETATM    6  C   UNL     1     -44.439  57.225 -54.662  1.00  0.00     0.047 A 
HETATM    7  C   UNL     1     -44.941  58.026 -55.696  1.00  0.00     0.050 A 
HETATM    8  C   UNL     1     -45.353  59.331 -55.377  1.00  0.00     0.030 A 
HETATM    9  C   UNL     1     -45.272  59.823 -54.073  1.00  0.00     0.003 A 
HETATM   10  C   UNL     1     -44.780  59.010 -53.058  1.00  0.00     0.017 A 
BRANCH   7  11
HETATM   11  N   UNL     1     -45.042  57.609 -57.028  1.00  0.00    -0.188 N 
HETATM   12  H   UNL     1     -45.960  57.358 -57.364  1.00  0.00     0.184 HD
BRANCH  11  13
HETATM   13  C   UNL     1     -44.125  57.389 -58.049  1.00  0.00     0.726 A 
HETATM   14  N   UNL     1     -44.344  56.496 -59.026  1.00  0.00    -0.075 NA
HETATM   15  C   UNL     1     -43.387  56.355 -59.962  1.00  0.00     0.138 A 
HETATM   16  C   UNL     1     -42.221  57.078 -59.971  1.00  0.00     0.040 A 
HETATM   17  C   UNL     1     -42.084  57.967 -58.938  1.00  0.00     0.138 A 
HETATM   18  N   UNL     1     -43.010  58.137 -57.975  1.00  0.00    -0.075 NA
ENDBRANCH  11  13
ENDBRANCH   7  11
ENDBRANCH   1   5
BRANCH   2  19
HETATM   19  C   UNL     1     -42.334  55.083 -51.497  1.00  0.00     0.127 C 
BRANCH  19  20
HETATM   20  C   UNL     1     -40.853  54.722 -51.621  1.00  0.00     0.060 C 
BRANCH  20  21
HETATM   21  C   UNL     1     -40.559  53.687 -52.666  1.00  0.00    -0.029 A 
HETATM   22  C   UNL     1     -40.165  52.327 -52.447  1.00  0.00     0.001 A 
HETATM   23  C   UNL     1     -40.037  51.719 -53.699  1.00  0.00     0.043 A 
HETATM   24  C   UNL     1     -39.914  51.551 -51.298  1.00  0.00     0.056 A 
HETATM   25  C   UNL     1     -39.674  50.376 -53.863  1.00  0.00     0.033 A 
HETATM   26  N   UNL     1     -40.335  52.672 -54.643  1.00  0.00    -0.365 N 
HETATM   27  C   UNL     1     -39.434  49.627 -52.707  1.00  0.00     0.044 A 
HETATM   28  C   UNL     1     -39.554  50.212 -51.455  1.00  0.00     0.117 A 
HETATM   29  F   UNL     1     -39.305  49.473 -50.364  1.00  0.00    -0.206 F 
HETATM   30  H   UNL     1     -40.328  52.514 -55.642  1.00  0.00     0.165 HD
HETATM   31  C   UNL     1     -40.660  53.854 -54.035  1.00  0.00     0.096 A 
ENDBRANCH  20  21
ENDBRANCH  19  20
ENDBRANCH   2  19
TORSDOF 6
ENDMDL
MODEL 6
REMARK VINA RESULT:      -7.6      3.182      6.802
REMARK  6 active torsions:
REMARK  status: ('A' for Active; 'I' for Inactive)
REMARK    1  A    between atoms: C_3  and  N_4 
REMARK    2  A    between atoms: N_4  and  C_5 
REMARK    3  A    between atoms: C_12  and  C_13 
REMARK       I    between atoms: C_13  and  N_14 
REMARK    4  A    between atoms: N_14  and  C_15 
REMARK    5  A    between atoms: C_15  and  C_16 
REMARK    6  A    between atoms: C_16  and  C_17 
ROOT
HETATM    1  C   UNL     1     -43.021  56.857 -53.405  1.00  0.00     0.251 C 
HETATM    2  N   UNL     1     -42.314  57.244 -52.282  1.00  0.00    -0.357 N 
HETATM    3  O   UNL     1     -43.827  55.933 -53.399  1.00  0.00    -0.268 OA
HETATM    4  H   UNL     1     -41.482  57.809 -52.406  1.00  0.00     0.162 HD
ENDROOT
BRANCH   1   5
HETATM    5  C   UNL     1     -42.738  57.587 -54.674  1.00  0.00     0.034 A 
HETATM    6  C   UNL     1     -42.802  56.966 -55.931  1.00  0.00     0.047 A 
HETATM    7  C   UNL     1     -42.534  57.681 -57.105  1.00  0.00     0.050 A 
HETATM    8  C   UNL     1     -42.178  59.035 -56.985  1.00  0.00     0.030 A 
HETATM    9  C   UNL     1     -42.094  59.659 -55.739  1.00  0.00     0.003 A 
HETATM   10  C   UNL     1     -42.373  58.935 -54.585  1.00  0.00     0.017 A 
BRANCH   7  11
HETATM   11  N   UNL     1     -42.584  57.123 -58.388  1.00  0.00    -0.188 N 
HETATM   12  H   UNL     1     -41.740  57.163 -58.941  1.00  0.00     0.184 HD
BRANCH  11  13
HETATM   13  C   UNL     1     -43.587  56.542 -59.156  1.00  0.00     0.726 A 
HETATM   14  N   UNL     1     -43.470  55.306 -59.664  1.00  0.00    -0.075 NA
HETATM   15  C   UNL     1     -44.497  54.841 -60.401  1.00  0.00     0.138 A 
HETATM   16  C   UNL     1     -45.643  55.555 -60.643  1.00  0.00     0.040 A 
HETATM   17  C   UNL     1     -45.675  56.805 -60.083  1.00  0.00     0.138 A 
HETATM   18  N   UNL     1     -44.670  57.316 -59.346  1.00  0.00    -0.075 NA
ENDBRANCH  11  13
ENDBRANCH   7  11
ENDBRANCH   1   5
BRANCH   2  19
HETATM   19  C   UNL     1     -42.408  56.461 -51.062  1.00  0.00     0.127 C 
BRANCH  19  20
HETATM   20  C   UNL     1     -41.048  56.011 -50.527  1.00  0.00     0.060 C 
BRANCH  20  21
HETATM   21  C   UNL     1     -40.736  54.566 -50.782  1.00  0.00    -0.029 A 
HETATM   22  C   UNL     1     -40.533  53.939 -52.055  1.00  0.00     0.001 A 
HETATM   23  C   UNL     1     -40.229  52.596 -51.819  1.00  0.00     0.043 A 
HETATM   24  C   UNL     1     -40.570  54.392 -53.389  1.00  0.00     0.056 A 
HETATM   25  C   UNL     1     -39.957  51.682 -52.845  1.00  0.00     0.033 A 
HETATM   26  N   UNL     1     -40.252  52.410 -50.457  1.00  0.00    -0.365 N 
HETATM   27  C   UNL     1     -39.998  52.157 -54.159  1.00  0.00     0.044 A 
HETATM   28  C   UNL     1     -40.299  53.487 -54.415  1.00  0.00     0.117 A 
HETATM   29  F   UNL     1     -40.343  53.912 -55.686  1.00  0.00    -0.206 F 
HETATM   30  H   UNL     1     -40.064  51.531 -49.993  1.00  0.00     0.165 HD
HETATM   31  C   UNL     1     -40.544  53.588 -49.824  1.00  0.00     0.096 A 
ENDBRANCH  20  21
ENDBRANCH  19  20
ENDBRANCH   2  19
TORSDOF 6
ENDMDL
MODEL 7
REMARK VINA RESULT:      -7.5      3.319      8.285
REMARK  6 active torsions:
REMARK  status: ('A' for Active; 'I' for Inactive)
REMARK    1  A    between atoms: C_3  and  N_4 
REMARK    2  A    between atoms: N_4  and  C_5 
REMARK    3  A    between atoms: C_12  and  C_13 
REMARK       I    between atoms: C_13  and  N_14 
REMARK    4  A    between atoms: N_14  and  C_15 
REMARK    5  A    between atoms: C_15  and  C_16 
REMARK    6  A    between atoms: C_16  and  C_17 
ROOT
HETATM    1  C   UNL     1     -41.381  58.833 -53.035  1.00  0.00     0.251 C 
HETATM    2  N   UNL     1     -41.799  57.529 -53.221  1.00  0.00    -0.357 N 
HETATM    3  O   UNL     1     -40.241  59.211 -53.290  1.00  0.00    -0.268 OA
HETATM    4  H   UNL     1     -42.637  57.218 -52.744  1.00  0.00     0.162 HD
ENDROOT
BRANCH   1   5
HETATM    5  C   UNL     1     -42.367  59.790 -52.458  1.00  0.00     0.034 A 
HETATM    6  C   UNL     1     -43.083  59.518 -51.281  1.00  0.00     0.047 A 
HETATM    7  C   UNL     1     -44.001  60.440 -50.763  1.00  0.00     0.050 A 
HETATM    8  C   UNL     1     -44.200  61.638 -51.470  1.00  0.00     0.030 A 
HETATM    9  C   UNL     1     -43.508  61.912 -52.650  1.00  0.00     0.003 A 
HETATM   10  C   UNL     1     -42.593  60.989 -53.144  1.00  0.00     0.017 A 
BRANCH   7  11
HETATM   11  N   UNL     1     -44.742  60.232 -49.594  1.00  0.00    -0.188 N 
HETATM   12  H   UNL     1     -44.988  59.280 -49.368  1.00  0.00     0.184 HD
BRANCH  11  13
HETATM   13  C   UNL     1     -45.303  61.071 -48.638  1.00  0.00     0.726 A 
HETATM   14  N   UNL     1     -46.487  61.674 -48.824  1.00  0.00    -0.075 NA
HETATM   15  C   UNL     1     -46.936  62.472 -47.838  1.00  0.00     0.138 A 
HETATM   16  C   UNL     1     -46.258  62.686 -46.665  1.00  0.00     0.040 A 
HETATM   17  C   UNL     1     -45.060  62.029 -46.561  1.00  0.00     0.138 A 
HETATM   18  N   UNL     1     -44.566  61.226 -47.523  1.00  0.00    -0.075 NA
ENDBRANCH  11  13
ENDBRANCH   7  11
ENDBRANCH   1   5
BRANCH   2  19
HETATM   19  C   UNL     1     -40.839  56.509 -53.607  1.00  0.00     0.127 C 
BRANCH  19  20
HETATM   20  C   UNL     1     -41.449  55.110 -53.702  1.00  0.00     0.060 C 
BRANCH  20  21
HETATM   21  C   UNL     1     -40.915  54.139 -52.690  1.00  0.00    -0.029 A 
HETATM   22  C   UNL     1     -40.482  52.794 -52.931  1.00  0.00     0.001 A 
HETATM   23  C   UNL     1     -40.028  52.274 -51.716  1.00  0.00     0.043 A 
HETATM   24  C   UNL     1     -40.424  51.971 -54.073  1.00  0.00     0.056 A 
HETATM   25  C   UNL     1     -39.517  50.977 -51.583  1.00  0.00     0.033 A 
HETATM   26  N   UNL     1     -40.185  53.261 -50.771  1.00  0.00    -0.365 N 
HETATM   27  C   UNL     1     -39.468  50.183 -52.731  1.00  0.00     0.044 A 
HETATM   28  C   UNL     1     -39.915  50.679 -53.948  1.00  0.00     0.117 A 
HETATM   29  F   UNL     1     -39.867  49.889 -55.030  1.00  0.00    -0.206 F 
HETATM   30  H   UNL     1     -39.935  53.168 -49.796  1.00  0.00     0.165 HD
HETATM   31  C   UNL     1     -40.706  54.388 -51.347  1.00  0.00     0.096 A 
ENDBRANCH  20  21
ENDBRANCH  19  20
ENDBRANCH   2  19
TORSDOF 6
ENDMDL
MODEL 8
REMARK VINA RESULT:      -7.3      3.761      4.582
REMARK  6 active torsions:
REMARK  status: ('A' for Active; 'I' for Inactive)
REMARK    1  A    between atoms: C_3  and  N_4 
REMARK    2  A    between atoms: N_4  and  C_5 
REMARK    3  A    between atoms: C_12  and  C_13 
REMARK       I    between atoms: C_13  and  N_14 
REMARK    4  A    between atoms: N_14  and  C_15 
REMARK    5  A    between atoms: C_15  and  C_16 
REMARK    6  A    between atoms: C_16  and  C_17 
ROOT
HETATM    1  C   UNL     1     -42.038  58.383 -54.517  1.00  0.00     0.251 C 
HETATM    2  N   UNL     1     -42.799  58.257 -55.665  1.00  0.00    -0.357 N 
HETATM    3  O   UNL     1     -41.146  59.217 -54.397  1.00  0.00    -0.268 OA
HETATM    4  H   UNL     1     -43.312  57.397 -55.812  1.00  0.00     0.162 HD
ENDROOT
BRANCH   1   5
HETATM    5  C   UNL     1     -42.309  57.421 -53.411  1.00  0.00     0.034 A 
HETATM    6  C   UNL     1     -41.476  56.322 -53.148  1.00  0.00     0.047 A 
HETATM    7  C   UNL     1     -41.757  55.438 -52.098  1.00  0.00     0.050 A 
HETATM    8  C   UNL     1     -42.910  55.673 -51.330  1.00  0.00     0.030 A 
HETATM    9  C   UNL     1     -43.755  56.752 -51.594  1.00  0.00     0.003 A 
HETATM   10  C   UNL     1     -43.455  57.624 -52.634  1.00  0.00     0.017 A 
BRANCH   7  11
HETATM   11  N   UNL     1     -40.966  54.327 -51.779  1.00  0.00    -0.188 N 
HETATM   12  H   UNL     1     -40.496  54.338 -50.887  1.00  0.00     0.184 HD
BRANCH  11  13
HETATM   13  C   UNL     1     -40.604  53.167 -52.454  1.00  0.00     0.726 A 
HETATM   14  N   UNL     1     -40.998  52.921 -53.713  1.00  0.00    -0.075 NA
HETATM   15  C   UNL     1     -40.597  51.763 -54.271  1.00  0.00     0.138 A 
HETATM   16  C   UNL     1     -39.809  50.843 -53.628  1.00  0.00     0.040 A 
HETATM   17  C   UNL     1     -39.453  51.179 -52.349  1.00  0.00     0.138 A 
HETATM   18  N   UNL     1     -39.836  52.321 -51.746  1.00  0.00    -0.075 NA
ENDBRANCH  11  13
ENDBRANCH   7  11
ENDBRANCH   1   5
BRANCH   2  19
HETATM   19  C   UNL     1     -42.466  59.040 -56.843  1.00  0.00     0.127 C 
BRANCH  19  20
HETATM   20  C   UNL     1     -41.975  58.191 -58.015  1.00  0.00     0.060 C 
BRANCH  20  21
HETATM   21  C   UNL     1     -43.008  57.954 -59.076  1.00  0.00    -0.029 A 
HETATM   22  C   UNL     1     -43.685  56.722 -59.362  1.00  0.00     0.001 A 
HETATM   23  C   UNL     1     -44.588  56.970 -60.400  1.00  0.00     0.043 A 
HETATM   24  C   UNL     1     -43.620  55.421 -58.827  1.00  0.00     0.056 A 
HETATM   25  C   UNL     1     -45.431  55.984 -60.929  1.00  0.00     0.033 A 
HETATM   26  N   UNL     1     -44.462  58.296 -60.737  1.00  0.00    -0.365 N 
HETATM   27  C   UNL     1     -45.350  54.703 -60.379  1.00  0.00     0.044 A 
HETATM   28  C   UNL     1     -44.460  54.436 -59.349  1.00  0.00     0.117 A 
HETATM   29  F   UNL     1     -44.394  53.193 -58.849  1.00  0.00    -0.206 F 
HETATM   30  H   UNL     1     -44.997  58.759 -61.459  1.00  0.00     0.165 HD
HETATM   31  C   UNL     1     -43.525  58.899 -59.942  1.00  0.00     0.096 A 
ENDBRANCH  20  21
ENDBRANCH  19  20
ENDBRANCH   2  19
TORSDOF 6
ENDMDL
MODEL 9
REMARK VINA RESULT:      -7.3     14.356     16.640
REMARK  6 active torsions:
REMARK  status: ('A' for Active; 'I' for Inactive)
REMARK    1  A    between atoms: C_3  and  N_4 
REMARK    2  A    between atoms: N_4  and  C_5 
REMARK    3  A    between atoms: C_12  and  C_13 
REMARK       I    between atoms: C_13  and  N_14 
REMARK    4  A    between atoms: N_14  and  C_15 
REMARK    5  A    between atoms: C_15  and  C_16 
REMARK    6  A    between atoms: C_16  and  C_17 
ROOT
HETATM    1  C   UNL     1     -35.799  39.927 -50.610  1.00  0.00     0.251 C 
HETATM    2  N   UNL     1     -36.294  39.646 -51.870  1.00  0.00    -0.357 N 
HETATM    3  O   UNL     1     -36.516  40.258 -49.671  1.00  0.00    -0.268 OA
HETATM    4  H   UNL     1     -35.653  39.654 -52.654  1.00  0.00     0.162 HD
ENDROOT
BRANCH   1   5
HETATM    5  C   UNL     1     -34.321  39.859 -50.428  1.00  0.00     0.034 A 
HETATM    6  C   UNL     1     -33.729  39.344 -49.264  1.00  0.00     0.047 A 
HETATM    7  C   UNL     1     -32.336  39.290 -49.125  1.00  0.00     0.050 A 
HETATM    8  C   UNL     1     -31.549  39.787 -50.178  1.00  0.00     0.030 A 
HETATM    9  C   UNL     1     -32.127  40.318 -51.332  1.00  0.00     0.003 A 
HETATM   10  C   UNL     1     -33.512  40.354 -51.456  1.00  0.00     0.017 A 
BRANCH   7  11
HETATM   11  N   UNL     1     -31.683  38.786 -47.994  1.00  0.00    -0.188 N 
HETATM   12  H   UNL     1     -31.619  37.782 -47.908  1.00  0.00     0.184 HD
BRANCH  11  13
HETATM   13  C   UNL     1     -31.113  39.361 -46.864  1.00  0.00     0.726 A 
HETATM   14  N   UNL     1     -30.288  40.416 -46.939  1.00  0.00    -0.075 NA
HETATM   15  C   UNL     1     -29.784  40.891 -45.784  1.00  0.00     0.138 A 
HETATM   16  C   UNL     1     -30.079  40.363 -44.553  1.00  0.00     0.040 A 
HETATM   17  C   UNL     1     -30.930  39.290 -44.572  1.00  0.00     0.138 A 
HETATM   18  N   UNL     1     -31.453  38.775 -45.702  1.00  0.00    -0.075 NA
ENDBRANCH  11  13
ENDBRANCH   7  11
ENDBRANCH   1   5
BRANCH   2  19
HETATM   19  C   UNL     1     -37.700  39.869 -52.161  1.00  0.00     0.127 C 
BRANCH  19  20
HETATM   20  C   UNL     1     -37.978  41.235 -52.788  1.00  0.00     0.060 C 
BRANCH  20  21
HETATM   21  C   UNL     1     -36.962  41.661 -53.806  1.00  0.00    -0.029 A 
HETATM   22  C   UNL     1     -37.060  41.531 -55.230  1.00  0.00     0.001 A 
HETATM   23  C   UNL     1     -35.907  42.094 -55.785  1.00  0.00     0.043 A 
HETATM   24  C   UNL     1     -38.029  40.995 -56.102  1.00  0.00     0.056 A 
HETATM   25  C   UNL     1     -35.673  42.151 -57.165  1.00  0.00     0.033 A 
HETATM   26  N   UNL     1     -35.134  42.543 -54.740  1.00  0.00    -0.365 N 
HETATM   27  C   UNL     1     -36.650  41.616 -58.007  1.00  0.00     0.044 A 
HETATM   28  C   UNL     1     -37.802  41.051 -57.477  1.00  0.00     0.117 A 
HETATM   29  F   UNL     1     -38.717  40.533 -58.310  1.00  0.00    -0.206 F 
HETATM   30  H   UNL     1     -34.239  43.001 -54.843  1.00  0.00     0.165 HD
HETATM   31  C   UNL     1     -35.762  42.298 -53.549  1.00  0.00     0.096 A 
ENDBRANCH  20  21
ENDBRANCH  19  20
ENDBRANCH   2  19
TORSDOF 6
ENDMDL
MODEL 10
REMARK VINA RESULT:      -7.3      5.403      9.621
REMARK  6 active torsions:
REMARK  status: ('A' for Active; 'I' for Inactive)
REMARK    1  A    between atoms: C_3  and  N_4 
REMARK    2  A    between atoms: N_4  and  C_5 
REMARK    3  A    between atoms: C_12  and  C_13 
REMARK       I    between atoms: C_13  and  N_14 
REMARK    4  A    between atoms: N_14  and  C_15 
REMARK    5  A    between atoms: C_15  and  C_16 
REMARK    6  A    between atoms: C_16  and  C_17 
ROOT
HETATM    1  C   UNL     1     -42.862  56.492 -57.337  1.00  0.00     0.251 C 
HETATM    2  N   UNL     1     -42.422  55.353 -56.690  1.00  0.00    -0.357 N 
HETATM    3  O   UNL     1     -42.538  57.624 -56.989  1.00  0.00    -0.268 OA
HETATM    4  H   UNL     1     -42.928  54.488 -56.838  1.00  0.00     0.162 HD
ENDROOT
BRANCH   1   5
HETATM    5  C   UNL     1     -43.802  56.308 -58.479  1.00  0.00     0.034 A 
HETATM    6  C   UNL     1     -44.888  57.169 -58.708  1.00  0.00     0.047 A 
HETATM    7  C   UNL     1     -45.752  56.970 -59.792  1.00  0.00     0.050 A 
HETATM    8  C   UNL     1     -45.511  55.870 -60.633  1.00  0.00     0.030 A 
HETATM    9  C   UNL     1     -44.446  54.997 -60.405  1.00  0.00     0.003 A 
HETATM   10  C   UNL     1     -43.593  55.216 -59.329  1.00  0.00     0.017 A 
BRANCH   7  11
HETATM   11  N   UNL     1     -46.847  57.793 -60.079  1.00  0.00    -0.188 N 
HETATM   12  H   UNL     1     -47.272  58.281 -59.304  1.00  0.00     0.184 HD
BRANCH  11  13
HETATM   13  C   UNL     1     -47.574  58.078 -61.230  1.00  0.00     0.726 A 
HETATM   14  N   UNL     1     -48.320  57.152 -61.850  1.00  0.00    -0.075 NA
HETATM   15  C   UNL     1     -48.977  57.531 -62.962  1.00  0.00     0.138 A 
HETATM   16  C   UNL     1     -48.930  58.801 -63.477  1.00  0.00     0.040 A 
HETATM   17  C   UNL     1     -48.145  59.680 -62.778  1.00  0.00     0.138 A 
HETATM   18  N   UNL     1     -47.463  59.345 -61.665  1.00  0.00    -0.075 NA
ENDBRANCH  11  13
ENDBRANCH   7  11
ENDBRANCH   1   5
BRANCH   2  19
HETATM   19  C   UNL     1     -41.652  55.469 -55.464  1.00  0.00     0.127 C 
BRANCH  19  20
HETATM   20  C   UNL     1     -42.424  55.026 -54.221  1.00  0.00     0.060 C 
BRANCH  20  21
HETATM   21  C   UNL     1     -41.577  54.363 -53.176  1.00  0.00    -0.029 A 
HETATM   22  C   UNL     1     -40.928  53.088 -53.273  1.00  0.00     0.001 A 
HETATM   23  C   UNL     1     -40.217  52.886 -52.087  1.00  0.00     0.043 A 
HETATM   24  C   UNL     1     -40.869  52.090 -54.266  1.00  0.00     0.056 A 
HETATM   25  C   UNL     1     -39.449  51.741 -51.842  1.00  0.00     0.033 A 
HETATM   26  N   UNL     1     -40.430  53.990 -51.296  1.00  0.00    -0.365 N 
HETATM   27  C   UNL     1     -39.406  50.767 -52.843  1.00  0.00     0.044 A 
HETATM   28  C   UNL     1     -40.105  50.947 -54.028  1.00  0.00     0.117 A 
HETATM   29  F   UNL     1     -40.055  49.991 -54.966  1.00  0.00    -0.206 F 
HETATM   30  H   UNL     1     -40.034  54.123 -50.375  1.00  0.00     0.165 HD
HETATM   31  C   UNL     1     -41.236  54.887 -51.943  1.00  0.00     0.096 A 
ENDBRANCH  20  21
ENDBRANCH  19  20
ENDBRANCH   2  19
TORSDOF 6
ENDMDL
