MODEL 1
REMARK VINA RESULT:      -7.1      0.000      0.000
REMARK  6 active torsions:
REMARK  status: ('A' for Active; 'I' for Inactive)
REMARK    1  A    between atoms: O_2  and  C_3 
REMARK    2  A    between atoms: C_3  and  C_4 
REMARK    3  A    between atoms: C_4  and  N_5 
REMARK       I    between atoms: N_5  and  C_6 
REMARK    4  A    between atoms: C_6  and  C_7 
REMARK    5  A    between atoms: C_12  and  C_13 
REMARK    6  A    between atoms: C_20  and  C_21 
ROOT
HETATM    1  C   UNL     1     -35.230  40.068 -52.381  1.00  0.00     0.165 A 
HETATM    2  N   UNL     1     -34.331  40.561 -53.271  1.00  0.00    -0.163 NA
HETATM    3  N   UNL     1     -35.092  41.185 -54.189  1.00  0.00    -0.238 N 
HETATM    4  C   UNL     1     -36.430  41.168 -53.908  1.00  0.00     0.141 A 
HETATM    5  N   UNL     1     -37.329  41.789 -54.709  1.00  0.00    -0.365 N 
HETATM    6  C   UNL     1     -36.959  42.332 -56.010  1.00  0.00     0.118 C 
HETATM    7  C   UNL     1     -35.504  42.835 -55.972  1.00  0.00     0.066 C 
HETATM    8  C   UNL     1     -34.504  41.848 -55.337  1.00  0.00     0.221 C 
HETATM    9  C   UNL     1     -36.546  40.443 -52.750  1.00  0.00     0.092 A 
HETATM   10 BR   UNL     1     -38.141  40.030 -51.858  1.00  0.00    -0.044 Br
HETATM   11  H   UNL     1     -38.328  41.638 -54.567  1.00  0.00     0.162 HD
ENDROOT
BRANCH   1  12
HETATM   12  C   UNL     1     -34.785  39.259 -51.234  1.00  0.00     0.273 C 
HETATM   13  N   UNL     1     -33.911  39.924 -50.401  1.00  0.00    -0.353 N 
HETATM   14  H   UNL     1     -33.569  40.816 -50.750  1.00  0.00     0.162 HD
HETATM   15  O   UNL     1     -35.128  38.095 -51.041  1.00  0.00    -0.266 OA
BRANCH  13  16
HETATM   16  C   UNL     1     -33.192  39.251 -49.340  1.00  0.00     0.149 C 
BRANCH  16  17
HETATM   17  C   UNL     1     -31.705  39.613 -49.324  1.00  0.00     0.186 C 
BRANCH  17  18
HETATM   18  O   UNL     1     -31.410  40.331 -48.121  1.00  0.00    -0.394 OA
HETATM   19  C   UNL     1     -30.899  39.469 -47.113  1.00  0.00     0.201 C 
ENDBRANCH  17  18
ENDBRANCH  16  17
ENDBRANCH  13  16
ENDBRANCH   1  12
BRANCH   8  20
HETATM   20  C   UNL     1     -33.949  40.829 -56.309  1.00  0.00     0.409 C 
HETATM   21  F   UNL     1     -34.612  39.659 -56.313  1.00  0.00    -0.169 F 
HETATM   22  F   UNL     1     -33.992  41.320 -57.575  1.00  0.00    -0.169 F 
HETATM   23  F   UNL     1     -32.646  40.554 -56.060  1.00  0.00    -0.169 F 
ENDBRANCH   8  20
BRANCH   6  24
HETATM   24  C   UNL     1     -37.288  41.401 -57.164  1.00  0.00    -0.035 A 
HETATM   25  C   UNL     1     -37.076  41.846 -58.482  1.00  0.00     0.009 A 
HETATM   26  C   UNL     1     -37.376  41.030 -59.575  1.00  0.00     0.001 A 
HETATM   27  C   UNL     1     -37.894  39.755 -59.373  1.00  0.00     0.000 A 
HETATM   28  C   UNL     1     -38.120  39.298 -58.078  1.00  0.00     0.001 A 
HETATM   29  C   UNL     1     -37.825  40.116 -56.983  1.00  0.00     0.009 A 
ENDBRANCH   6  24
TORSDOF 6
ENDMDL
MODEL 2
REMARK VINA RESULT:      -7.0     16.636     19.000
REMARK  6 active torsions:
REMARK  status: ('A' for Active; 'I' for Inactive)
REMARK    1  A    between atoms: O_2  and  C_3 
REMARK    2  A    between atoms: C_3  and  C_4 
REMARK    3  A    between atoms: C_4  and  N_5 
REMARK       I    between atoms: N_5  and  C_6 
REMARK    4  A    between atoms: C_6  and  C_7 
REMARK    5  A    between atoms: C_12  and  C_13 
REMARK    6  A    between atoms: C_20  and  C_21 
ROOT
HETATM    1  C   UNL     1     -43.094  56.112 -57.160  1.00  0.00     0.165 A 
HETATM    2  N   UNL     1     -42.395  55.114 -56.560  1.00  0.00    -0.163 NA
HETATM    3  N   UNL     1     -42.713  55.235 -55.258  1.00  0.00    -0.238 N 
HETATM    4  C   UNL     1     -43.621  56.222 -54.995  1.00  0.00     0.141 A 
HETATM    5  N   UNL     1     -44.080  56.445 -53.739  1.00  0.00    -0.365 N 
HETATM    6  C   UNL     1     -43.491  55.795 -52.575  1.00  0.00     0.118 C 
HETATM    7  C   UNL     1     -42.986  54.392 -52.959  1.00  0.00     0.066 C 
HETATM    8  C   UNL     1     -42.156  54.346 -54.257  1.00  0.00     0.221 C 
HETATM    9  C   UNL     1     -43.875  56.811 -56.206  1.00  0.00     0.092 A 
HETATM   10 BR   UNL     1     -45.022  58.260 -56.514  1.00  0.00    -0.044 Br
HETATM   11  H   UNL     1     -44.637  57.277 -53.539  1.00  0.00     0.162 HD
ENDROOT
BRANCH   1  12
HETATM   12  C   UNL     1     -42.969  56.351 -58.608  1.00  0.00     0.273 C 
HETATM   13  N   UNL     1     -42.020  57.299 -58.926  1.00  0.00    -0.353 N 
HETATM   14  H   UNL     1     -41.638  57.816 -58.138  1.00  0.00     0.162 HD
HETATM   15  O   UNL     1     -43.656  55.790 -59.458  1.00  0.00    -0.266 OA
BRANCH  13  16
HETATM   16  C   UNL     1     -41.883  57.837 -60.263  1.00  0.00     0.149 C 
BRANCH  16  17
HETATM   17  C   UNL     1     -42.057  59.357 -60.300  1.00  0.00     0.186 C 
BRANCH  17  18
HETATM   18  O   UNL     1     -42.409  59.820 -58.991  1.00  0.00    -0.394 OA
HETATM   19  C   UNL     1     -41.576  60.895 -58.578  1.00  0.00     0.201 C 
ENDBRANCH  17  18
ENDBRANCH  16  17
ENDBRANCH  13  16
ENDBRANCH   1  12
BRANCH   8  20
HETATM   20  C   UNL     1     -40.684  54.634 -54.053  1.00  0.00     0.409 C 
HETATM   21  F   UNL     1     -40.357  55.931 -54.194  1.00  0.00    -0.169 F 
HETATM   22  F   UNL     1     -40.303  54.257 -52.804  1.00  0.00    -0.169 F 
HETATM   23  F   UNL     1     -39.910  53.926 -54.908  1.00  0.00    -0.169 F 
ENDBRANCH   8  20
BRANCH   6  24
HETATM   24  C   UNL     1     -42.480  56.667 -51.849  1.00  0.00    -0.035 A 
HETATM   25  C   UNL     1     -42.221  57.961 -52.337  1.00  0.00     0.009 A 
HETATM   26  C   UNL     1     -41.292  58.795 -51.710  1.00  0.00     0.001 A 
HETATM   27  C   UNL     1     -40.602  58.351 -50.587  1.00  0.00     0.000 A 
HETATM   28  C   UNL     1     -40.837  57.071 -50.094  1.00  0.00     0.001 A 
HETATM   29  C   UNL     1     -41.763  56.235 -50.722  1.00  0.00     0.009 A 
ENDBRANCH   6  24
TORSDOF 6
ENDMDL
MODEL 3
REMARK VINA RESULT:      -7.0     16.580     19.124
REMARK  6 active torsions:
REMARK  status: ('A' for Active; 'I' for Inactive)
REMARK    1  A    between atoms: O_2  and  C_3 
REMARK    2  A    between atoms: C_3  and  C_4 
REMARK    3  A    between atoms: C_4  and  N_5 
REMARK       I    between atoms: N_5  and  C_6 
REMARK    4  A    between atoms: C_6  and  C_7 
REMARK    5  A    between atoms: C_12  and  C_13 
REMARK    6  A    between atoms: C_20  and  C_21 
ROOT
HETATM    1  C   UNL     1     -43.357  56.384 -56.951  1.00  0.00     0.165 A 
HETATM    2  N   UNL     1     -42.566  55.388 -56.474  1.00  0.00    -0.163 NA
HETATM    3  N   UNL     1     -42.824  55.373 -55.154  1.00  0.00    -0.238 N 
HETATM    4  C   UNL     1     -43.780  56.269 -54.763  1.00  0.00     0.141 A 
HETATM    5  N   UNL     1     -44.188  56.350 -53.474  1.00  0.00    -0.365 N 
HETATM    6  C   UNL     1     -43.500  55.645 -52.399  1.00  0.00     0.118 C 
HETATM    7  C   UNL     1     -42.926  54.318 -52.930  1.00  0.00     0.066 C 
HETATM    8  C   UNL     1     -42.161  54.442 -54.263  1.00  0.00     0.221 C 
HETATM    9  C   UNL     1     -44.133  56.942 -55.904  1.00  0.00     0.092 A 
HETATM   10 BR   UNL     1     -45.386  58.329 -56.029  1.00  0.00    -0.044 Br
HETATM   11  H   UNL     1     -44.787  57.121 -53.175  1.00  0.00     0.162 HD
ENDROOT
BRANCH   1  12
HETATM   12  C   UNL     1     -43.321  56.755 -58.375  1.00  0.00     0.273 C 
HETATM   13  N   UNL     1     -44.392  56.267 -59.095  1.00  0.00    -0.353 N 
HETATM   14  H   UNL     1     -44.981  55.601 -58.602  1.00  0.00     0.162 HD
HETATM   15  O   UNL     1     -42.419  57.410 -58.893  1.00  0.00    -0.266 OA
BRANCH  13  16
HETATM   16  C   UNL     1     -44.446  56.333 -60.540  1.00  0.00     0.149 C 
BRANCH  16  17
HETATM   17  C   UNL     1     -45.226  55.165 -61.148  1.00  0.00     0.186 C 
BRANCH  17  18
HETATM   18  O   UNL     1     -46.408  55.668 -61.779  1.00  0.00    -0.394 OA
HETATM   19  C   UNL     1     -47.188  56.444 -60.879  1.00  0.00     0.201 C 
ENDBRANCH  17  18
ENDBRANCH  16  17
ENDBRANCH  13  16
ENDBRANCH   1  12
BRANCH   8  20
HETATM   20  C   UNL     1     -40.702  54.813 -54.099  1.00  0.00     0.409 C 
HETATM   21  F   UNL     1     -39.907  54.349 -55.080  1.00  0.00    -0.169 F 
HETATM   22  F   UNL     1     -40.564  56.164 -54.075  1.00  0.00    -0.169 F 
HETATM   23  F   UNL     1     -40.198  54.365 -52.925  1.00  0.00    -0.169 F 
ENDBRANCH   8  20
BRANCH   6  24
HETATM   24  C   UNL     1     -42.513  56.518 -51.645  1.00  0.00    -0.035 A 
HETATM   25  C   UNL     1     -42.428  57.885 -51.966  1.00  0.00     0.009 A 
HETATM   26  C   UNL     1     -41.527  58.726 -51.307  1.00  0.00     0.001 A 
HETATM   27  C   UNL     1     -40.692  58.216 -50.318  1.00  0.00     0.000 A 
HETATM   28  C   UNL     1     -40.754  56.865 -49.991  1.00  0.00     0.001 A 
HETATM   29  C   UNL     1     -41.652  56.022 -50.652  1.00  0.00     0.009 A 
ENDBRANCH   6  24
TORSDOF 6
ENDMDL
MODEL 4
REMARK VINA RESULT:      -6.9     16.426     18.831
REMARK  6 active torsions:
REMARK  status: ('A' for Active; 'I' for Inactive)
REMARK    1  A    between atoms: O_2  and  C_3 
REMARK    2  A    between atoms: C_3  and  C_4 
REMARK    3  A    between atoms: C_4  and  N_5 
REMARK       I    between atoms: N_5  and  C_6 
REMARK    4  A    between atoms: C_6  and  C_7 
REMARK    5  A    between atoms: C_12  and  C_13 
REMARK    6  A    between atoms: C_20  and  C_21 
ROOT
HETATM    1  C   UNL     1     -42.827  57.798 -55.831  1.00  0.00     0.165 A 
HETATM    2  N   UNL     1     -42.092  56.671 -56.017  1.00  0.00    -0.163 NA
HETATM    3  N   UNL     1     -42.452  55.876 -54.993  1.00  0.00    -0.238 N 
HETATM    4  C   UNL     1     -43.420  56.409 -54.188  1.00  0.00     0.141 A 
HETATM    5  N   UNL     1     -43.925  55.718 -53.137  1.00  0.00    -0.365 N 
HETATM    6  C   UNL     1     -43.334  54.467 -52.679  1.00  0.00     0.118 C 
HETATM    7  C   UNL     1     -42.743  53.700 -53.877  1.00  0.00     0.066 C 
HETATM    8  C   UNL     1     -41.876  54.557 -54.819  1.00  0.00     0.221 C 
HETATM    9  C   UNL     1     -43.672  57.655 -54.702  1.00  0.00     0.092 A 
HETATM   10 BR   UNL     1     -44.887  58.908 -54.022  1.00  0.00    -0.044 Br
HETATM   11  H   UNL     1     -44.532  56.186 -52.463  1.00  0.00     0.162 HD
ENDROOT
BRANCH   1  12
HETATM   12  C   UNL     1     -42.675  58.952 -56.733  1.00  0.00     0.273 C 
HETATM   13  N   UNL     1     -43.644  59.012 -57.712  1.00  0.00    -0.353 N 
HETATM   14  H   UNL     1     -44.240  58.192 -57.787  1.00  0.00     0.162 HD
HETATM   15  O   UNL     1     -41.764  59.772 -56.651  1.00  0.00    -0.266 OA
BRANCH  13  16
HETATM   16  C   UNL     1     -43.562  59.936 -58.823  1.00  0.00     0.149 C 
BRANCH  16  17
HETATM   17  C   UNL     1     -43.677  59.231 -60.177  1.00  0.00     0.186 C 
BRANCH  17  18
HETATM   18  O   UNL     1     -43.244  57.873 -60.036  1.00  0.00    -0.394 OA
HETATM   19  C   UNL     1     -41.855  57.740 -60.309  1.00  0.00     0.201 C 
ENDBRANCH  17  18
ENDBRANCH  16  17
ENDBRANCH  13  16
ENDBRANCH   1  12
BRANCH   8  20
HETATM   20  C   UNL     1     -40.428  54.664 -54.390  1.00  0.00     0.409 C 
HETATM   21  F   UNL     1     -39.557  54.707 -55.413  1.00  0.00    -0.169 F 
HETATM   22  F   UNL     1     -40.241  55.792 -53.655  1.00  0.00    -0.169 F 
HETATM   23  F   UNL     1     -40.063  53.634 -53.590  1.00  0.00    -0.169 F 
ENDBRANCH   8  20
BRANCH   6  24
HETATM   24  C   UNL     1     -42.393  54.644 -51.500  1.00  0.00    -0.035 A 
HETATM   25  C   UNL     1     -41.718  53.519 -50.991  1.00  0.00     0.009 A 
HETATM   26  C   UNL     1     -40.852  53.631 -49.901  1.00  0.00     0.001 A 
HETATM   27  C   UNL     1     -40.646  54.867 -49.297  1.00  0.00     0.000 A 
HETATM   28  C   UNL     1     -41.310  55.991 -49.780  1.00  0.00     0.001 A 
HETATM   29  C   UNL     1     -42.180  55.879 -50.867  1.00  0.00     0.009 A 
ENDBRANCH   6  24
TORSDOF 6
ENDMDL
MODEL 5
REMARK VINA RESULT:      -6.9     16.311     18.681
REMARK  6 active torsions:
REMARK  status: ('A' for Active; 'I' for Inactive)
REMARK    1  A    between atoms: O_2  and  C_3 
REMARK    2  A    between atoms: C_3  and  C_4 
REMARK    3  A    between atoms: C_4  and  N_5 
REMARK       I    between atoms: N_5  and  C_6 
REMARK    4  A    between atoms: C_6  and  C_7 
REMARK    5  A    between atoms: C_12  and  C_13 
REMARK    6  A    between atoms: C_20  and  C_21 
ROOT
HETATM    1  C   UNL     1     -42.753  57.826 -55.565  1.00  0.00     0.165 A 
HETATM    2  N   UNL     1     -42.223  56.622 -55.903  1.00  0.00    -0.163 NA
HETATM    3  N   UNL     1     -42.520  55.832 -54.856  1.00  0.00    -0.238 N 
HETATM    4  C   UNL     1     -43.260  56.448 -53.885  1.00  0.00     0.141 A 
HETATM    5  N   UNL     1     -43.680  55.779 -52.784  1.00  0.00    -0.365 N 
HETATM    6  C   UNL     1     -43.203  54.438 -52.466  1.00  0.00     0.118 C 
HETATM    7  C   UNL     1     -42.927  53.660 -53.766  1.00  0.00     0.066 C 
HETATM    8  C   UNL     1     -42.113  54.441 -54.817  1.00  0.00     0.221 C 
HETATM    9  C   UNL     1     -43.415  57.740 -54.315  1.00  0.00     0.092 A 
HETATM   10 BR   UNL     1     -44.317  59.108 -53.406  1.00  0.00    -0.044 Br
HETATM   11  H   UNL     1     -44.098  56.288 -52.005  1.00  0.00     0.162 HD
ENDROOT
BRANCH   1  12
HETATM   12  C   UNL     1     -42.590  58.993 -56.447  1.00  0.00     0.273 C 
HETATM   13  N   UNL     1     -43.558  59.080 -57.425  1.00  0.00    -0.353 N 
HETATM   14  H   UNL     1     -44.164  58.268 -57.513  1.00  0.00     0.162 HD
HETATM   15  O   UNL     1     -41.671  59.803 -56.352  1.00  0.00    -0.266 OA
BRANCH  13  16
HETATM   16  C   UNL     1     -43.468  60.023 -58.520  1.00  0.00     0.149 C 
BRANCH  16  17
HETATM   17  C   UNL     1     -43.448  59.329 -59.885  1.00  0.00     0.186 C 
BRANCH  17  18
HETATM   18  O   UNL     1     -42.095  59.016 -60.232  1.00  0.00    -0.394 OA
HETATM   19  C   UNL     1     -41.830  57.626 -60.092  1.00  0.00     0.201 C 
ENDBRANCH  17  18
ENDBRANCH  16  17
ENDBRANCH  13  16
ENDBRANCH   1  12
BRANCH   8  20
HETATM   20  C   UNL     1     -40.614  54.333 -54.633  1.00  0.00     0.409 C 
HETATM   21  F   UNL     1     -40.072  55.354 -53.947  1.00  0.00    -0.169 F 
HETATM   22  F   UNL     1     -40.307  53.191 -53.964  1.00  0.00    -0.169 F 
HETATM   23  F   UNL     1     -39.967  54.255 -55.820  1.00  0.00    -0.169 F 
ENDBRANCH   8  20
BRANCH   6  24
HETATM   24  C   UNL     1     -42.068  54.429 -51.457  1.00  0.00    -0.035 A 
HETATM   25  C   UNL     1     -41.689  55.638 -50.846  1.00  0.00     0.009 A 
HETATM   26  C   UNL     1     -40.644  55.681 -49.920  1.00  0.00     0.001 A 
HETATM   27  C   UNL     1     -39.955  54.518 -49.590  1.00  0.00     0.000 A 
HETATM   28  C   UNL     1     -40.308  53.313 -50.189  1.00  0.00     0.001 A 
HETATM   29  C   UNL     1     -41.351  53.269 -51.119  1.00  0.00     0.009 A 
ENDBRANCH   6  24
TORSDOF 6
ENDMDL
MODEL 6
REMARK VINA RESULT:      -6.8      1.824      2.264
REMARK  6 active torsions:
REMARK  status: ('A' for Active; 'I' for Inactive)
REMARK    1  A    between atoms: O_2  and  C_3 
REMARK    2  A    between atoms: C_3  and  C_4 
REMARK    3  A    between atoms: C_4  and  N_5 
REMARK       I    between atoms: N_5  and  C_6 
REMARK    4  A    between atoms: C_6  and  C_7 
REMARK    5  A    between atoms: C_12  and  C_13 
REMARK    6  A    between atoms: C_20  and  C_21 
ROOT
HETATM    1  C   UNL     1     -37.258  40.050 -52.363  1.00  0.00     0.165 A 
HETATM    2  N   UNL     1     -36.039  40.060 -52.961  1.00  0.00    -0.163 NA
HETATM    3  N   UNL     1     -36.227  40.803 -54.067  1.00  0.00    -0.238 N 
HETATM    4  C   UNL     1     -37.488  41.317 -54.186  1.00  0.00     0.141 A 
HETATM    5  N   UNL     1     -37.829  42.123 -55.220  1.00  0.00    -0.365 N 
HETATM    6  C   UNL     1     -36.949  42.324 -56.365  1.00  0.00     0.118 C 
HETATM    7  C   UNL     1     -35.479  42.253 -55.913  1.00  0.00     0.066 C 
HETATM    8  C   UNL     1     -35.148  41.053 -55.004  1.00  0.00     0.221 C 
HETATM    9  C   UNL     1     -38.177  40.836 -53.103  1.00  0.00     0.092 A 
HETATM   10 BR   UNL     1     -39.979  41.157 -52.705  1.00  0.00    -0.044 Br
HETATM   11  H   UNL     1     -38.807  42.372 -55.372  1.00  0.00     0.162 HD
ENDROOT
BRANCH   1  12
HETATM   12  C   UNL     1     -37.482  39.282 -51.127  1.00  0.00     0.273 C 
HETATM   13  N   UNL     1     -36.977  39.897 -50.001  1.00  0.00    -0.353 N 
HETATM   14  H   UNL     1     -36.393  40.711 -50.174  1.00  0.00     0.162 HD
HETATM   15  O   UNL     1     -38.038  38.186 -51.090  1.00  0.00    -0.266 OA
BRANCH  13  16
HETATM   16  C   UNL     1     -36.901  39.225 -48.722  1.00  0.00     0.149 C 
BRANCH  16  17
HETATM   17  C   UNL     1     -35.601  38.433 -48.557  1.00  0.00     0.186 C 
BRANCH  17  18
HETATM   18  O   UNL     1     -34.586  39.023 -49.378  1.00  0.00    -0.394 OA
HETATM   19  C   UNL     1     -33.891  38.039 -50.132  1.00  0.00     0.201 C 
ENDBRANCH  17  18
ENDBRANCH  16  17
ENDBRANCH  13  16
ENDBRANCH   1  12
BRANCH   8  20
HETATM   20  C   UNL     1     -34.801  39.789 -55.761  1.00  0.00     0.409 C 
HETATM   21  F   UNL     1     -34.447  39.998 -57.041  1.00  0.00    -0.169 F 
HETATM   22  F   UNL     1     -33.764  39.152 -55.156  1.00  0.00    -0.169 F 
HETATM   23  F   UNL     1     -35.828  38.907 -55.765  1.00  0.00    -0.169 F 
ENDBRANCH   8  20
BRANCH   6  24
HETATM   24  C   UNL     1     -37.301  41.446 -57.553  1.00  0.00    -0.035 A 
HETATM   25  C   UNL     1     -36.883  41.838 -58.838  1.00  0.00     0.009 A 
HETATM   26  C   UNL     1     -37.193  41.069 -59.963  1.00  0.00     0.001 A 
HETATM   27  C   UNL     1     -37.929  39.896 -59.825  1.00  0.00     0.000 A 
HETATM   28  C   UNL     1     -38.359  39.496 -58.564  1.00  0.00     0.001 A 
HETATM   29  C   UNL     1     -38.054  40.266 -57.439  1.00  0.00     0.009 A 
ENDBRANCH   6  24
TORSDOF 6
ENDMDL
MODEL 7
REMARK VINA RESULT:      -6.8     16.249     17.887
REMARK  6 active torsions:
REMARK  status: ('A' for Active; 'I' for Inactive)
REMARK    1  A    between atoms: O_2  and  C_3 
REMARK    2  A    between atoms: C_3  and  C_4 
REMARK    3  A    between atoms: C_4  and  N_5 
REMARK       I    between atoms: N_5  and  C_6 
REMARK    4  A    between atoms: C_6  and  C_7 
REMARK    5  A    between atoms: C_12  and  C_13 
REMARK    6  A    between atoms: C_20  and  C_21 
ROOT
HETATM    1  C   UNL     1     -41.552  54.559 -53.643  1.00  0.00     0.165 A 
HETATM    2  N   UNL     1     -41.471  55.108 -52.403  1.00  0.00    -0.163 NA
HETATM    3  N   UNL     1     -42.491  55.984 -52.370  1.00  0.00    -0.238 N 
HETATM    4  C   UNL     1     -43.259  55.990 -53.501  1.00  0.00     0.141 A 
HETATM    5  N   UNL     1     -44.352  56.784 -53.611  1.00  0.00    -0.365 N 
HETATM    6  C   UNL     1     -44.657  57.818 -52.630  1.00  0.00     0.118 C 
HETATM    7  C   UNL     1     -44.183  57.370 -51.235  1.00  0.00     0.066 C 
HETATM    8  C   UNL     1     -42.751  56.801 -51.200  1.00  0.00     0.221 C 
HETATM    9  C   UNL     1     -42.667  55.085 -54.343  1.00  0.00     0.092 A 
HETATM   10 BR   UNL     1     -43.229  54.654 -56.078  1.00  0.00    -0.044 Br
HETATM   11  H   UNL     1     -44.820  56.885 -54.512  1.00  0.00     0.162 HD
ENDROOT
BRANCH   1  12
HETATM   12  C   UNL     1     -40.557  53.572 -54.094  1.00  0.00     0.273 C 
HETATM   13  N   UNL     1     -40.460  52.475 -53.265  1.00  0.00    -0.353 N 
HETATM   14  H   UNL     1     -40.963  52.547 -52.384  1.00  0.00     0.162 HD
HETATM   15  O   UNL     1     -39.855  53.712 -55.092  1.00  0.00    -0.266 OA
BRANCH  13  16
HETATM   16  C   UNL     1     -39.405  51.493 -53.403  1.00  0.00     0.149 C 
BRANCH  16  17
HETATM   17  C   UNL     1     -39.912  50.173 -53.989  1.00  0.00     0.186 C 
BRANCH  17  18
HETATM   18  O   UNL     1     -39.502  49.095 -53.139  1.00  0.00    -0.394 OA
HETATM   19  C   UNL     1     -39.589  49.454 -51.767  1.00  0.00     0.201 C 
ENDBRANCH  17  18
ENDBRANCH  16  17
ENDBRANCH  13  16
ENDBRANCH   1  12
BRANCH   8  20
HETATM   20  C   UNL     1     -41.677  57.855 -51.041  1.00  0.00     0.409 C 
HETATM   21  F   UNL     1     -42.111  58.998 -50.481  1.00  0.00    -0.169 F 
HETATM   22  F   UNL     1     -40.670  57.383 -50.262  1.00  0.00    -0.169 F 
HETATM   23  F   UNL     1     -41.110  58.178 -52.228  1.00  0.00    -0.169 F 
ENDBRANCH   8  20
BRANCH   6  24
HETATM   24  C   UNL     1     -44.197  59.201 -53.054  1.00  0.00    -0.035 A 
HETATM   25  C   UNL     1     -43.455  59.339 -54.242  1.00  0.00     0.009 A 
HETATM   26  C   UNL     1     -42.999  60.589 -54.666  1.00  0.00     0.001 A 
HETATM   27  C   UNL     1     -43.274  61.726 -53.912  1.00  0.00     0.000 A 
HETATM   28  C   UNL     1     -43.999  61.610 -52.730  1.00  0.00     0.001 A 
HETATM   29  C   UNL     1     -44.451  60.359 -52.301  1.00  0.00     0.009 A 
ENDBRANCH   6  24
TORSDOF 6
ENDMDL
MODEL 8
REMARK VINA RESULT:      -6.7     17.284     19.023
REMARK  6 active torsions:
REMARK  status: ('A' for Active; 'I' for Inactive)
REMARK    1  A    between atoms: O_2  and  C_3 
REMARK    2  A    between atoms: C_3  and  C_4 
REMARK    3  A    between atoms: C_4  and  N_5 
REMARK       I    between atoms: N_5  and  C_6 
REMARK    4  A    between atoms: C_6  and  C_7 
REMARK    5  A    between atoms: C_12  and  C_13 
REMARK    6  A    between atoms: C_20  and  C_21 
ROOT
HETATM    1  C   UNL     1     -43.809  58.113 -51.823  1.00  0.00     0.165 A 
HETATM    2  N   UNL     1     -44.223  57.020 -51.131  1.00  0.00    -0.163 NA
HETATM    3  N   UNL     1     -43.093  56.317 -50.930  1.00  0.00    -0.238 N 
HETATM    4  C   UNL     1     -41.966  56.925 -51.407  1.00  0.00     0.141 A 
HETATM    5  N   UNL     1     -40.740  56.370 -51.246  1.00  0.00    -0.365 N 
HETATM    6  C   UNL     1     -40.567  55.012 -50.746  1.00  0.00     0.118 C 
HETATM    7  C   UNL     1     -41.688  54.678 -49.744  1.00  0.00     0.066 C 
HETATM    8  C   UNL     1     -43.105  55.051 -50.223  1.00  0.00     0.221 C 
HETATM    9  C   UNL     1     -42.402  58.082 -51.998  1.00  0.00     0.092 A 
HETATM   10 BR   UNL     1     -41.335  59.351 -52.870  1.00  0.00    -0.044 Br
HETATM   11  H   UNL     1     -39.935  56.759 -51.737  1.00  0.00     0.162 HD
ENDROOT
BRANCH   1  12
HETATM   12  C   UNL     1     -44.778  59.119 -52.287  1.00  0.00     0.273 C 
HETATM   13  N   UNL     1     -45.232  59.947 -51.282  1.00  0.00    -0.353 N 
HETATM   14  H   UNL     1     -44.967  59.674 -50.339  1.00  0.00     0.162 HD
HETATM   15  O   UNL     1     -45.174  59.207 -53.447  1.00  0.00    -0.266 OA
BRANCH  13  16
HETATM   16  C   UNL     1     -46.338  60.861 -51.475  1.00  0.00     0.149 C 
BRANCH  16  17
HETATM   17  C   UNL     1     -46.349  61.987 -50.438  1.00  0.00     0.186 C 
BRANCH  17  18
HETATM   18  O   UNL     1     -46.340  61.415 -49.125  1.00  0.00    -0.394 OA
HETATM   19  C   UNL     1     -45.959  62.371 -48.144  1.00  0.00     0.201 C 
ENDBRANCH  17  18
ENDBRANCH  16  17
ENDBRANCH  13  16
ENDBRANCH   1  12
BRANCH   8  20
HETATM   20  C   UNL     1     -43.768  53.981 -51.063  1.00  0.00     0.409 C 
HETATM   21  F   UNL     1     -43.912  54.314 -52.358  1.00  0.00    -0.169 F 
HETATM   22  F   UNL     1     -43.039  52.835 -51.022  1.00  0.00    -0.169 F 
HETATM   23  F   UNL     1     -44.995  53.659 -50.590  1.00  0.00    -0.169 F 
ENDBRANCH   8  20
BRANCH   6  24
HETATM   24  C   UNL     1     -40.363  53.988 -51.849  1.00  0.00    -0.035 A 
HETATM   25  C   UNL     1     -39.844  52.722 -51.517  1.00  0.00     0.009 A 
HETATM   26  C   UNL     1     -39.629  51.752 -52.499  1.00  0.00     0.001 A 
HETATM   27  C   UNL     1     -39.924  52.029 -53.831  1.00  0.00     0.000 A 
HETATM   28  C   UNL     1     -40.430  53.277 -54.181  1.00  0.00     0.001 A 
HETATM   29  C   UNL     1     -40.642  54.249 -53.200  1.00  0.00     0.009 A 
ENDBRANCH   6  24
TORSDOF 6
ENDMDL
MODEL 9
REMARK VINA RESULT:      -6.6      1.577      2.168
REMARK  6 active torsions:
REMARK  status: ('A' for Active; 'I' for Inactive)
REMARK    1  A    between atoms: O_2  and  C_3 
REMARK    2  A    between atoms: C_3  and  C_4 
REMARK    3  A    between atoms: C_4  and  N_5 
REMARK       I    between atoms: N_5  and  C_6 
REMARK    4  A    between atoms: C_6  and  C_7 
REMARK    5  A    between atoms: C_12  and  C_13 
REMARK    6  A    between atoms: C_20  and  C_21 
ROOT
HETATM    1  C   UNL     1     -35.406  39.595 -52.343  1.00  0.00     0.165 A 
HETATM    2  N   UNL     1     -34.421  40.010 -53.181  1.00  0.00    -0.163 NA
HETATM    3  N   UNL     1     -35.052  40.820 -54.048  1.00  0.00    -0.238 N 
HETATM    4  C   UNL     1     -36.382  40.994 -53.782  1.00  0.00     0.141 A 
HETATM    5  N   UNL     1     -37.153  41.816 -54.535  1.00  0.00    -0.365 N 
HETATM    6  C   UNL     1     -36.673  42.397 -55.782  1.00  0.00     0.118 C 
HETATM    7  C   UNL     1     -35.158  42.656 -55.689  1.00  0.00     0.066 C 
HETATM    8  C   UNL     1     -34.342  41.473 -55.131  1.00  0.00     0.221 C 
HETATM    9  C   UNL     1     -36.638  40.205 -52.691  1.00  0.00     0.092 A 
HETATM   10 BR   UNL     1     -38.297  39.980 -51.850  1.00  0.00    -0.044 Br
HETATM   11  H   UNL     1     -38.167  41.815 -54.415  1.00  0.00     0.162 HD
ENDROOT
BRANCH   1  12
HETATM   12  C   UNL     1     -35.121  38.634 -51.265  1.00  0.00     0.273 C 
HETATM   13  N   UNL     1     -35.211  39.183 -50.004  1.00  0.00    -0.353 N 
HETATM   14  H   UNL     1     -35.310  40.195 -49.975  1.00  0.00     0.162 HD
HETATM   15  O   UNL     1     -34.805  37.462 -51.456  1.00  0.00    -0.266 OA
BRANCH  13  16
HETATM   16  C   UNL     1     -34.768  38.477 -48.820  1.00  0.00     0.149 C 
BRANCH  16  17
HETATM   17  C   UNL     1     -35.930  37.844 -48.050  1.00  0.00     0.186 C 
BRANCH  17  18
HETATM   18  O   UNL     1     -36.187  38.617 -46.873  1.00  0.00    -0.394 OA
HETATM   19  C   UNL     1     -35.834  37.904 -45.695  1.00  0.00     0.201 C 
ENDBRANCH  17  18
ENDBRANCH  16  17
ENDBRANCH  13  16
ENDBRANCH   1  12
BRANCH   8  20
HETATM   20  C   UNL     1     -33.934  40.462 -56.181  1.00  0.00     0.409 C 
HETATM   21  F   UNL     1     -33.872  40.963 -57.428  1.00  0.00    -0.169 F 
HETATM   22  F   UNL     1     -32.707  39.955 -55.890  1.00  0.00    -0.169 F 
HETATM   23  F   UNL     1     -34.776  39.402 -56.213  1.00  0.00    -0.169 F 
ENDBRANCH   8  20
BRANCH   6  24
HETATM   24  C   UNL     1     -37.121  41.629 -57.014  1.00  0.00    -0.035 A 
HETATM   25  C   UNL     1     -37.820  40.419 -56.845  1.00  0.00     0.009 A 
HETATM   26  C   UNL     1     -38.242  39.672 -57.948  1.00  0.00     0.001 A 
HETATM   27  C   UNL     1     -37.971  40.117 -59.238  1.00  0.00     0.000 A 
HETATM   28  C   UNL     1     -37.274  41.306 -59.426  1.00  0.00     0.001 A 
HETATM   29  C   UNL     1     -36.848  42.053 -58.324  1.00  0.00     0.009 A 
ENDBRANCH   6  24
TORSDOF 6
ENDMDL
MODEL 10
REMARK VINA RESULT:      -6.4     17.203     18.860
REMARK  6 active torsions:
REMARK  status: ('A' for Active; 'I' for Inactive)
REMARK    1  A    between atoms: O_2  and  C_3 
REMARK    2  A    between atoms: C_3  and  C_4 
REMARK    3  A    between atoms: C_4  and  N_5 
REMARK       I    between atoms: N_5  and  C_6 
REMARK    4  A    between atoms: C_6  and  C_7 
REMARK    5  A    between atoms: C_12  and  C_13 
REMARK    6  A    between atoms: C_20  and  C_21 
ROOT
HETATM    1  C   UNL     1     -41.761  55.534 -53.042  1.00  0.00     0.165 A 
HETATM    2  N   UNL     1     -41.271  56.659 -53.624  1.00  0.00    -0.163 NA
HETATM    3  N   UNL     1     -41.604  57.640 -52.766  1.00  0.00    -0.238 N 
HETATM    4  C   UNL     1     -42.234  57.201 -51.635  1.00  0.00     0.141 A 
HETATM    5  N   UNL     1     -42.597  58.057 -50.649  1.00  0.00    -0.365 N 
HETATM    6  C   UNL     1     -42.527  59.503 -50.818  1.00  0.00     0.118 C 
HETATM    7  C   UNL     1     -41.348  59.865 -51.740  1.00  0.00     0.066 C 
HETATM    8  C   UNL     1     -41.265  59.025 -53.030  1.00  0.00     0.221 C 
HETATM    9  C   UNL     1     -42.357  55.845 -51.794  1.00  0.00     0.092 A 
HETATM   10 BR   UNL     1     -43.167  54.658 -50.592  1.00  0.00    -0.044 Br
HETATM   11  H   UNL     1     -43.196  57.735 -49.889  1.00  0.00     0.162 HD
ENDROOT
BRANCH   1  12
HETATM   12  C   UNL     1     -41.643  54.229 -53.712  1.00  0.00     0.273 C 
HETATM   13  N   UNL     1     -40.709  53.397 -53.131  1.00  0.00    -0.353 N 
HETATM   14  H   UNL     1     -40.122  53.829 -52.422  1.00  0.00     0.162 HD
HETATM   15  O   UNL     1     -42.286  53.908 -54.709  1.00  0.00    -0.266 OA
BRANCH  13  16
HETATM   16  C   UNL     1     -40.285  52.160 -53.751  1.00  0.00     0.149 C 
BRANCH  16  17
HETATM   17  C   UNL     1     -39.530  51.251 -52.777  1.00  0.00     0.186 C 
BRANCH  17  18
HETATM   18  O   UNL     1     -39.687  49.889 -53.191  1.00  0.00    -0.394 OA
HETATM   19  C   UNL     1     -39.779  49.782 -54.605  1.00  0.00     0.201 C 
ENDBRANCH  17  18
ENDBRANCH  16  17
ENDBRANCH  13  16
ENDBRANCH   1  12
BRANCH   8  20
HETATM   20  C   UNL     1     -42.103  59.567 -54.168  1.00  0.00     0.409 C 
HETATM   21  F   UNL     1     -43.351  59.069 -54.214  1.00  0.00    -0.169 F 
HETATM   22  F   UNL     1     -42.212  60.918 -54.065  1.00  0.00    -0.169 F 
HETATM   23  F   UNL     1     -41.529  59.331 -55.372  1.00  0.00    -0.169 F 
ENDBRANCH   8  20
BRANCH   6  24
HETATM   24  C   UNL     1     -43.858  60.127 -51.199  1.00  0.00    -0.035 A 
HETATM   25  C   UNL     1     -43.930  61.520 -51.388  1.00  0.00     0.009 A 
HETATM   26  C   UNL     1     -45.134  62.140 -51.728  1.00  0.00     0.001 A 
HETATM   27  C   UNL     1     -46.291  61.382 -51.883  1.00  0.00     0.000 A 
HETATM   28  C   UNL     1     -46.244  60.005 -51.691  1.00  0.00     0.001 A 
HETATM   29  C   UNL     1     -45.040  59.383 -51.347  1.00  0.00     0.009 A 
ENDBRANCH   6  24
TORSDOF 6
ENDMDL
