MODEL 1
REMARK VINA RESULT:      -8.8      0.000      0.000
REMARK  7 active torsions:
REMARK  status: ('A' for Active; 'I' for Inactive)
REMARK    1  A    between atoms: C_2  and  C_3 
REMARK    2  A    between atoms: C_6  and  C_7 
REMARK       I    between atoms: C_7  and  N_8 
REMARK    3  A    between atoms: N_8  and  C_9 
REMARK    4  A    between atoms: C_9  and  C_10 
REMARK    5  A    between atoms: N_19  and  C_20 
REMARK    6  A    between atoms: C_20  and  C_21 
REMARK    7  A    between atoms: C_21  and  C_22 
ROOT
HETATM    1  C   UNL     1     -42.960  58.800 -52.664  1.00  0.00     0.249 A 
HETATM    2  C   UNL     1     -41.568  58.684 -53.311  1.00  0.00     0.266 A 
HETATM    3  O   UNL     1     -40.989  59.524 -53.981  1.00  0.00    -0.270 OA
HETATM    4  N   UNL     1     -41.077  57.413 -53.035  1.00  0.00    -0.310 N 
HETATM    5  C   UNL     1     -41.984  56.677 -52.347  1.00  0.00     0.129 A 
HETATM    6  C   UNL     1     -43.071  57.412 -52.121  1.00  0.00     0.101 A 
HETATM    7  N   UNL     1     -41.846  55.386 -51.919  1.00  0.00    -0.284 N 
HETATM    8  C   UNL     1     -42.858  54.785 -51.168  1.00  0.00     0.331 A 
HETATM    9  O   UNL     1     -42.789  53.655 -50.693  1.00  0.00    -0.246 OA
HETATM   10  N   UNL     1     -43.979  55.556 -50.955  1.00  0.00    -0.275 N 
HETATM   11  C   UNL     1     -44.176  56.845 -51.370  1.00  0.00     0.262 A 
HETATM   12  O   UNL     1     -45.182  57.491 -51.113  1.00  0.00    -0.267 OA
HETATM   13  H   UNL     1     -40.191  57.089 -53.395  1.00  0.00     0.170 HD
HETATM   14  H   UNL     1     -44.720  55.127 -50.421  1.00  0.00     0.173 HD
ENDROOT
BRANCH   1  15
HETATM   15  N   UNL     1     -43.982  59.138 -53.677  1.00  0.00    -0.327 N 
HETATM   16  C   UNL     1     -44.204  58.382 -54.805  1.00  0.00     0.253 C 
HETATM   17  O   UNL     1     -43.616  57.335 -55.044  1.00  0.00    -0.268 OA
HETATM   18  H   UNL     1     -44.277  60.108 -53.706  1.00  0.00     0.164 HD
BRANCH  16  19
HETATM   19  C   UNL     1     -45.182  58.935 -55.778  1.00  0.00     0.032 A 
HETATM   20  C   UNL     1     -45.408  60.311 -55.793  1.00  0.00     0.017 A 
HETATM   21  C   UNL     1     -46.320  60.863 -56.699  1.00  0.00     0.009 A 
HETATM   22  C   UNL     1     -47.008  60.064 -57.631  1.00  0.00    -0.051 A 
HETATM   23  C   UNL     1     -46.767  58.677 -57.590  1.00  0.00     0.009 A 
HETATM   24  C   UNL     1     -45.860  58.116 -56.683  1.00  0.00     0.017 A 
BRANCH  22  25
HETATM   25  C   UNL     1     -48.013  60.681 -58.623  1.00  0.00    -0.024 C 
HETATM   26  C   UNL     1     -49.451  60.712 -58.057  1.00  0.00     0.019 C 
HETATM   27  C   UNL     1     -48.007  59.831 -59.908  1.00  0.00     0.019 C 
HETATM   28  C   UNL     1     -47.662  62.140 -58.999  1.00  0.00     0.019 C 
ENDBRANCH  22  25
ENDBRANCH  16  19
ENDBRANCH   1  15
BRANCH   1  29
HETATM   29  C   UNL     1     -42.809  59.846 -51.554  1.00  0.00     0.426 C 
HETATM   30  F   UNL     1     -42.464  61.057 -52.059  1.00  0.00    -0.167 F 
HETATM   31  F   UNL     1     -43.967  60.039 -50.880  1.00  0.00    -0.167 F 
HETATM   32  F   UNL     1     -41.873  59.504 -50.640  1.00  0.00    -0.167 F 
ENDBRANCH   1  29
BRANCH   7  33
HETATM   33  C   UNL     1     -40.633  54.616 -52.197  1.00  0.00     0.140 C 
BRANCH  33  34
HETATM   34  C   UNL     1     -40.749  53.805 -53.492  1.00  0.00     0.059 C 
BRANCH  34  35
HETATM   35  C   UNL     1     -40.321  52.371 -53.301  1.00  0.00    -0.057 A 
HETATM   36  C   UNL     1     -40.337  51.472 -54.377  1.00  0.00     0.007 A 
HETATM   37  C   UNL     1     -39.957  50.141 -54.192  1.00  0.00     0.001 A 
HETATM   38  C   UNL     1     -39.552  49.700 -52.935  1.00  0.00     0.000 A 
HETATM   39  C   UNL     1     -39.529  50.586 -51.861  1.00  0.00     0.001 A 
HETATM   40  C   UNL     1     -39.914  51.916 -52.041  1.00  0.00     0.007 A 
ENDBRANCH  34  35
ENDBRANCH  33  34
ENDBRANCH   7  33
TORSDOF 7
ENDMDL
MODEL 2
REMARK VINA RESULT:      -8.8      3.120      4.221
REMARK  7 active torsions:
REMARK  status: ('A' for Active; 'I' for Inactive)
REMARK    1  A    between atoms: C_2  and  C_3 
REMARK    2  A    between atoms: C_6  and  C_7 
REMARK       I    between atoms: C_7  and  N_8 
REMARK    3  A    between atoms: N_8  and  C_9 
REMARK    4  A    between atoms: C_9  and  C_10 
REMARK    5  A    between atoms: N_19  and  C_20 
REMARK    6  A    between atoms: C_20  and  C_21 
REMARK    7  A    between atoms: C_21  and  C_22 
ROOT
HETATM    1  C   UNL     1     -43.610  58.252 -57.412  1.00  0.00     0.249 A 
HETATM    2  C   UNL     1     -42.451  57.525 -58.118  1.00  0.00     0.266 A 
HETATM    3  O   UNL     1     -41.913  57.833 -59.170  1.00  0.00    -0.270 OA
HETATM    4  N   UNL     1     -42.132  56.402 -57.363  1.00  0.00    -0.310 N 
HETATM    5  C   UNL     1     -42.961  56.277 -56.298  1.00  0.00     0.129 A 
HETATM    6  C   UNL     1     -43.823  57.292 -56.286  1.00  0.00     0.101 A 
HETATM    7  N   UNL     1     -42.948  55.291 -55.351  1.00  0.00    -0.284 N 
HETATM    8  C   UNL     1     -43.840  55.337 -54.279  1.00  0.00     0.331 A 
HETATM    9  O   UNL     1     -43.853  54.528 -53.354  1.00  0.00    -0.246 OA
HETATM   10  N   UNL     1     -44.731  56.387 -54.290  1.00  0.00    -0.275 N 
HETATM   11  C   UNL     1     -44.798  57.392 -55.216  1.00  0.00     0.262 A 
HETATM   12  O   UNL     1     -45.590  58.321 -55.147  1.00  0.00    -0.267 OA
HETATM   13  H   UNL     1     -41.425  55.743 -57.653  1.00  0.00     0.170 HD
HETATM   14  H   UNL     1     -45.385  56.424 -53.523  1.00  0.00     0.173 HD
ENDROOT
BRANCH   1  15
HETATM   15  N   UNL     1     -44.770  58.391 -58.317  1.00  0.00    -0.327 N 
HETATM   16  C   UNL     1     -45.270  57.352 -59.068  1.00  0.00     0.253 C 
HETATM   17  O   UNL     1     -44.836  56.208 -59.012  1.00  0.00    -0.268 OA
HETATM   18  H   UNL     1     -44.975  59.332 -58.637  1.00  0.00     0.164 HD
BRANCH  16  19
HETATM   19  C   UNL     1     -46.360  57.699 -60.016  1.00  0.00     0.032 A 
HETATM   20  C   UNL     1     -46.694  59.041 -60.193  1.00  0.00     0.017 A 
HETATM   21  C   UNL     1     -47.713  59.401 -61.081  1.00  0.00     0.009 A 
HETATM   22  C   UNL     1     -48.406  58.436 -61.837  1.00  0.00    -0.051 A 
HETATM   23  C   UNL     1     -48.054  57.088 -61.635  1.00  0.00     0.009 A 
HETATM   24  C   UNL     1     -47.039  56.720 -60.743  1.00  0.00     0.017 A 
BRANCH  22  25
HETATM   25  C   UNL     1     -49.529  58.842 -62.811  1.00  0.00    -0.024 C 
HETATM   26  C   UNL     1     -50.935  58.613 -62.211  1.00  0.00     0.019 C 
HETATM   27  C   UNL     1     -49.392  57.990 -64.087  1.00  0.00     0.019 C 
HETATM   28  C   UNL     1     -49.463  60.335 -63.209  1.00  0.00     0.019 C 
ENDBRANCH  22  25
ENDBRANCH  16  19
ENDBRANCH   1  15
BRANCH   1  29
HETATM   29  C   UNL     1     -43.024  59.586 -56.934  1.00  0.00     0.426 C 
HETATM   30  F   UNL     1     -43.923  60.283 -56.196  1.00  0.00    -0.167 F 
HETATM   31  F   UNL     1     -41.944  59.406 -56.137  1.00  0.00    -0.167 F 
HETATM   32  F   UNL     1     -42.632  60.379 -57.957  1.00  0.00    -0.167 F 
ENDBRANCH   1  29
BRANCH   7  33
HETATM   33  C   UNL     1     -41.984  54.192 -55.410  1.00  0.00     0.140 C 
BRANCH  33  34
HETATM   34  C   UNL     1     -40.726  54.483 -54.585  1.00  0.00     0.059 C 
BRANCH  34  35
HETATM   35  C   UNL     1     -40.339  53.315 -53.712  1.00  0.00    -0.057 A 
HETATM   36  C   UNL     1     -40.019  52.074 -54.281  1.00  0.00     0.007 A 
HETATM   37  C   UNL     1     -39.678  50.990 -53.469  1.00  0.00     0.001 A 
HETATM   38  C   UNL     1     -39.648  51.139 -52.085  1.00  0.00     0.000 A 
HETATM   39  C   UNL     1     -39.960  52.369 -51.510  1.00  0.00     0.001 A 
HETATM   40  C   UNL     1     -40.307  53.452 -52.319  1.00  0.00     0.007 A 
ENDBRANCH  34  35
ENDBRANCH  33  34
ENDBRANCH   7  33
TORSDOF 7
ENDMDL
MODEL 3
REMARK VINA RESULT:      -8.7      2.521      3.180
REMARK  7 active torsions:
REMARK  status: ('A' for Active; 'I' for Inactive)
REMARK    1  A    between atoms: C_2  and  C_3 
REMARK    2  A    between atoms: C_6  and  C_7 
REMARK       I    between atoms: C_7  and  N_8 
REMARK    3  A    between atoms: N_8  and  C_9 
REMARK    4  A    between atoms: C_9  and  C_10 
REMARK    5  A    between atoms: N_19  and  C_20 
REMARK    6  A    between atoms: C_20  and  C_21 
REMARK    7  A    between atoms: C_21  and  C_22 
ROOT
HETATM    1  C   UNL     1     -42.220  58.983 -51.959  1.00  0.00     0.249 A 
HETATM    2  C   UNL     1     -40.782  58.551 -51.622  1.00  0.00     0.266 A 
HETATM    3  O   UNL     1     -39.752  59.173 -51.830  1.00  0.00    -0.270 OA
HETATM    4  N   UNL     1     -40.842  57.280 -51.060  1.00  0.00    -0.310 N 
HETATM    5  C   UNL     1     -42.114  56.813 -51.041  1.00  0.00     0.129 A 
HETATM    6  C   UNL     1     -42.931  57.734 -51.548  1.00  0.00     0.101 A 
HETATM    7  N   UNL     1     -42.543  55.602 -50.573  1.00  0.00    -0.284 N 
HETATM    8  C   UNL     1     -43.904  55.294 -50.572  1.00  0.00     0.331 A 
HETATM    9  O   UNL     1     -44.379  54.258 -50.114  1.00  0.00    -0.246 OA
HETATM   10  N   UNL     1     -44.733  56.252 -51.112  1.00  0.00    -0.275 N 
HETATM   11  C   UNL     1     -44.358  57.473 -51.605  1.00  0.00     0.262 A 
HETATM   12  O   UNL     1     -45.150  58.299 -52.035  1.00  0.00    -0.267 OA
HETATM   13  H   UNL     1     -40.011  56.770 -50.796  1.00  0.00     0.170 HD
HETATM   14  H   UNL     1     -45.717  56.035 -51.124  1.00  0.00     0.173 HD
ENDROOT
BRANCH   1  15
HETATM   15  N   UNL     1     -42.346  59.307 -53.396  1.00  0.00    -0.327 N 
HETATM   16  C   UNL     1     -42.091  58.400 -54.399  1.00  0.00     0.253 C 
HETATM   17  O   UNL     1     -41.791  57.230 -54.192  1.00  0.00    -0.268 OA
HETATM   18  H   UNL     1     -42.289  60.290 -53.638  1.00  0.00     0.164 HD
BRANCH  16  19
HETATM   19  C   UNL     1     -42.146  58.929 -55.786  1.00  0.00     0.032 A 
HETATM   20  C   UNL     1     -42.096  60.309 -55.979  1.00  0.00     0.017 A 
HETATM   21  C   UNL     1     -42.143  60.840 -57.273  1.00  0.00     0.009 A 
HETATM   22  C   UNL     1     -42.210  60.009 -58.408  1.00  0.00    -0.051 A 
HETATM   23  C   UNL     1     -42.266  58.620 -58.185  1.00  0.00     0.009 A 
HETATM   24  C   UNL     1     -42.225  58.082 -56.892  1.00  0.00     0.017 A 
BRANCH  22  25
HETATM   25  C   UNL     1     -42.263  60.603 -59.828  1.00  0.00    -0.024 C 
HETATM   26  C   UNL     1     -41.245  61.750 -60.022  1.00  0.00     0.019 C 
HETATM   27  C   UNL     1     -43.681  61.157 -60.068  1.00  0.00     0.019 C 
HETATM   28  C   UNL     1     -41.955  59.557 -60.925  1.00  0.00     0.019 C 
ENDBRANCH  22  25
ENDBRANCH  16  19
ENDBRANCH   1  15
BRANCH   1  29
HETATM   29  C   UNL     1     -42.524  60.158 -51.023  1.00  0.00     0.426 C 
HETATM   30  F   UNL     1     -41.868  60.032 -49.844  1.00  0.00    -0.167 F 
HETATM   31  F   UNL     1     -42.123  61.340 -51.549  1.00  0.00    -0.167 F 
HETATM   32  F   UNL     1     -43.843  60.277 -50.747  1.00  0.00    -0.167 F 
ENDBRANCH   1  29
BRANCH   7  33
HETATM   33  C   UNL     1     -41.604  54.620 -50.029  1.00  0.00     0.140 C 
BRANCH  33  34
HETATM   34  C   UNL     1     -40.285  54.591 -50.807  1.00  0.00     0.059 C 
BRANCH  34  35
HETATM   35  C   UNL     1     -40.300  53.562 -51.909  1.00  0.00    -0.057 A 
HETATM   36  C   UNL     1     -39.714  52.302 -51.719  1.00  0.00     0.007 A 
HETATM   37  C   UNL     1     -39.715  51.359 -52.747  1.00  0.00     0.001 A 
HETATM   38  C   UNL     1     -40.306  51.663 -53.971  1.00  0.00     0.000 A 
HETATM   39  C   UNL     1     -40.894  52.909 -54.170  1.00  0.00     0.001 A 
HETATM   40  C   UNL     1     -40.889  53.857 -53.145  1.00  0.00     0.007 A 
ENDBRANCH  34  35
ENDBRANCH  33  34
ENDBRANCH   7  33
TORSDOF 7
ENDMDL
MODEL 4
REMARK VINA RESULT:      -8.4      5.220      9.819
REMARK  7 active torsions:
REMARK  status: ('A' for Active; 'I' for Inactive)
REMARK    1  A    between atoms: C_2  and  C_3 
REMARK    2  A    between atoms: C_6  and  C_7 
REMARK       I    between atoms: C_7  and  N_8 
REMARK    3  A    between atoms: N_8  and  C_9 
REMARK    4  A    between atoms: C_9  and  C_10 
REMARK    5  A    between atoms: N_19  and  C_20 
REMARK    6  A    between atoms: C_20  and  C_21 
REMARK    7  A    between atoms: C_21  and  C_22 
ROOT
HETATM    1  C   UNL     1     -44.336  56.492 -59.403  1.00  0.00     0.249 A 
HETATM    2  C   UNL     1     -43.074  56.897 -60.187  1.00  0.00     0.266 A 
HETATM    3  O   UNL     1     -42.053  56.244 -60.338  1.00  0.00    -0.270 OA
HETATM    4  N   UNL     1     -43.274  58.182 -60.678  1.00  0.00    -0.310 N 
HETATM    5  C   UNL     1     -44.467  58.681 -60.271  1.00  0.00     0.129 A 
HETATM    6  C   UNL     1     -45.102  57.768 -59.539  1.00  0.00     0.101 A 
HETATM    7  N   UNL     1     -44.986  59.914 -60.554  1.00  0.00    -0.284 N 
HETATM    8  C   UNL     1     -46.262  60.256 -60.103  1.00  0.00     0.331 A 
HETATM    9  O   UNL     1     -46.828  61.315 -60.365  1.00  0.00    -0.246 OA
HETATM   10  N   UNL     1     -46.899  59.305 -59.337  1.00  0.00    -0.275 N 
HETATM   11  C   UNL     1     -46.423  58.064 -59.013  1.00  0.00     0.262 A 
HETATM   12  O   UNL     1     -47.056  57.247 -58.360  1.00  0.00    -0.267 OA
HETATM   13  H   UNL     1     -42.560  58.678 -61.191  1.00  0.00     0.170 HD
HETATM   14  H   UNL     1     -47.818  59.547 -59.000  1.00  0.00     0.173 HD
ENDROOT
BRANCH   1  15
HETATM   15  N   UNL     1     -43.995  56.135 -58.010  1.00  0.00    -0.327 N 
HETATM   16  C   UNL     1     -43.140  56.879 -57.228  1.00  0.00     0.253 C 
HETATM   17  O   UNL     1     -42.630  57.930 -57.596  1.00  0.00    -0.268 OA
HETATM   18  H   UNL     1     -44.125  55.163 -57.754  1.00  0.00     0.164 HD
BRANCH  16  19
HETATM   19  C   UNL     1     -42.812  56.308 -55.896  1.00  0.00     0.032 A 
HETATM   20  C   UNL     1     -42.942  54.933 -55.706  1.00  0.00     0.017 A 
HETATM   21  C   UNL     1     -42.639  54.363 -54.464  1.00  0.00     0.009 A 
HETATM   22  C   UNL     1     -42.170  55.145 -53.391  1.00  0.00    -0.051 A 
HETATM   23  C   UNL     1     -42.054  56.531 -53.608  1.00  0.00     0.009 A 
HETATM   24  C   UNL     1     -42.361  57.109 -54.845  1.00  0.00     0.017 A 
BRANCH  22  25
HETATM   25  C   UNL     1     -41.840  54.509 -52.027  1.00  0.00    -0.024 C 
HETATM   26  C   UNL     1     -40.861  53.319 -52.157  1.00  0.00     0.019 C 
HETATM   27  C   UNL     1     -43.153  54.002 -51.400  1.00  0.00     0.019 C 
HETATM   28  C   UNL     1     -41.183  55.508 -51.045  1.00  0.00     0.019 C 
ENDBRANCH  22  25
ENDBRANCH  16  19
ENDBRANCH   1  15
BRANCH   1  29
HETATM   29  C   UNL     1     -44.967  55.349 -60.206  1.00  0.00     0.426 C 
HETATM   30  F   UNL     1     -44.486  54.144 -59.812  1.00  0.00    -0.167 F 
HETATM   31  F   UNL     1     -46.309  55.290 -60.032  1.00  0.00    -0.167 F 
HETATM   32  F   UNL     1     -44.746  55.463 -61.535  1.00  0.00    -0.167 F 
ENDBRANCH   1  29
BRANCH   7  33
HETATM   33  C   UNL     1     -44.247  60.885 -61.360  1.00  0.00     0.140 C 
BRANCH  33  34
HETATM   34  C   UNL     1     -43.957  62.175 -60.586  1.00  0.00     0.059 C 
BRANCH  34  35
HETATM   35  C   UNL     1     -42.562  62.190 -60.013  1.00  0.00    -0.057 A 
HETATM   36  C   UNL     1     -42.282  61.548 -58.798  1.00  0.00     0.007 A 
HETATM   37  C   UNL     1     -40.993  61.579 -58.262  1.00  0.00     0.001 A 
HETATM   38  C   UNL     1     -39.973  62.244 -58.937  1.00  0.00     0.000 A 
HETATM   39  C   UNL     1     -40.239  62.881 -60.147  1.00  0.00     0.001 A 
HETATM   40  C   UNL     1     -41.528  62.857 -60.682  1.00  0.00     0.007 A 
ENDBRANCH  34  35
ENDBRANCH  33  34
ENDBRANCH   7  33
TORSDOF 7
ENDMDL
MODEL 5
REMARK VINA RESULT:      -8.3      3.521      9.198
REMARK  7 active torsions:
REMARK  status: ('A' for Active; 'I' for Inactive)
REMARK    1  A    between atoms: C_2  and  C_3 
REMARK    2  A    between atoms: C_6  and  C_7 
REMARK       I    between atoms: C_7  and  N_8 
REMARK    3  A    between atoms: N_8  and  C_9 
REMARK    4  A    between atoms: C_9  and  C_10 
REMARK    5  A    between atoms: N_19  and  C_20 
REMARK    6  A    between atoms: C_20  and  C_21 
REMARK    7  A    between atoms: C_21  and  C_22 
ROOT
HETATM    1  C   UNL     1     -42.134  58.308 -53.615  1.00  0.00     0.249 A 
HETATM    2  C   UNL     1     -41.003  59.106 -52.942  1.00  0.00     0.266 A 
HETATM    3  O   UNL     1     -39.821  59.119 -53.247  1.00  0.00    -0.270 OA
HETATM    4  N   UNL     1     -41.554  59.802 -51.871  1.00  0.00    -0.310 N 
HETATM    5  C   UNL     1     -42.871  59.518 -51.729  1.00  0.00     0.129 A 
HETATM    6  C   UNL     1     -43.247  58.669 -52.684  1.00  0.00     0.101 A 
HETATM    7  N   UNL     1     -43.725  60.009 -50.781  1.00  0.00    -0.284 N 
HETATM    8  C   UNL     1     -45.075  59.659 -50.806  1.00  0.00     0.331 A 
HETATM    9  O   UNL     1     -45.920  60.103 -50.032  1.00  0.00    -0.246 OA
HETATM   10  N   UNL     1     -45.443  58.771 -51.792  1.00  0.00    -0.275 N 
HETATM   11  C   UNL     1     -44.631  58.239 -52.757  1.00  0.00     0.262 A 
HETATM   12  O   UNL     1     -45.029  57.484 -53.632  1.00  0.00    -0.267 OA
HETATM   13  H   UNL     1     -40.991  60.365 -51.250  1.00  0.00     0.170 HD
HETATM   14  H   UNL     1     -46.416  58.506 -51.813  1.00  0.00     0.173 HD
ENDROOT
BRANCH   1  15
HETATM   15  N   UNL     1     -41.812  56.866 -53.643  1.00  0.00    -0.327 N 
HETATM   16  C   UNL     1     -41.404  56.162 -52.533  1.00  0.00     0.253 C 
HETATM   17  O   UNL     1     -41.323  56.653 -51.414  1.00  0.00    -0.268 OA
HETATM   18  H   UNL     1     -41.567  56.482 -54.549  1.00  0.00     0.164 HD
BRANCH  16  19
HETATM   19  C   UNL     1     -41.002  54.751 -52.768  1.00  0.00     0.032 A 
HETATM   20  C   UNL     1     -40.972  54.271 -54.077  1.00  0.00     0.017 A 
HETATM   21  C   UNL     1     -40.595  52.948 -54.332  1.00  0.00     0.009 A 
HETATM   22  C   UNL     1     -40.211  52.079 -53.293  1.00  0.00    -0.051 A 
HETATM   23  C   UNL     1     -40.257  52.586 -51.981  1.00  0.00     0.009 A 
HETATM   24  C   UNL     1     -40.639  53.907 -51.717  1.00  0.00     0.017 A 
BRANCH  22  25
HETATM   25  C   UNL     1     -39.800  50.622 -53.584  1.00  0.00    -0.024 C 
HETATM   26  C   UNL     1     -38.450  50.533 -54.332  1.00  0.00     0.019 C 
HETATM   27  C   UNL     1     -40.892  49.977 -54.458  1.00  0.00     0.019 C 
HETATM   28  C   UNL     1     -39.641  49.778 -52.297  1.00  0.00     0.019 C 
ENDBRANCH  22  25
ENDBRANCH  16  19
ENDBRANCH   1  15
BRANCH   1  29
HETATM   29  C   UNL     1     -42.311  58.938 -55.001  1.00  0.00     0.426 C 
HETATM   30  F   UNL     1     -43.562  59.434 -55.163  1.00  0.00    -0.167 F 
HETATM   31  F   UNL     1     -41.468  59.981 -55.193  1.00  0.00    -0.167 F 
HETATM   32  F   UNL     1     -42.086  58.060 -56.005  1.00  0.00    -0.167 F 
ENDBRANCH   1  29
BRANCH   7  33
HETATM   33  C   UNL     1     -43.263  60.936 -49.747  1.00  0.00     0.140 C 
BRANCH  33  34
HETATM   34  C   UNL     1     -43.287  62.392 -50.226  1.00  0.00     0.059 C 
BRANCH  34  35
HETATM   35  C   UNL     1     -44.414  63.175 -49.600  1.00  0.00    -0.057 A 
HETATM   36  C   UNL     1     -44.643  63.117 -48.218  1.00  0.00     0.007 A 
HETATM   37  C   UNL     1     -45.698  63.830 -47.646  1.00  0.00     0.001 A 
HETATM   38  C   UNL     1     -46.529  64.609 -48.447  1.00  0.00     0.000 A 
HETATM   39  C   UNL     1     -46.308  64.676 -49.820  1.00  0.00     0.001 A 
HETATM   40  C   UNL     1     -45.257  63.961 -50.397  1.00  0.00     0.007 A 
ENDBRANCH  34  35
ENDBRANCH  33  34
ENDBRANCH   7  33
TORSDOF 7
ENDMDL
MODEL 6
REMARK VINA RESULT:      -8.2      1.302      2.022
REMARK  7 active torsions:
REMARK  status: ('A' for Active; 'I' for Inactive)
REMARK    1  A    between atoms: C_2  and  C_3 
REMARK    2  A    between atoms: C_6  and  C_7 
REMARK       I    between atoms: C_7  and  N_8 
REMARK    3  A    between atoms: N_8  and  C_9 
REMARK    4  A    between atoms: C_9  and  C_10 
REMARK    5  A    between atoms: N_19  and  C_20 
REMARK    6  A    between atoms: C_20  and  C_21 
REMARK    7  A    between atoms: C_21  and  C_22 
ROOT
HETATM    1  C   UNL     1     -42.723  58.945 -52.237  1.00  0.00     0.249 A 
HETATM    2  C   UNL     1     -41.510  58.717 -53.156  1.00  0.00     0.266 A 
HETATM    3  O   UNL     1     -40.842  59.565 -53.727  1.00  0.00    -0.270 OA
HETATM    4  N   UNL     1     -41.313  57.345 -53.267  1.00  0.00    -0.310 N 
HETATM    5  C   UNL     1     -42.266  56.659 -52.592  1.00  0.00     0.129 A 
HETATM    6  C   UNL     1     -43.095  57.517 -52.000  1.00  0.00     0.101 A 
HETATM    7  N   UNL     1     -42.392  55.301 -52.492  1.00  0.00    -0.284 N 
HETATM    8  C   UNL     1     -43.404  54.747 -51.706  1.00  0.00     0.331 A 
HETATM    9  O   UNL     1     -43.549  53.543 -51.512  1.00  0.00    -0.246 OA
HETATM   10  N   UNL     1     -44.259  55.649 -51.112  1.00  0.00    -0.275 N 
HETATM   11  C   UNL     1     -44.188  57.014 -51.188  1.00  0.00     0.262 A 
HETATM   12  O   UNL     1     -44.957  57.763 -50.602  1.00  0.00    -0.267 OA
HETATM   13  H   UNL     1     -40.595  56.952 -53.857  1.00  0.00     0.170 HD
HETATM   14  H   UNL     1     -44.998  55.258 -50.549  1.00  0.00     0.173 HD
ENDROOT
BRANCH   1  15
HETATM   15  N   UNL     1     -43.763  59.735 -52.930  1.00  0.00    -0.327 N 
HETATM   16  C   UNL     1     -44.297  59.376 -54.147  1.00  0.00     0.253 C 
HETATM   17  O   UNL     1     -44.000  58.346 -54.738  1.00  0.00    -0.268 OA
HETATM   18  H   UNL     1     -43.830  60.712 -52.667  1.00  0.00     0.164 HD
BRANCH  16  19
HETATM   19  C   UNL     1     -45.240  60.349 -54.757  1.00  0.00     0.032 A 
HETATM   20  C   UNL     1     -45.552  60.223 -56.110  1.00  0.00     0.017 A 
HETATM   21  C   UNL     1     -46.439  61.122 -56.714  1.00  0.00     0.009 A 
HETATM   22  C   UNL     1     -47.059  62.150 -55.979  1.00  0.00    -0.051 A 
HETATM   23  C   UNL     1     -46.721  62.260 -54.616  1.00  0.00     0.009 A 
HETATM   24  C   UNL     1     -45.830  61.368 -54.007  1.00  0.00     0.017 A 
BRANCH  22  25
HETATM   25  C   UNL     1     -48.032  63.136 -56.652  1.00  0.00    -0.024 C 
HETATM   26  C   UNL     1     -48.802  63.995 -55.623  1.00  0.00     0.019 C 
HETATM   27  C   UNL     1     -49.050  62.323 -57.476  1.00  0.00     0.019 C 
HETATM   28  C   UNL     1     -47.318  64.128 -57.600  1.00  0.00     0.019 C 
ENDBRANCH  22  25
ENDBRANCH  16  19
ENDBRANCH   1  15
BRANCH   1  29
HETATM   29  C   UNL     1     -42.163  59.615 -50.978  1.00  0.00     0.426 C 
HETATM   30  F   UNL     1     -41.420  58.748 -50.246  1.00  0.00    -0.167 F 
HETATM   31  F   UNL     1     -41.342  60.649 -51.279  1.00  0.00    -0.167 F 
HETATM   32  F   UNL     1     -43.133  60.104 -50.172  1.00  0.00    -0.167 F 
ENDBRANCH   1  29
BRANCH   7  33
HETATM   33  C   UNL     1     -41.458  54.398 -53.165  1.00  0.00     0.140 C 
BRANCH  33  34
HETATM   34  C   UNL     1     -40.409  53.831 -52.203  1.00  0.00     0.059 C 
BRANCH  34  35
HETATM   35  C   UNL     1     -40.128  52.373 -52.467  1.00  0.00    -0.057 A 
HETATM   36  C   UNL     1     -39.775  51.512 -51.418  1.00  0.00     0.007 A 
HETATM   37  C   UNL     1     -39.499  50.167 -51.669  1.00  0.00     0.001 A 
HETATM   38  C   UNL     1     -39.580  49.669 -52.967  1.00  0.00     0.000 A 
HETATM   39  C   UNL     1     -39.934  50.515 -54.016  1.00  0.00     0.001 A 
HETATM   40  C   UNL     1     -40.205  51.861 -53.769  1.00  0.00     0.007 A 
ENDBRANCH  34  35
ENDBRANCH  33  34
ENDBRANCH   7  33
TORSDOF 7
ENDMDL
MODEL 7
REMARK VINA RESULT:      -8.0      2.848      8.312
REMARK  7 active torsions:
REMARK  status: ('A' for Active; 'I' for Inactive)
REMARK    1  A    between atoms: C_2  and  C_3 
REMARK    2  A    between atoms: C_6  and  C_7 
REMARK       I    between atoms: C_7  and  N_8 
REMARK    3  A    between atoms: N_8  and  C_9 
REMARK    4  A    between atoms: C_9  and  C_10 
REMARK    5  A    between atoms: N_19  and  C_20 
REMARK    6  A    between atoms: C_20  and  C_21 
REMARK    7  A    between atoms: C_21  and  C_22 
ROOT
HETATM    1  C   UNL     1     -43.920  58.345 -54.658  1.00  0.00     0.249 A 
HETATM    2  C   UNL     1     -45.173  57.960 -55.464  1.00  0.00     0.266 A 
HETATM    3  O   UNL     1     -46.033  57.148 -55.158  1.00  0.00    -0.270 OA
HETATM    4  N   UNL     1     -45.148  58.677 -56.656  1.00  0.00    -0.310 N 
HETATM    5  C   UNL     1     -44.024  59.428 -56.751  1.00  0.00     0.129 A 
HETATM    6  C   UNL     1     -43.291  59.269 -55.651  1.00  0.00     0.101 A 
HETATM    7  N   UNL     1     -43.663  60.247 -57.784  1.00  0.00    -0.284 N 
HETATM    8  C   UNL     1     -42.492  61.002 -57.702  1.00  0.00     0.331 A 
HETATM    9  O   UNL     1     -42.126  61.807 -58.555  1.00  0.00    -0.246 OA
HETATM   10  N   UNL     1     -41.739  60.815 -56.564  1.00  0.00    -0.275 N 
HETATM   11  C   UNL     1     -42.046  60.001 -55.507  1.00  0.00     0.262 A 
HETATM   12  O   UNL     1     -41.353  59.909 -54.503  1.00  0.00    -0.267 OA
HETATM   13  H   UNL     1     -45.851  58.556 -57.370  1.00  0.00     0.170 HD
HETATM   14  H   UNL     1     -40.887  61.350 -56.500  1.00  0.00     0.173 HD
ENDROOT
BRANCH   1  15
HETATM   15  N   UNL     1     -43.111  57.149 -54.344  1.00  0.00    -0.327 N 
HETATM   16  C   UNL     1     -42.726  56.229 -55.292  1.00  0.00     0.253 C 
HETATM   17  O   UNL     1     -42.973  56.345 -56.486  1.00  0.00    -0.268 OA
HETATM   18  H   UNL     1     -43.133  56.837 -53.380  1.00  0.00     0.164 HD
BRANCH  16  19
HETATM   19  C   UNL     1     -42.023  55.023 -54.782  1.00  0.00     0.032 A 
HETATM   20  C   UNL     1     -40.892  54.570 -55.460  1.00  0.00     0.017 A 
HETATM   21  C   UNL     1     -40.205  53.439 -55.004  1.00  0.00     0.009 A 
HETATM   22  C   UNL     1     -40.610  52.750 -53.846  1.00  0.00    -0.051 A 
HETATM   23  C   UNL     1     -41.759  53.224 -53.184  1.00  0.00     0.009 A 
HETATM   24  C   UNL     1     -42.455  54.351 -53.638  1.00  0.00     0.017 A 
BRANCH  22  25
HETATM   25  C   UNL     1     -39.849  51.504 -53.352  1.00  0.00    -0.024 C 
HETATM   26  C   UNL     1     -39.831  51.402 -51.810  1.00  0.00     0.019 C 
HETATM   27  C   UNL     1     -38.396  51.594 -53.858  1.00  0.00     0.019 C 
HETATM   28  C   UNL     1     -40.466  50.183 -53.869  1.00  0.00     0.019 C 
ENDBRANCH  22  25
ENDBRANCH  16  19
ENDBRANCH   1  15
BRANCH   1  29
HETATM   29  C   UNL     1     -44.442  59.090 -53.424  1.00  0.00     0.426 C 
HETATM   30  F   UNL     1     -45.302  60.079 -53.771  1.00  0.00    -0.167 F 
HETATM   31  F   UNL     1     -45.131  58.271 -52.593  1.00  0.00    -0.167 F 
HETATM   32  F   UNL     1     -43.450  59.648 -52.694  1.00  0.00    -0.167 F 
ENDBRANCH   1  29
BRANCH   7  33
HETATM   33  C   UNL     1     -44.501  60.385 -58.975  1.00  0.00     0.140 C 
BRANCH  33  34
HETATM   34  C   UNL     1     -43.874  59.714 -60.202  1.00  0.00     0.059 C 
BRANCH  34  35
HETATM   35  C   UNL     1     -43.820  58.214 -60.061  1.00  0.00    -0.057 A 
HETATM   36  C   UNL     1     -42.589  57.548 -59.974  1.00  0.00     0.007 A 
HETATM   37  C   UNL     1     -42.542  56.158 -59.861  1.00  0.00     0.001 A 
HETATM   38  C   UNL     1     -43.724  55.422 -59.827  1.00  0.00     0.000 A 
HETATM   39  C   UNL     1     -44.952  56.073 -59.909  1.00  0.00     0.001 A 
HETATM   40  C   UNL     1     -45.002  57.463 -60.028  1.00  0.00     0.007 A 
ENDBRANCH  34  35
ENDBRANCH  33  34
ENDBRANCH   7  33
TORSDOF 7
ENDMDL
MODEL 8
REMARK VINA RESULT:      -7.7      4.425     10.362
REMARK  7 active torsions:
REMARK  status: ('A' for Active; 'I' for Inactive)
REMARK    1  A    between atoms: C_2  and  C_3 
REMARK    2  A    between atoms: C_6  and  C_7 
REMARK       I    between atoms: C_7  and  N_8 
REMARK    3  A    between atoms: N_8  and  C_9 
REMARK    4  A    between atoms: C_9  and  C_10 
REMARK    5  A    between atoms: N_19  and  C_20 
REMARK    6  A    between atoms: C_20  and  C_21 
REMARK    7  A    between atoms: C_21  and  C_22 
ROOT
HETATM    1  C   UNL     1     -43.251  57.423 -58.687  1.00  0.00     0.249 A 
HETATM    2  C   UNL     1     -43.579  58.918 -58.530  1.00  0.00     0.266 A 
HETATM    3  O   UNL     1     -42.882  59.781 -58.021  1.00  0.00    -0.270 OA
HETATM    4  N   UNL     1     -44.856  59.129 -59.040  1.00  0.00    -0.310 N 
HETATM    5  C   UNL     1     -45.415  57.966 -59.454  1.00  0.00     0.129 A 
HETATM    6  C   UNL     1     -44.552  56.968 -59.266  1.00  0.00     0.101 A 
HETATM    7  N   UNL     1     -46.658  57.793 -59.997  1.00  0.00    -0.284 N 
HETATM    8  C   UNL     1     -47.065  56.530 -60.426  1.00  0.00     0.331 A 
HETATM    9  O   UNL     1     -48.137  56.299 -60.980  1.00  0.00    -0.246 OA
HETATM   10  N   UNL     1     -46.166  55.508 -60.213  1.00  0.00    -0.275 N 
HETATM   11  C   UNL     1     -44.917  55.621 -59.664  1.00  0.00     0.262 A 
HETATM   12  O   UNL     1     -44.148  54.679 -59.538  1.00  0.00    -0.267 OA
HETATM   13  H   UNL     1     -45.305  60.032 -59.007  1.00  0.00     0.170 HD
HETATM   14  H   UNL     1     -46.455  54.590 -60.512  1.00  0.00     0.173 HD
ENDROOT
BRANCH   1  15
HETATM   15  N   UNL     1     -42.926  56.817 -57.379  1.00  0.00    -0.327 N 
HETATM   16  C   UNL     1     -43.682  57.018 -56.246  1.00  0.00     0.253 C 
HETATM   17  O   UNL     1     -44.719  57.669 -56.232  1.00  0.00    -0.268 OA
HETATM   18  H   UNL     1     -41.961  56.536 -57.246  1.00  0.00     0.164 HD
BRANCH  16  19
HETATM   19  C   UNL     1     -43.141  56.436 -54.991  1.00  0.00     0.032 A 
HETATM   20  C   UNL     1     -42.030  57.035 -54.398  1.00  0.00     0.017 A 
HETATM   21  C   UNL     1     -41.498  56.513 -53.213  1.00  0.00     0.009 A 
HETATM   22  C   UNL     1     -42.076  55.400 -52.575  1.00  0.00    -0.051 A 
HETATM   23  C   UNL     1     -43.192  54.809 -53.198  1.00  0.00     0.009 A 
HETATM   24  C   UNL     1     -43.726  55.322 -54.386  1.00  0.00     0.017 A 
BRANCH  22  25
HETATM   25  C   UNL     1     -41.481  54.831 -51.272  1.00  0.00    -0.024 C 
HETATM   26  C   UNL     1     -40.413  53.746 -51.541  1.00  0.00     0.019 C 
HETATM   27  C   UNL     1     -42.626  54.204 -50.452  1.00  0.00     0.019 C 
HETATM   28  C   UNL     1     -40.795  55.913 -50.406  1.00  0.00     0.019 C 
ENDBRANCH  22  25
ENDBRANCH  16  19
ENDBRANCH   1  15
BRANCH   1  29
HETATM   29  C   UNL     1     -42.109  57.360 -59.708  1.00  0.00     0.426 C 
HETATM   30  F   UNL     1     -40.983  57.939 -59.225  1.00  0.00    -0.167 F 
HETATM   31  F   UNL     1     -41.773  56.084 -60.012  1.00  0.00    -0.167 F 
HETATM   32  F   UNL     1     -42.418  57.975 -60.873  1.00  0.00    -0.167 F 
ENDBRANCH   1  29
BRANCH   7  33
HETATM   33  C   UNL     1     -47.572  58.921 -60.178  1.00  0.00     0.140 C 
BRANCH  33  34
HETATM   34  C   UNL     1     -47.486  59.513 -61.589  1.00  0.00     0.059 C 
BRANCH  34  35
HETATM   35  C   UNL     1     -48.815  59.477 -62.301  1.00  0.00    -0.057 A 
HETATM   36  C   UNL     1     -49.004  58.655 -63.420  1.00  0.00     0.007 A 
HETATM   37  C   UNL     1     -50.231  58.638 -64.087  1.00  0.00     0.001 A 
HETATM   38  C   UNL     1     -51.279  59.437 -63.637  1.00  0.00     0.000 A 
HETATM   39  C   UNL     1     -51.103  60.255 -62.523  1.00  0.00     0.001 A 
HETATM   40  C   UNL     1     -49.876  60.278 -61.858  1.00  0.00     0.007 A 
ENDBRANCH  34  35
ENDBRANCH  33  34
ENDBRANCH   7  33
TORSDOF 7
ENDMDL
MODEL 9
REMARK VINA RESULT:      -7.6      4.053      7.964
REMARK  7 active torsions:
REMARK  status: ('A' for Active; 'I' for Inactive)
REMARK    1  A    between atoms: C_2  and  C_3 
REMARK    2  A    between atoms: C_6  and  C_7 
REMARK       I    between atoms: C_7  and  N_8 
REMARK    3  A    between atoms: N_8  and  C_9 
REMARK    4  A    between atoms: C_9  and  C_10 
REMARK    5  A    between atoms: N_19  and  C_20 
REMARK    6  A    between atoms: C_20  and  C_21 
REMARK    7  A    between atoms: C_21  and  C_22 
ROOT
HETATM    1  C   UNL     1     -43.055  57.830 -51.627  1.00  0.00     0.249 A 
HETATM    2  C   UNL     1     -44.371  57.385 -50.965  1.00  0.00     0.266 A 
HETATM    3  O   UNL     1     -44.889  56.280 -51.012  1.00  0.00    -0.270 OA
HETATM    4  N   UNL     1     -44.916  58.489 -50.318  1.00  0.00    -0.310 N 
HETATM    5  C   UNL     1     -44.159  59.595 -50.518  1.00  0.00     0.129 A 
HETATM    6  C   UNL     1     -43.100  59.279 -51.261  1.00  0.00     0.101 A 
HETATM    7  N   UNL     1     -44.396  60.855 -50.042  1.00  0.00    -0.284 N 
HETATM    8  C   UNL     1     -43.484  61.881 -50.293  1.00  0.00     0.331 A 
HETATM    9  O   UNL     1     -43.588  63.022 -49.852  1.00  0.00    -0.246 OA
HETATM   10  N   UNL     1     -42.402  61.539 -51.074  1.00  0.00    -0.275 N 
HETATM   11  C   UNL     1     -42.122  60.301 -51.585  1.00  0.00     0.262 A 
HETATM   12  O   UNL     1     -41.120  60.052 -52.240  1.00  0.00    -0.267 OA
HETATM   13  H   UNL     1     -45.807  58.449 -49.845  1.00  0.00     0.170 HD
HETATM   14  H   UNL     1     -41.741  62.276 -51.267  1.00  0.00     0.173 HD
ENDROOT
BRANCH   1  15
HETATM   15  N   UNL     1     -43.087  57.572 -53.082  1.00  0.00    -0.327 N 
HETATM   16  C   UNL     1     -44.074  58.051 -53.912  1.00  0.00     0.253 C 
HETATM   17  O   UNL     1     -44.983  58.778 -53.532  1.00  0.00    -0.268 OA
HETATM   18  H   UNL     1     -42.569  56.761 -53.401  1.00  0.00     0.164 HD
BRANCH  16  19
HETATM   19  C   UNL     1     -44.018  57.591 -55.324  1.00  0.00     0.032 A 
HETATM   20  C   UNL     1     -43.169  56.535 -55.652  1.00  0.00     0.017 A 
HETATM   21  C   UNL     1     -43.095  56.076 -56.972  1.00  0.00     0.009 A 
HETATM   22  C   UNL     1     -43.887  56.638 -57.992  1.00  0.00    -0.051 A 
HETATM   23  C   UNL     1     -44.730  57.707 -57.635  1.00  0.00     0.009 A 
HETATM   24  C   UNL     1     -44.805  58.176 -56.318  1.00  0.00     0.017 A 
BRANCH  22  25
HETATM   25  C   UNL     1     -43.797  56.128 -59.443  1.00  0.00    -0.024 C 
HETATM   26  C   UNL     1     -44.246  54.654 -59.574  1.00  0.00     0.019 C 
HETATM   27  C   UNL     1     -42.331  56.239 -59.905  1.00  0.00     0.019 C 
HETATM   28  C   UNL     1     -44.681  56.940 -60.418  1.00  0.00     0.019 C 
ENDBRANCH  22  25
ENDBRANCH  16  19
ENDBRANCH   1  15
BRANCH   1  29
HETATM   29  C   UNL     1     -41.947  57.079 -50.881  1.00  0.00     0.426 C 
HETATM   30  F   UNL     1     -41.024  56.579 -51.739  1.00  0.00    -0.167 F 
HETATM   31  F   UNL     1     -41.270  57.889 -50.033  1.00  0.00    -0.167 F 
HETATM   32  F   UNL     1     -42.422  56.048 -50.145  1.00  0.00    -0.167 F 
ENDBRANCH   1  29
BRANCH   7  33
HETATM   33  C   UNL     1     -45.578  61.154 -49.233  1.00  0.00     0.140 C 
BRANCH  33  34
HETATM   34  C   UNL     1     -45.303  61.000 -47.733  1.00  0.00     0.059 C 
BRANCH  34  35
HETATM   35  C   UNL     1     -45.870  62.146 -46.933  1.00  0.00    -0.057 A 
HETATM   36  C   UNL     1     -45.238  62.580 -45.760  1.00  0.00     0.007 A 
HETATM   37  C   UNL     1     -45.775  63.630 -45.013  1.00  0.00     0.001 A 
HETATM   38  C   UNL     1     -46.943  64.259 -45.435  1.00  0.00     0.000 A 
HETATM   39  C   UNL     1     -47.578  63.839 -46.602  1.00  0.00     0.001 A 
HETATM   40  C   UNL     1     -47.046  62.785 -47.348  1.00  0.00     0.007 A 
ENDBRANCH  34  35
ENDBRANCH  33  34
ENDBRANCH   7  33
TORSDOF 7
ENDMDL
MODEL 10
REMARK VINA RESULT:      -7.6      1.844      8.335
REMARK  7 active torsions:
REMARK  status: ('A' for Active; 'I' for Inactive)
REMARK    1  A    between atoms: C_2  and  C_3 
REMARK    2  A    between atoms: C_6  and  C_7 
REMARK       I    between atoms: C_7  and  N_8 
REMARK    3  A    between atoms: N_8  and  C_9 
REMARK    4  A    between atoms: C_9  and  C_10 
REMARK    5  A    between atoms: N_19  and  C_20 
REMARK    6  A    between atoms: C_20  and  C_21 
REMARK    7  A    between atoms: C_21  and  C_22 
ROOT
HETATM    1  C   UNL     1     -43.057  58.331 -52.654  1.00  0.00     0.249 A 
HETATM    2  C   UNL     1     -44.580  58.107 -52.651  1.00  0.00     0.266 A 
HETATM    3  O   UNL     1     -45.225  57.406 -51.888  1.00  0.00    -0.270 OA
HETATM    4  N   UNL     1     -45.116  58.823 -53.716  1.00  0.00    -0.310 N 
HETATM    5  C   UNL     1     -44.143  59.431 -54.436  1.00  0.00     0.129 A 
HETATM    6  C   UNL     1     -42.958  59.176 -53.884  1.00  0.00     0.101 A 
HETATM    7  N   UNL     1     -44.301  60.205 -55.552  1.00  0.00    -0.284 N 
HETATM    8  C   UNL     1     -43.194  60.810 -56.148  1.00  0.00     0.331 A 
HETATM    9  O   UNL     1     -43.255  61.569 -57.112  1.00  0.00    -0.246 OA
HETATM   10  N   UNL     1     -41.976  60.525 -55.571  1.00  0.00    -0.275 N 
HETATM   11  C   UNL     1     -41.758  59.749 -54.465  1.00  0.00     0.262 A 
HETATM   12  O   UNL     1     -40.652  59.567 -53.976  1.00  0.00    -0.267 OA
HETATM   13  H   UNL     1     -46.100  58.794 -53.941  1.00  0.00     0.170 HD
HETATM   14  H   UNL     1     -41.169  60.951 -56.000  1.00  0.00     0.173 HD
ENDROOT
BRANCH   1  15
HETATM   15  N   UNL     1     -42.339  57.043 -52.745  1.00  0.00    -0.327 N 
HETATM   16  C   UNL     1     -42.606  56.096 -53.707  1.00  0.00     0.253 C 
HETATM   17  O   UNL     1     -43.423  56.257 -54.605  1.00  0.00    -0.268 OA
HETATM   18  H   UNL     1     -41.890  56.722 -51.894  1.00  0.00     0.164 HD
BRANCH  16  19
HETATM   19  C   UNL     1     -41.877  54.808 -53.575  1.00  0.00     0.032 A 
HETATM   20  C   UNL     1     -41.957  53.882 -54.614  1.00  0.00     0.017 A 
HETATM   21  C   UNL     1     -41.279  52.661 -54.521  1.00  0.00     0.009 A 
HETATM   22  C   UNL     1     -40.482  52.345 -53.405  1.00  0.00    -0.051 A 
HETATM   23  C   UNL     1     -40.424  53.294 -52.367  1.00  0.00     0.009 A 
HETATM   24  C   UNL     1     -41.104  54.515 -52.450  1.00  0.00     0.017 A 
BRANCH  22  25
HETATM   25  C   UNL     1     -39.741  50.997 -53.311  1.00  0.00    -0.024 C 
HETATM   26  C   UNL     1     -40.465  49.876 -54.092  1.00  0.00     0.019 C 
HETATM   27  C   UNL     1     -39.661  50.592 -51.826  1.00  0.00     0.019 C 
HETATM   28  C   UNL     1     -38.304  51.064 -53.878  1.00  0.00     0.019 C 
ENDBRANCH  22  25
ENDBRANCH  16  19
ENDBRANCH   1  15
BRANCH   1  29
HETATM   29  C   UNL     1     -42.758  59.127 -51.379  1.00  0.00     0.426 C 
HETATM   30  F   UNL     1     -41.800  58.524 -50.633  1.00  0.00    -0.167 F 
HETATM   31  F   UNL     1     -42.290  60.368 -51.655  1.00  0.00    -0.167 F 
HETATM   32  F   UNL     1     -43.849  59.283 -50.595  1.00  0.00    -0.167 F 
ENDBRANCH   1  29
BRANCH   7  33
HETATM   33  C   UNL     1     -45.625  60.453 -56.125  1.00  0.00     0.140 C 
BRANCH  33  34
HETATM   34  C   UNL     1     -46.178  59.222 -56.851  1.00  0.00     0.059 C 
BRANCH  34  35
HETATM   35  C   UNL     1     -45.286  58.785 -57.986  1.00  0.00    -0.057 A 
HETATM   36  C   UNL     1     -44.491  57.636 -57.868  1.00  0.00     0.007 A 
HETATM   37  C   UNL     1     -43.653  57.245 -58.914  1.00  0.00     0.001 A 
HETATM   38  C   UNL     1     -43.607  57.994 -60.087  1.00  0.00     0.000 A 
HETATM   39  C   UNL     1     -44.396  59.135 -60.216  1.00  0.00     0.001 A 
HETATM   40  C   UNL     1     -45.230  59.532 -59.170  1.00  0.00     0.007 A 
ENDBRANCH  34  35
ENDBRANCH  33  34
ENDBRANCH   7  33
TORSDOF 7
ENDMDL
