MODEL 1
REMARK VINA RESULT:      -9.0      0.000      0.000
REMARK  4 active torsions:
REMARK  status: ('A' for Active; 'I' for Inactive)
REMARK    1  A    between atoms: C_6  and  C_7 
REMARK    2  A    between atoms: C_8  and  C_9 
REMARK       I    between atoms: C_9  and  N_10 
REMARK    3  A    between atoms: N_10  and  C_11 
REMARK    4  A    between atoms: C_18  and  C_19 
REMARK       I    between atoms: C_19  and  N_20 
ROOT
HETATM    1  C   UNL     1     -42.446  56.314 -56.878  1.00  0.00     0.035 A 
HETATM    2  C   UNL     1     -43.121  55.702 -57.942  1.00  0.00     0.046 A 
HETATM    3  C   UNL     1     -43.829  56.500 -58.870  1.00  0.00     0.030 A 
HETATM    4  C   UNL     1     -43.833  57.880 -58.701  1.00  0.00     0.063 A 
HETATM    5  N   UNL     1     -44.588  58.369 -59.731  1.00  0.00    -0.277 N 
HETATM    6  H   UNL     1     -44.809  59.339 -59.922  1.00  0.00     0.189 HD
HETATM    7  N   UNL     1     -45.076  57.431 -60.558  1.00  0.00    -0.168 NA
HETATM    8  C   UNL     1     -44.615  56.269 -60.040  1.00  0.00     0.156 A 
HETATM    9  C   UNL     1     -43.166  58.523 -57.658  1.00  0.00     0.034 A 
HETATM   10  C   UNL     1     -42.473  57.711 -56.753  1.00  0.00     0.032 A 
ENDROOT
BRANCH   1  11
HETATM   11  N   UNL     1     -41.724  55.608 -55.891  1.00  0.00    -0.327 N 
HETATM   12  C   UNL     1     -41.772  55.784 -54.524  1.00  0.00     0.227 C 
HETATM   13  O   UNL     1     -42.465  56.581 -53.910  1.00  0.00    -0.273 OA
HETATM   14  H   UNL     1     -41.074  54.919 -56.236  1.00  0.00     0.169 HD
BRANCH  12  15
HETATM   15  C   UNL     1     -40.848  54.921 -53.723  1.00  0.00     0.087 A 
HETATM   16  C   UNL     1     -41.416  53.702 -53.011  1.00  0.00     0.032 A 
HETATM   17  C   UNL     1     -40.792  54.829 -52.222  1.00  0.00     0.025 A 
BRANCH  16  18
HETATM   18  C   UNL     1     -40.713  52.371 -53.127  1.00  0.00    -0.051 A 
HETATM   19  C   UNL     1     -40.225  51.705 -51.990  1.00  0.00     0.031 A 
HETATM   20  C   UNL     1     -39.601  50.461 -52.098  1.00  0.00     0.034 A 
HETATM   21  C   UNL     1     -39.451  49.849 -53.339  1.00  0.00     0.024 A 
HETATM   22 CL   UNL     1     -39.017  49.675 -50.682  1.00  0.00    -0.084 Cl
HETATM   23  C   UNL     1     -39.933  50.487 -54.478  1.00  0.00     0.002 A 
HETATM   24  C   UNL     1     -40.560  51.732 -54.369  1.00  0.00     0.007 A 
ENDBRANCH  16  18
ENDBRANCH  12  15
ENDBRANCH   1  11
BRANCH   8  25
HETATM   25  C   UNL     1     -44.933  54.979 -60.667  1.00  0.00     0.270 C 
HETATM   26  N   UNL     1     -45.223  53.982 -59.775  1.00  0.00    -0.365 N 
HETATM   27  H   UNL     1     -45.200  54.195 -58.785  1.00  0.00     0.159 HD
HETATM   28  H   UNL     1     -45.454  53.062 -60.113  1.00  0.00     0.159 HD
HETATM   29  O   UNL     1     -44.949  54.772 -61.875  1.00  0.00    -0.266 OA
ENDBRANCH   8  25
TORSDOF 4
ENDMDL
MODEL 2
REMARK VINA RESULT:      -9.0      3.663      5.355
REMARK  4 active torsions:
REMARK  status: ('A' for Active; 'I' for Inactive)
REMARK    1  A    between atoms: C_6  and  C_7 
REMARK    2  A    between atoms: C_8  and  C_9 
REMARK       I    between atoms: C_9  and  N_10 
REMARK    3  A    between atoms: N_10  and  C_11 
REMARK    4  A    between atoms: C_18  and  C_19 
REMARK       I    between atoms: C_19  and  N_20 
ROOT
HETATM    1  C   UNL     1     -43.464  57.372 -54.620  1.00  0.00     0.035 A 
HETATM    2  C   UNL     1     -43.891  57.791 -53.353  1.00  0.00     0.046 A 
HETATM    3  C   UNL     1     -44.792  58.874 -53.244  1.00  0.00     0.030 A 
HETATM    4  C   UNL     1     -45.237  59.496 -54.404  1.00  0.00     0.063 A 
HETATM    5  N   UNL     1     -46.078  60.489 -53.984  1.00  0.00    -0.277 N 
HETATM    6  H   UNL     1     -46.584  61.149 -54.563  1.00  0.00     0.189 HD
HETATM    7  N   UNL     1     -46.224  60.569 -52.653  1.00  0.00    -0.168 NA
HETATM    8  C   UNL     1     -45.436  59.576 -52.179  1.00  0.00     0.156 A 
HETATM    9  C   UNL     1     -44.839  59.102 -55.681  1.00  0.00     0.034 A 
HETATM   10  C   UNL     1     -43.945  58.027 -55.763  1.00  0.00     0.032 A 
ENDROOT
BRANCH   1  11
HETATM   11  N   UNL     1     -42.556  56.313 -54.836  1.00  0.00    -0.327 N 
HETATM   12  C   UNL     1     -42.767  54.965 -54.631  1.00  0.00     0.227 C 
HETATM   13  O   UNL     1     -43.794  54.435 -54.234  1.00  0.00    -0.273 OA
HETATM   14  H   UNL     1     -41.636  56.585 -55.144  1.00  0.00     0.169 HD
BRANCH  12  15
HETATM   15  C   UNL     1     -41.595  54.074 -54.898  1.00  0.00     0.087 A 
HETATM   16  C   UNL     1     -40.671  53.711 -53.744  1.00  0.00     0.032 A 
HETATM   17  C   UNL     1     -40.148  54.489 -54.930  1.00  0.00     0.025 A 
BRANCH  16  18
HETATM   18  C   UNL     1     -40.263  52.274 -53.535  1.00  0.00    -0.051 A 
HETATM   19  C   UNL     1     -40.019  51.766 -52.247  1.00  0.00     0.031 A 
HETATM   20  C   UNL     1     -39.669  50.428 -52.056  1.00  0.00     0.034 A 
HETATM   21  C   UNL     1     -39.558  49.563 -53.140  1.00  0.00     0.024 A 
HETATM   22 CL   UNL     1     -39.380  49.844 -50.463  1.00  0.00    -0.084 Cl
HETATM   23  C   UNL     1     -39.802  50.042 -54.424  1.00  0.00     0.002 A 
HETATM   24  C   UNL     1     -40.155  51.381 -54.616  1.00  0.00     0.007 A 
ENDBRANCH  16  18
ENDBRANCH  12  15
ENDBRANCH   1  11
BRANCH   8  25
HETATM   25  C   UNL     1     -45.316  59.325 -50.736  1.00  0.00     0.270 C 
HETATM   26  N   UNL     1     -44.187  59.854 -50.170  1.00  0.00    -0.365 N 
HETATM   27  H   UNL     1     -43.541  60.363 -50.761  1.00  0.00     0.159 HD
HETATM   28  H   UNL     1     -44.021  59.733 -49.184  1.00  0.00     0.159 HD
HETATM   29  O   UNL     1     -46.130  58.702 -50.064  1.00  0.00    -0.266 OA
ENDBRANCH   8  25
TORSDOF 4
ENDMDL
MODEL 3
REMARK VINA RESULT:      -8.9      4.720      6.368
REMARK  4 active torsions:
REMARK  status: ('A' for Active; 'I' for Inactive)
REMARK    1  A    between atoms: C_6  and  C_7 
REMARK    2  A    between atoms: C_8  and  C_9 
REMARK       I    between atoms: C_9  and  N_10 
REMARK    3  A    between atoms: N_10  and  C_11 
REMARK    4  A    between atoms: C_18  and  C_19 
REMARK       I    between atoms: C_19  and  N_20 
ROOT
HETATM    1  C   UNL     1     -41.934  57.664 -52.319  1.00  0.00     0.035 A 
HETATM    2  C   UNL     1     -43.215  58.134 -52.004  1.00  0.00     0.046 A 
HETATM    3  C   UNL     1     -43.358  59.340 -51.281  1.00  0.00     0.030 A 
HETATM    4  C   UNL     1     -42.215  60.034 -50.902  1.00  0.00     0.063 A 
HETATM    5  N   UNL     1     -42.665  61.135 -50.229  1.00  0.00    -0.277 N 
HETATM    6  H   UNL     1     -42.105  61.867 -49.806  1.00  0.00     0.189 HD
HETATM    7  N   UNL     1     -44.000  61.223 -50.135  1.00  0.00    -0.168 NA
HETATM    8  C   UNL     1     -44.445  60.121 -50.782  1.00  0.00     0.156 A 
HETATM    9  C   UNL     1     -40.924  59.599 -51.204  1.00  0.00     0.034 A 
HETATM   10  C   UNL     1     -40.809  58.402 -51.920  1.00  0.00     0.032 A 
ENDROOT
BRANCH   1  11
HETATM   11  N   UNL     1     -41.684  56.466 -53.022  1.00  0.00    -0.327 N 
HETATM   12  C   UNL     1     -42.318  55.250 -52.870  1.00  0.00     0.227 C 
HETATM   13  O   UNL     1     -43.233  54.991 -52.102  1.00  0.00    -0.273 OA
HETATM   14  H   UNL     1     -40.927  56.500 -53.686  1.00  0.00     0.169 HD
BRANCH  12  15
HETATM   15  C   UNL     1     -41.801  54.134 -53.721  1.00  0.00     0.087 A 
HETATM   16  C   UNL     1     -40.367  53.663 -53.521  1.00  0.00     0.032 A 
HETATM   17  C   UNL     1     -40.802  54.256 -54.841  1.00  0.00     0.025 A 
BRANCH  16  18
HETATM   18  C   UNL     1     -40.073  52.187 -53.408  1.00  0.00    -0.051 A 
HETATM   19  C   UNL     1     -39.816  51.589 -52.163  1.00  0.00     0.031 A 
HETATM   20  C   UNL     1     -39.572  50.218 -52.059  1.00  0.00     0.034 A 
HETATM   21  C   UNL     1     -39.583  49.410 -53.192  1.00  0.00     0.024 A 
HETATM   22 CL   UNL     1     -39.263  49.523 -50.516  1.00  0.00    -0.084 Cl
HETATM   23  C   UNL     1     -39.842  49.979 -54.436  1.00  0.00     0.002 A 
HETATM   24  C   UNL     1     -40.088  51.351 -54.539  1.00  0.00     0.007 A 
ENDBRANCH  16  18
ENDBRANCH  12  15
ENDBRANCH   1  11
BRANCH   8  25
HETATM   25  C   UNL     1     -45.882  59.841 -50.906  1.00  0.00     0.270 C 
HETATM   26  N   UNL     1     -46.569  60.769 -51.643  1.00  0.00    -0.365 N 
HETATM   27  H   UNL     1     -46.058  61.550 -52.037  1.00  0.00     0.159 HD
HETATM   28  H   UNL     1     -47.560  60.659 -51.783  1.00  0.00     0.159 HD
HETATM   29  O   UNL     1     -46.454  58.877 -50.410  1.00  0.00    -0.266 OA
ENDBRANCH   8  25
TORSDOF 4
ENDMDL
MODEL 4
REMARK VINA RESULT:      -8.8      1.534      2.140
REMARK  4 active torsions:
REMARK  status: ('A' for Active; 'I' for Inactive)
REMARK    1  A    between atoms: C_6  and  C_7 
REMARK    2  A    between atoms: C_8  and  C_9 
REMARK       I    between atoms: C_9  and  N_10 
REMARK    3  A    between atoms: N_10  and  C_11 
REMARK    4  A    between atoms: C_18  and  C_19 
REMARK       I    between atoms: C_19  and  N_20 
ROOT
HETATM    1  C   UNL     1     -42.857  56.424 -57.402  1.00  0.00     0.035 A 
HETATM    2  C   UNL     1     -43.873  56.147 -58.325  1.00  0.00     0.046 A 
HETATM    3  C   UNL     1     -44.475  57.208 -59.040  1.00  0.00     0.030 A 
HETATM    4  C   UNL     1     -44.037  58.506 -58.808  1.00  0.00     0.063 A 
HETATM    5  N   UNL     1     -44.794  59.297 -59.627  1.00  0.00    -0.277 N 
HETATM    6  H   UNL     1     -44.748  60.305 -59.720  1.00  0.00     0.189 HD
HETATM    7  N   UNL     1     -45.687  58.630 -60.375  1.00  0.00    -0.168 NA
HETATM    8  C   UNL     1     -45.502  57.336 -60.024  1.00  0.00     0.156 A 
HETATM    9  C   UNL     1     -43.023  58.819 -57.902  1.00  0.00     0.034 A 
HETATM   10  C   UNL     1     -42.443  57.751 -57.206  1.00  0.00     0.032 A 
ENDROOT
BRANCH   1  11
HETATM   11  N   UNL     1     -42.204  55.441 -56.628  1.00  0.00    -0.327 N 
HETATM   12  C   UNL     1     -42.606  54.915 -55.418  1.00  0.00     0.227 C 
HETATM   13  O   UNL     1     -43.620  55.196 -54.797  1.00  0.00    -0.273 OA
HETATM   14  H   UNL     1     -41.322  55.115 -56.992  1.00  0.00     0.169 HD
BRANCH  12  15
HETATM   15  C   UNL     1     -41.678  53.918 -54.800  1.00  0.00     0.087 A 
HETATM   16  C   UNL     1     -40.717  54.385 -53.715  1.00  0.00     0.032 A 
HETATM   17  C   UNL     1     -40.191  53.828 -55.018  1.00  0.00     0.025 A 
BRANCH  16  18
HETATM   18  C   UNL     1     -40.585  53.591 -52.439  1.00  0.00    -0.051 A 
HETATM   19  C   UNL     1     -40.068  52.284 -52.445  1.00  0.00     0.031 A 
HETATM   20  C   UNL     1     -39.920  51.563 -51.258  1.00  0.00     0.034 A 
HETATM   21  C   UNL     1     -40.280  52.127 -50.038  1.00  0.00     0.024 A 
HETATM   22 CL   UNL     1     -39.282  49.966 -51.307  1.00  0.00    -0.084 Cl
HETATM   23  C   UNL     1     -40.788  53.423 -50.007  1.00  0.00     0.002 A 
HETATM   24  C   UNL     1     -40.933  54.145 -51.195  1.00  0.00     0.007 A 
ENDBRANCH  16  18
ENDBRANCH  12  15
ENDBRANCH   1  11
BRANCH   8  25
HETATM   25  C   UNL     1     -46.303  56.263 -60.631  1.00  0.00     0.270 C 
HETATM   26  N   UNL     1     -45.588  55.427 -61.446  1.00  0.00    -0.365 N 
HETATM   27  H   UNL     1     -44.597  55.598 -61.568  1.00  0.00     0.159 HD
HETATM   28  H   UNL     1     -46.054  54.661 -61.905  1.00  0.00     0.159 HD
HETATM   29  O   UNL     1     -47.503  56.098 -60.449  1.00  0.00    -0.266 OA
ENDBRANCH   8  25
TORSDOF 4
ENDMDL
MODEL 5
REMARK VINA RESULT:      -8.7      2.261      3.230
REMARK  4 active torsions:
REMARK  status: ('A' for Active; 'I' for Inactive)
REMARK    1  A    between atoms: C_6  and  C_7 
REMARK    2  A    between atoms: C_8  and  C_9 
REMARK       I    between atoms: C_9  and  N_10 
REMARK    3  A    between atoms: N_10  and  C_11 
REMARK    4  A    between atoms: C_18  and  C_19 
REMARK       I    between atoms: C_19  and  N_20 
ROOT
HETATM    1  C   UNL     1     -43.218  56.600 -58.024  1.00  0.00     0.035 A 
HETATM    2  C   UNL     1     -44.227  57.521 -57.716  1.00  0.00     0.046 A 
HETATM    3  C   UNL     1     -45.121  57.941 -58.727  1.00  0.00     0.030 A 
HETATM    4  C   UNL     1     -44.975  57.423 -60.008  1.00  0.00     0.063 A 
HETATM    5  N   UNL     1     -45.962  58.008 -60.751  1.00  0.00    -0.277 N 
HETATM    6  H   UNL     1     -46.155  57.864 -61.736  1.00  0.00     0.189 HD
HETATM    7  N   UNL     1     -46.741  58.861 -60.068  1.00  0.00    -0.168 NA
HETATM    8  C   UNL     1     -46.235  58.830 -58.814  1.00  0.00     0.156 A 
HETATM    9  C   UNL     1     -43.986  56.499 -60.350  1.00  0.00     0.034 A 
HETATM   10  C   UNL     1     -43.113  56.100 -59.331  1.00  0.00     0.032 A 
ENDROOT
BRANCH   1  11
HETATM   11  N   UNL     1     -42.267  56.129 -57.092  1.00  0.00    -0.327 N 
HETATM   12  C   UNL     1     -42.381  55.049 -56.243  1.00  0.00     0.227 C 
HETATM   13  O   UNL     1     -43.331  54.284 -56.152  1.00  0.00    -0.273 OA
HETATM   14  H   UNL     1     -41.422  56.673 -57.021  1.00  0.00     0.169 HD
BRANCH  12  15
HETATM   15  C   UNL     1     -41.226  54.819 -55.321  1.00  0.00     0.087 A 
HETATM   16  C   UNL     1     -41.506  54.489 -53.862  1.00  0.00     0.032 A 
HETATM   17  C   UNL     1     -40.755  55.746 -54.233  1.00  0.00     0.025 A 
BRANCH  16  18
HETATM   18  C   UNL     1     -40.786  53.338 -53.203  1.00  0.00    -0.051 A 
HETATM   19  C   UNL     1     -40.432  52.189 -53.930  1.00  0.00     0.031 A 
HETATM   20  C   UNL     1     -39.740  51.138 -53.324  1.00  0.00     0.034 A 
HETATM   21  C   UNL     1     -39.382  51.209 -51.981  1.00  0.00     0.024 A 
HETATM   22 CL   UNL     1     -39.322  49.748 -54.248  1.00  0.00    -0.084 Cl
HETATM   23  C   UNL     1     -39.716  52.340 -51.242  1.00  0.00     0.002 A 
HETATM   24  C   UNL     1     -40.407  53.393 -51.850  1.00  0.00     0.007 A 
ENDBRANCH  16  18
ENDBRANCH  12  15
ENDBRANCH   1  11
BRANCH   8  25
HETATM   25  C   UNL     1     -46.820  59.644 -57.739  1.00  0.00     0.270 C 
HETATM   26  N   UNL     1     -48.166  59.461 -57.572  1.00  0.00    -0.365 N 
HETATM   27  H   UNL     1     -48.645  58.803 -58.175  1.00  0.00     0.159 HD
HETATM   28  H   UNL     1     -48.654  59.976 -56.857  1.00  0.00     0.159 HD
HETATM   29  O   UNL     1     -46.194  60.427 -57.034  1.00  0.00    -0.266 OA
ENDBRANCH   8  25
TORSDOF 4
ENDMDL
MODEL 6
REMARK VINA RESULT:      -8.6      5.366      7.274
REMARK  4 active torsions:
REMARK  status: ('A' for Active; 'I' for Inactive)
REMARK    1  A    between atoms: C_6  and  C_7 
REMARK    2  A    between atoms: C_8  and  C_9 
REMARK       I    between atoms: C_9  and  N_10 
REMARK    3  A    between atoms: N_10  and  C_11 
REMARK    4  A    between atoms: C_18  and  C_19 
REMARK       I    between atoms: C_19  and  N_20 
ROOT
HETATM    1  C   UNL     1     -44.811  58.089 -52.313  1.00  0.00     0.035 A 
HETATM    2  C   UNL     1     -44.975  58.557 -51.003  1.00  0.00     0.046 A 
HETATM    3  C   UNL     1     -45.409  59.884 -50.785  1.00  0.00     0.030 A 
HETATM    4  C   UNL     1     -45.666  60.695 -51.884  1.00  0.00     0.063 A 
HETATM    5  N   UNL     1     -46.057  61.897 -51.365  1.00  0.00    -0.277 N 
HETATM    6  H   UNL     1     -46.322  62.730 -51.879  1.00  0.00     0.189 HD
HETATM    7  N   UNL     1     -46.081  61.943 -50.024  1.00  0.00    -0.168 NA
HETATM    8  C   UNL     1     -45.684  60.706 -49.650  1.00  0.00     0.156 A 
HETATM    9  C   UNL     1     -45.520  60.261 -53.202  1.00  0.00     0.034 A 
HETATM   10  C   UNL     1     -45.088  58.943 -53.392  1.00  0.00     0.032 A 
ENDROOT
BRANCH   1  11
HETATM   11  N   UNL     1     -44.369  56.789 -52.638  1.00  0.00    -0.327 N 
HETATM   12  C   UNL     1     -43.151  56.214 -52.342  1.00  0.00     0.227 C 
HETATM   13  O   UNL     1     -42.228  56.725 -51.724  1.00  0.00    -0.273 OA
HETATM   14  H   UNL     1     -45.011  56.233 -53.181  1.00  0.00     0.169 HD
BRANCH  12  15
HETATM   15  C   UNL     1     -42.940  54.828 -52.864  1.00  0.00     0.087 A 
HETATM   16  C   UNL     1     -41.614  54.489 -53.532  1.00  0.00     0.032 A 
HETATM   17  C   UNL     1     -42.907  54.416 -54.312  1.00  0.00     0.025 A 
BRANCH  16  18
HETATM   18  C   UNL     1     -40.883  53.226 -53.148  1.00  0.00    -0.051 A 
HETATM   19  C   UNL     1     -40.677  52.193 -54.078  1.00  0.00     0.031 A 
HETATM   20  C   UNL     1     -39.975  51.038 -53.727  1.00  0.00     0.034 A 
HETATM   21  C   UNL     1     -39.458  50.887 -52.444  1.00  0.00     0.024 A 
HETATM   22 CL   UNL     1     -39.742  49.796 -54.895  1.00  0.00    -0.084 Cl
HETATM   23  C   UNL     1     -39.644  51.900 -51.508  1.00  0.00     0.002 A 
HETATM   24  C   UNL     1     -40.345  53.057 -51.860  1.00  0.00     0.007 A 
ENDBRANCH  16  18
ENDBRANCH  12  15
ENDBRANCH   1  11
BRANCH   8  25
HETATM   25  C   UNL     1     -45.575  60.340 -48.230  1.00  0.00     0.270 C 
HETATM   26  N   UNL     1     -44.592  61.012 -47.555  1.00  0.00    -0.365 N 
HETATM   27  H   UNL     1     -44.031  61.688 -48.060  1.00  0.00     0.159 HD
HETATM   28  H   UNL     1     -44.444  60.828 -46.576  1.00  0.00     0.159 HD
HETATM   29  O   UNL     1     -46.281  59.514 -47.664  1.00  0.00    -0.266 OA
ENDBRANCH   8  25
TORSDOF 4
ENDMDL
MODEL 7
REMARK VINA RESULT:      -8.5      2.248      3.839
REMARK  4 active torsions:
REMARK  status: ('A' for Active; 'I' for Inactive)
REMARK    1  A    between atoms: C_6  and  C_7 
REMARK    2  A    between atoms: C_8  and  C_9 
REMARK       I    between atoms: C_9  and  N_10 
REMARK    3  A    between atoms: N_10  and  C_11 
REMARK    4  A    between atoms: C_18  and  C_19 
REMARK       I    between atoms: C_19  and  N_20 
ROOT
HETATM    1  C   UNL     1     -42.613  56.530 -57.489  1.00  0.00     0.035 A 
HETATM    2  C   UNL     1     -42.202  57.864 -57.376  1.00  0.00     0.046 A 
HETATM    3  C   UNL     1     -42.743  58.837 -58.247  1.00  0.00     0.030 A 
HETATM    4  C   UNL     1     -43.677  58.441 -59.196  1.00  0.00     0.063 A 
HETATM    5  N   UNL     1     -44.007  59.580 -59.878  1.00  0.00    -0.277 N 
HETATM    6  H   UNL     1     -44.663  59.666 -60.646  1.00  0.00     0.189 HD
HETATM    7  N   UNL     1     -43.372  60.684 -59.456  1.00  0.00    -0.168 NA
HETATM    8  C   UNL     1     -42.587  60.243 -58.447  1.00  0.00     0.156 A 
HETATM    9  C   UNL     1     -44.115  57.124 -59.333  1.00  0.00     0.034 A 
HETATM   10  C   UNL     1     -43.564  56.179 -58.459  1.00  0.00     0.032 A 
ENDROOT
BRANCH   1  11
HETATM   11  N   UNL     1     -42.123  55.482 -56.680  1.00  0.00    -0.327 N 
HETATM   12  C   UNL     1     -42.515  55.150 -55.400  1.00  0.00     0.227 C 
HETATM   13  O   UNL     1     -43.378  55.700 -54.731  1.00  0.00    -0.273 OA
HETATM   14  H   UNL     1     -41.375  54.937 -57.079  1.00  0.00     0.169 HD
BRANCH  12  15
HETATM   15  C   UNL     1     -41.776  54.015 -54.765  1.00  0.00     0.087 A 
HETATM   16  C   UNL     1     -40.635  54.326 -53.808  1.00  0.00     0.032 A 
HETATM   17  C   UNL     1     -40.375  53.570 -55.090  1.00  0.00     0.025 A 
BRANCH  16  18
HETATM   18  C   UNL     1     -40.559  53.618 -52.477  1.00  0.00    -0.051 A 
HETATM   19  C   UNL     1     -40.076  52.302 -52.379  1.00  0.00     0.031 A 
HETATM   20  C   UNL     1     -39.981  51.661 -51.143  1.00  0.00     0.034 A 
HETATM   21  C   UNL     1     -40.360  52.316 -49.975  1.00  0.00     0.024 A 
HETATM   22 CL   UNL     1     -39.383  50.049 -51.064  1.00  0.00    -0.084 Cl
HETATM   23  C   UNL     1     -40.834  53.622 -50.046  1.00  0.00     0.002 A 
HETATM   24  C   UNL     1     -40.927  54.265 -51.284  1.00  0.00     0.007 A 
ENDBRANCH  16  18
ENDBRANCH  12  15
ENDBRANCH   1  11
BRANCH   8  25
HETATM   25  C   UNL     1     -41.714  61.163 -57.705  1.00  0.00     0.270 C 
HETATM   26  N   UNL     1     -42.286  61.685 -56.576  1.00  0.00    -0.365 N 
HETATM   27  H   UNL     1     -43.231  61.410 -56.339  1.00  0.00     0.159 HD
HETATM   28  H   UNL     1     -41.761  62.326 -56.003  1.00  0.00     0.159 HD
HETATM   29  O   UNL     1     -40.572  61.464 -58.034  1.00  0.00    -0.266 OA
ENDBRANCH   8  25
TORSDOF 4
ENDMDL
MODEL 8
REMARK VINA RESULT:      -8.2      4.216      9.202
REMARK  4 active torsions:
REMARK  status: ('A' for Active; 'I' for Inactive)
REMARK    1  A    between atoms: C_6  and  C_7 
REMARK    2  A    between atoms: C_8  and  C_9 
REMARK       I    between atoms: C_9  and  N_10 
REMARK    3  A    between atoms: N_10  and  C_11 
REMARK    4  A    between atoms: C_18  and  C_19 
REMARK       I    between atoms: C_19  and  N_20 
ROOT
HETATM    1  C   UNL     1     -40.886  54.186 -54.364  1.00  0.00     0.035 A 
HETATM    2  C   UNL     1     -41.202  54.548 -53.049  1.00  0.00     0.046 A 
HETATM    3  C   UNL     1     -40.835  53.695 -51.983  1.00  0.00     0.030 A 
HETATM    4  C   UNL     1     -40.164  52.513 -52.271  1.00  0.00     0.063 A 
HETATM    5  N   UNL     1     -39.952  51.912 -51.061  1.00  0.00    -0.277 N 
HETATM    6  H   UNL     1     -39.489  51.027 -50.889  1.00  0.00     0.189 HD
HETATM    7  N   UNL     1     -40.424  52.597 -50.009  1.00  0.00    -0.168 NA
HETATM    8  C   UNL     1     -40.973  53.703 -50.561  1.00  0.00     0.156 A 
HETATM    9  C   UNL     1     -39.826  52.124 -53.567  1.00  0.00     0.034 A 
HETATM   10  C   UNL     1     -40.201  52.986 -54.605  1.00  0.00     0.032 A 
ENDROOT
BRANCH   1  11
HETATM   11  N   UNL     1     -41.220  54.958 -55.497  1.00  0.00    -0.327 N 
HETATM   12  C   UNL     1     -42.405  54.952 -56.203  1.00  0.00     0.227 C 
HETATM   13  O   UNL     1     -43.397  54.280 -55.964  1.00  0.00    -0.273 OA
HETATM   14  H   UNL     1     -40.489  55.558 -55.847  1.00  0.00     0.169 HD
BRANCH  12  15
HETATM   15  C   UNL     1     -42.454  55.844 -57.403  1.00  0.00     0.087 A 
HETATM   16  C   UNL     1     -43.276  57.123 -57.333  1.00  0.00     0.032 A 
HETATM   17  C   UNL     1     -43.631  56.038 -58.322  1.00  0.00     0.025 A 
BRANCH  16  18
HETATM   18  C   UNL     1     -42.679  58.425 -57.810  1.00  0.00    -0.051 A 
HETATM   19  C   UNL     1     -42.545  58.704 -59.181  1.00  0.00     0.031 A 
HETATM   20  C   UNL     1     -42.018  59.921 -59.619  1.00  0.00     0.034 A 
HETATM   21  C   UNL     1     -41.618  60.889 -58.703  1.00  0.00     0.024 A 
HETATM   22 CL   UNL     1     -41.871  60.227 -61.306  1.00  0.00    -0.084 Cl
HETATM   23  C   UNL     1     -41.748  60.638 -57.340  1.00  0.00     0.002 A 
HETATM   24  C   UNL     1     -42.277  59.420 -56.902  1.00  0.00     0.007 A 
ENDBRANCH  16  18
ENDBRANCH  12  15
ENDBRANCH   1  11
BRANCH   8  25
HETATM   25  C   UNL     1     -41.611  54.732 -49.727  1.00  0.00     0.270 C 
HETATM   26  N   UNL     1     -42.911  54.997 -50.066  1.00  0.00    -0.365 N 
HETATM   27  H   UNL     1     -43.325  54.486 -50.835  1.00  0.00     0.159 HD
HETATM   28  H   UNL     1     -43.429  55.688 -49.548  1.00  0.00     0.159 HD
HETATM   29  O   UNL     1     -41.064  55.323 -48.803  1.00  0.00    -0.266 OA
ENDBRANCH   8  25
TORSDOF 4
ENDMDL
MODEL 9
REMARK VINA RESULT:      -8.2      4.446      8.976
REMARK  4 active torsions:
REMARK  status: ('A' for Active; 'I' for Inactive)
REMARK    1  A    between atoms: C_6  and  C_7 
REMARK    2  A    between atoms: C_8  and  C_9 
REMARK       I    between atoms: C_9  and  N_10 
REMARK    3  A    between atoms: N_10  and  C_11 
REMARK    4  A    between atoms: C_18  and  C_19 
REMARK       I    between atoms: C_19  and  N_20 
ROOT
HETATM    1  C   UNL     1     -41.022  54.531 -54.479  1.00  0.00     0.035 A 
HETATM    2  C   UNL     1     -40.615  53.193 -54.409  1.00  0.00     0.046 A 
HETATM    3  C   UNL     1     -40.300  52.624 -53.154  1.00  0.00     0.030 A 
HETATM    4  C   UNL     1     -40.406  53.413 -52.015  1.00  0.00     0.063 A 
HETATM    5  N   UNL     1     -40.039  52.603 -50.977  1.00  0.00    -0.277 N 
HETATM    6  H   UNL     1     -39.996  52.847 -49.994  1.00  0.00     0.189 HD
HETATM    7  N   UNL     1     -39.705  51.354 -51.337  1.00  0.00    -0.168 NA
HETATM    8  C   UNL     1     -39.861  51.350 -52.680  1.00  0.00     0.156 A 
HETATM    9  C   UNL     1     -40.814  54.747 -52.046  1.00  0.00     0.034 A 
HETATM   10  C   UNL     1     -41.120  55.287 -53.301  1.00  0.00     0.032 A 
ENDROOT
BRANCH   1  11
HETATM   11  N   UNL     1     -41.344  55.197 -55.681  1.00  0.00    -0.327 N 
HETATM   12  C   UNL     1     -42.502  55.088 -56.422  1.00  0.00     0.227 C 
HETATM   13  O   UNL     1     -43.478  54.399 -56.162  1.00  0.00    -0.273 OA
HETATM   14  H   UNL     1     -40.623  55.794 -56.055  1.00  0.00     0.169 HD
BRANCH  12  15
HETATM   15  C   UNL     1     -42.542  55.878 -57.691  1.00  0.00     0.087 A 
HETATM   16  C   UNL     1     -43.395  57.138 -57.745  1.00  0.00     0.032 A 
HETATM   17  C   UNL     1     -43.698  55.967 -58.651  1.00  0.00     0.025 A 
BRANCH  16  18
HETATM   18  C   UNL     1     -42.816  58.411 -58.313  1.00  0.00    -0.051 A 
HETATM   19  C   UNL     1     -43.061  58.792 -59.643  1.00  0.00     0.031 A 
HETATM   20  C   UNL     1     -42.548  59.984 -60.156  1.00  0.00     0.034 A 
HETATM   21  C   UNL     1     -41.783  60.828 -59.356  1.00  0.00     0.024 A 
HETATM   22 CL   UNL     1     -42.870  60.417 -61.790  1.00  0.00    -0.084 Cl
HETATM   23  C   UNL     1     -41.534  60.475 -58.033  1.00  0.00     0.002 A 
HETATM   24  C   UNL     1     -42.050  59.282 -57.519  1.00  0.00     0.007 A 
ENDBRANCH  16  18
ENDBRANCH  12  15
ENDBRANCH   1  11
BRANCH   8  25
HETATM   25  C   UNL     1     -39.591  50.142 -53.473  1.00  0.00     0.270 C 
HETATM   26  N   UNL     1     -39.321  49.031 -52.720  1.00  0.00    -0.365 N 
HETATM   27  H   UNL     1     -39.329  49.115 -51.711  1.00  0.00     0.159 HD
HETATM   28  H   UNL     1     -39.125  48.155 -53.178  1.00  0.00     0.159 HD
HETATM   29  O   UNL     1     -39.596  50.092 -54.697  1.00  0.00    -0.266 OA
ENDBRANCH   8  25
TORSDOF 4
ENDMDL
MODEL 10
REMARK VINA RESULT:      -8.1      2.011      2.446
REMARK  4 active torsions:
REMARK  status: ('A' for Active; 'I' for Inactive)
REMARK    1  A    between atoms: C_6  and  C_7 
REMARK    2  A    between atoms: C_8  and  C_9 
REMARK       I    between atoms: C_9  and  N_10 
REMARK    3  A    between atoms: N_10  and  C_11 
REMARK    4  A    between atoms: C_18  and  C_19 
REMARK       I    between atoms: C_19  and  N_20 
ROOT
HETATM    1  C   UNL     1     -42.887  57.538 -55.437  1.00  0.00     0.035 A 
HETATM    2  C   UNL     1     -42.710  57.200 -56.785  1.00  0.00     0.046 A 
HETATM    3  C   UNL     1     -43.129  58.100 -57.791  1.00  0.00     0.030 A 
HETATM    4  C   UNL     1     -43.707  59.305 -57.414  1.00  0.00     0.063 A 
HETATM    5  N   UNL     1     -44.006  59.947 -58.584  1.00  0.00    -0.277 N 
HETATM    6  H   UNL     1     -44.441  60.856 -58.690  1.00  0.00     0.189 HD
HETATM    7  N   UNL     1     -43.672  59.268 -59.692  1.00  0.00    -0.168 NA
HETATM    8  C   UNL     1     -43.127  58.123 -59.219  1.00  0.00     0.156 A 
HETATM    9  C   UNL     1     -43.893  59.679 -56.082  1.00  0.00     0.034 A 
HETATM   10  C   UNL     1     -43.470  58.770 -55.105  1.00  0.00     0.032 A 
ENDROOT
BRANCH   1  11
HETATM   11  N   UNL     1     -42.518  56.705 -54.359  1.00  0.00    -0.327 N 
HETATM   12  C   UNL     1     -41.398  56.806 -53.560  1.00  0.00     0.227 C 
HETATM   13  O   UNL     1     -40.520  57.653 -53.631  1.00  0.00    -0.273 OA
HETATM   14  H   UNL     1     -43.132  55.927 -54.180  1.00  0.00     0.169 HD
BRANCH  12  15
HETATM   15  C   UNL     1     -41.240  55.742 -52.521  1.00  0.00     0.087 A 
HETATM   16  C   UNL     1     -41.845  54.369 -52.779  1.00  0.00     0.032 A 
HETATM   17  C   UNL     1     -42.321  55.210 -51.618  1.00  0.00     0.025 A 
BRANCH  16  18
HETATM   18  C   UNL     1     -41.019  53.129 -52.534  1.00  0.00    -0.051 A 
HETATM   19  C   UNL     1     -40.665  52.271 -53.589  1.00  0.00     0.031 A 
HETATM   20  C   UNL     1     -39.878  51.140 -53.363  1.00  0.00     0.034 A 
HETATM   21  C   UNL     1     -39.421  50.841 -52.083  1.00  0.00     0.024 A 
HETATM   22 CL   UNL     1     -39.464  50.114 -54.681  1.00  0.00    -0.084 Cl
HETATM   23  C   UNL     1     -39.753  51.681 -51.024  1.00  0.00     0.002 A 
HETATM   24  C   UNL     1     -40.540  52.814 -51.251  1.00  0.00     0.007 A 
ENDBRANCH  16  18
ENDBRANCH  12  15
ENDBRANCH   1  11
BRANCH   8  25
HETATM   25  C   UNL     1     -42.624  57.088 -60.133  1.00  0.00     0.270 C 
HETATM   26  N   UNL     1     -41.262  57.082 -60.273  1.00  0.00    -0.365 N 
HETATM   27  H   UNL     1     -40.719  57.763 -59.757  1.00  0.00     0.159 HD
HETATM   28  H   UNL     1     -40.827  56.406 -60.880  1.00  0.00     0.159 HD
HETATM   29  O   UNL     1     -43.326  56.283 -60.735  1.00  0.00    -0.266 OA
ENDBRANCH   8  25
TORSDOF 4
ENDMDL
