MODEL 1
REMARK VINA RESULT:      -7.9      0.000      0.000
REMARK  7 active torsions:
REMARK  status: ('A' for Active; 'I' for Inactive)
REMARK    1  A    between atoms: C_2  and  O_3 
REMARK    2  A    between atoms: O_3  and  C_4 
REMARK    3  A    between atoms: C_7  and  C_8 
REMARK       I    between atoms: C_8  and  N_9 
REMARK    4  A    between atoms: N_9  and  N_10 
REMARK       I    between atoms: N_10  and  C_11 
REMARK    5  A    between atoms: C_11  and  C_12 
REMARK    6  A    between atoms: C_14  and  C_15 
REMARK    7  A    between atoms: C_22  and  C_23 
ROOT
HETATM    1  N   UNL     1     -42.114  55.935 -57.053  1.00  0.00    -0.262 N 
HETATM    2  C   UNL     1     -42.618  57.207 -56.870  1.00  0.00     0.291 C 
HETATM    3  O   UNL     1     -42.454  57.823 -55.815  1.00  0.00    -0.264 OA
HETATM    4  H   UNL     1     -42.314  55.392 -57.893  1.00  0.00     0.190 HD
ENDROOT
BRANCH   2   5
HETATM    5  C   UNL     1     -43.358  57.720 -58.011  1.00  0.00     0.159 A 
HETATM    6  N   UNL     1     -44.569  57.180 -58.435  1.00  0.00    -0.216 NA
HETATM    7  C   UNL     1     -44.921  57.937 -59.458  1.00  0.00     0.180 A 
HETATM    8  O   UNL     1     -44.027  58.930 -59.748  1.00  0.00    -0.293 OA
HETATM    9  C   UNL     1     -43.030  58.791 -58.823  1.00  0.00     0.094 A 
BRANCH   7  10
HETATM   10  C   UNL     1     -46.114  57.873 -60.299  1.00  0.00     0.017 A 
HETATM   11  C   UNL     1     -46.709  59.057 -60.759  1.00  0.00     0.016 A 
HETATM   12  C   UNL     1     -47.845  59.017 -61.572  1.00  0.00     0.001 A 
HETATM   13  C   UNL     1     -48.403  57.792 -61.934  1.00  0.00     0.000 A 
HETATM   14  C   UNL     1     -47.827  56.607 -61.484  1.00  0.00     0.001 A 
HETATM   15  C   UNL     1     -46.690  56.647 -60.671  1.00  0.00     0.016 A 
ENDBRANCH   7  10
BRANCH   9  16
HETATM   16  C   UNL     1     -41.809  59.692 -58.753  1.00  0.00     0.046 A 
HETATM   17  C   UNL     1     -41.932  61.091 -59.320  1.00  0.00     0.012 A 
HETATM   18  C   UNL     1     -41.878  60.902 -57.844  1.00  0.00     0.012 A 
ENDBRANCH   9  16
ENDBRANCH   2   5
BRANCH   1  19
HETATM   19  N   UNL     1     -41.543  55.289 -55.954  1.00  0.00    -0.263 N 
HETATM   20  C   UNL     1     -42.251  54.311 -55.291  1.00  0.00     0.270 C 
HETATM   21  O   UNL     1     -43.369  53.936 -55.626  1.00  0.00    -0.266 OA
HETATM   22  H   UNL     1     -40.562  55.497 -55.773  1.00  0.00     0.190 HD
BRANCH  20  23
HETATM   23  C   UNL     1     -41.558  53.708 -54.119  1.00  0.00     0.033 A 
HETATM   24  C   UNL     1     -41.859  54.105 -52.809  1.00  0.00     0.020 A 
HETATM   25  C   UNL     1     -41.197  53.518 -51.724  1.00  0.00     0.038 A 
HETATM   26  C   UNL     1     -40.238  52.527 -51.938  1.00  0.00     0.068 A 
HETATM   27  C   UNL     1     -39.946  52.129 -53.246  1.00  0.00     0.038 A 
HETATM   28  C   UNL     1     -40.606  52.708 -54.335  1.00  0.00     0.020 A 
BRANCH  26  29
HETATM   29  O   UNL     1     -39.529  51.876 -50.966  1.00  0.00    -0.352 OA
BRANCH  29  30
HETATM   30  C   UNL     1     -40.191  50.809 -50.285  1.00  0.00     0.171 C 
HETATM   31  C   UNL     1     -39.728  49.499 -50.894  1.00  0.00     0.034 C 
ENDBRANCH  29  30
ENDBRANCH  26  29
ENDBRANCH  20  23
ENDBRANCH   1  19
TORSDOF 7
ENDMDL
MODEL 2
REMARK VINA RESULT:      -7.9      2.446     10.055
REMARK  7 active torsions:
REMARK  status: ('A' for Active; 'I' for Inactive)
REMARK    1  A    between atoms: C_2  and  O_3 
REMARK    2  A    between atoms: O_3  and  C_4 
REMARK    3  A    between atoms: C_7  and  C_8 
REMARK       I    between atoms: C_8  and  N_9 
REMARK    4  A    between atoms: N_9  and  N_10 
REMARK       I    between atoms: N_10  and  C_11 
REMARK    5  A    between atoms: C_11  and  C_12 
REMARK    6  A    between atoms: C_14  and  C_15 
REMARK    7  A    between atoms: C_22  and  C_23 
ROOT
HETATM    1  N   UNL     1     -42.046  56.063 -56.243  1.00  0.00    -0.262 N 
HETATM    2  C   UNL     1     -41.740  56.471 -54.960  1.00  0.00     0.291 C 
HETATM    3  O   UNL     1     -41.721  57.663 -54.648  1.00  0.00    -0.264 OA
HETATM    4  H   UNL     1     -41.987  55.085 -56.525  1.00  0.00     0.190 HD
ENDROOT
BRANCH   2   5
HETATM    5  C   UNL     1     -41.432  55.381 -54.049  1.00  0.00     0.159 A 
HETATM    6  N   UNL     1     -40.982  54.136 -54.481  1.00  0.00    -0.216 NA
HETATM    7  C   UNL     1     -40.791  53.456 -53.366  1.00  0.00     0.180 A 
HETATM    8  O   UNL     1     -41.090  54.156 -52.230  1.00  0.00    -0.293 OA
HETATM    9  C   UNL     1     -41.499  55.385 -52.668  1.00  0.00     0.094 A 
BRANCH   7  10
HETATM   10  C   UNL     1     -40.300  52.093 -53.177  1.00  0.00     0.017 A 
HETATM   11  C   UNL     1     -39.874  51.673 -51.909  1.00  0.00     0.016 A 
HETATM   12  C   UNL     1     -39.410  50.370 -51.705  1.00  0.00     0.001 A 
HETATM   13  C   UNL     1     -39.364  49.470 -52.769  1.00  0.00     0.000 A 
HETATM   14  C   UNL     1     -39.781  49.871 -54.035  1.00  0.00     0.001 A 
HETATM   15  C   UNL     1     -40.246  51.174 -54.239  1.00  0.00     0.016 A 
ENDBRANCH   7  10
BRANCH   9  16
HETATM   16  C   UNL     1     -41.930  56.511 -51.746  1.00  0.00     0.046 A 
HETATM   17  C   UNL     1     -41.503  56.438 -50.294  1.00  0.00     0.012 A 
HETATM   18  C   UNL     1     -40.853  57.426 -51.199  1.00  0.00     0.012 A 
ENDBRANCH   9  16
ENDBRANCH   2   5
BRANCH   1  19
HETATM   19  N   UNL     1     -42.182  57.041 -57.230  1.00  0.00    -0.263 N 
HETATM   20  C   UNL     1     -42.947  56.785 -58.347  1.00  0.00     0.270 C 
HETATM   21  O   UNL     1     -43.560  55.738 -58.525  1.00  0.00    -0.266 OA
HETATM   22  H   UNL     1     -41.798  57.958 -57.008  1.00  0.00     0.190 HD
BRANCH  20  23
HETATM   23  C   UNL     1     -43.002  57.887 -59.346  1.00  0.00     0.033 A 
HETATM   24  C   UNL     1     -44.140  58.693 -59.483  1.00  0.00     0.020 A 
HETATM   25  C   UNL     1     -44.165  59.728 -60.426  1.00  0.00     0.038 A 
HETATM   26  C   UNL     1     -43.051  59.970 -61.231  1.00  0.00     0.068 A 
HETATM   27  C   UNL     1     -41.915  59.169 -61.088  1.00  0.00     0.038 A 
HETATM   28  C   UNL     1     -41.882  58.136 -60.144  1.00  0.00     0.020 A 
BRANCH  26  29
HETATM   29  O   UNL     1     -42.949  60.949 -62.181  1.00  0.00    -0.352 OA
BRANCH  29  30
HETATM   30  C   UNL     1     -41.828  61.828 -62.089  1.00  0.00     0.171 C 
HETATM   31  C   UNL     1     -42.131  62.874 -61.031  1.00  0.00     0.034 C 
ENDBRANCH  29  30
ENDBRANCH  26  29
ENDBRANCH  20  23
ENDBRANCH   1  19
TORSDOF 7
ENDMDL
MODEL 3
REMARK VINA RESULT:      -7.8      5.595      9.744
REMARK  7 active torsions:
REMARK  status: ('A' for Active; 'I' for Inactive)
REMARK    1  A    between atoms: C_2  and  O_3 
REMARK    2  A    between atoms: O_3  and  C_4 
REMARK    3  A    between atoms: C_7  and  C_8 
REMARK       I    between atoms: C_8  and  N_9 
REMARK    4  A    between atoms: N_9  and  N_10 
REMARK       I    between atoms: N_10  and  C_11 
REMARK    5  A    between atoms: C_11  and  C_12 
REMARK    6  A    between atoms: C_14  and  C_15 
REMARK    7  A    between atoms: C_22  and  C_23 
ROOT
HETATM    1  N   UNL     1     -42.415  56.879 -51.472  1.00  0.00    -0.262 N 
HETATM    2  C   UNL     1     -41.385  56.882 -52.393  1.00  0.00     0.291 C 
HETATM    3  O   UNL     1     -40.743  57.903 -52.641  1.00  0.00    -0.264 OA
HETATM    4  H   UNL     1     -42.999  56.057 -51.321  1.00  0.00     0.190 HD
ENDROOT
BRANCH   2   5
HETATM    5  C   UNL     1     -41.162  55.597 -53.034  1.00  0.00     0.159 A 
HETATM    6  N   UNL     1     -40.679  54.483 -52.353  1.00  0.00    -0.216 NA
HETATM    7  C   UNL     1     -40.652  53.531 -53.268  1.00  0.00     0.180 A 
HETATM    8  O   UNL     1     -41.071  53.936 -54.505  1.00  0.00    -0.293 OA
HETATM    9  C   UNL     1     -41.397  55.256 -54.354  1.00  0.00     0.094 A 
BRANCH   7  10
HETATM   10  C   UNL     1     -40.259  52.129 -53.144  1.00  0.00     0.017 A 
HETATM   11  C   UNL     1     -40.286  51.293 -54.270  1.00  0.00     0.016 A 
HETATM   12  C   UNL     1     -39.905  49.952 -54.174  1.00  0.00     0.001 A 
HETATM   13  C   UNL     1     -39.492  49.428 -52.950  1.00  0.00     0.000 A 
HETATM   14  C   UNL     1     -39.461  50.243 -51.822  1.00  0.00     0.001 A 
HETATM   15  C   UNL     1     -39.842  51.585 -51.917  1.00  0.00     0.016 A 
ENDBRANCH   7  10
BRANCH   9  16
HETATM   16  C   UNL     1     -41.924  56.130 -55.478  1.00  0.00     0.046 A 
HETATM   17  C   UNL     1     -42.815  55.483 -56.517  1.00  0.00     0.012 A 
HETATM   18  C   UNL     1     -43.413  56.408 -55.515  1.00  0.00     0.012 A 
ENDBRANCH   9  16
ENDBRANCH   2   5
BRANCH   1  19
HETATM   19  N   UNL     1     -42.821  58.103 -50.935  1.00  0.00    -0.263 N 
HETATM   20  C   UNL     1     -43.958  58.716 -51.414  1.00  0.00     0.270 C 
HETATM   21  O   UNL     1     -44.677  58.233 -52.282  1.00  0.00    -0.266 OA
HETATM   22  H   UNL     1     -42.309  58.424 -50.116  1.00  0.00     0.190 HD
BRANCH  20  23
HETATM   23  C   UNL     1     -44.283  60.028 -50.789  1.00  0.00     0.033 A 
HETATM   24  C   UNL     1     -43.296  60.999 -50.575  1.00  0.00     0.020 A 
HETATM   25  C   UNL     1     -43.628  62.228 -49.991  1.00  0.00     0.038 A 
HETATM   26  C   UNL     1     -44.948  62.498 -49.626  1.00  0.00     0.068 A 
HETATM   27  C   UNL     1     -45.931  61.529 -49.847  1.00  0.00     0.038 A 
HETATM   28  C   UNL     1     -45.607  60.301 -50.434  1.00  0.00     0.020 A 
BRANCH  26  29
HETATM   29  O   UNL     1     -45.399  63.656 -49.055  1.00  0.00    -0.352 OA
BRANCH  29  30
HETATM   30  C   UNL     1     -46.189  63.530 -47.872  1.00  0.00     0.171 C 
HETATM   31  C   UNL     1     -45.250  63.418 -46.685  1.00  0.00     0.034 C 
ENDBRANCH  29  30
ENDBRANCH  26  29
ENDBRANCH  20  23
ENDBRANCH   1  19
TORSDOF 7
ENDMDL
MODEL 4
REMARK VINA RESULT:      -7.8      7.013     10.238
REMARK  7 active torsions:
REMARK  status: ('A' for Active; 'I' for Inactive)
REMARK    1  A    between atoms: C_2  and  O_3 
REMARK    2  A    between atoms: O_3  and  C_4 
REMARK    3  A    between atoms: C_7  and  C_8 
REMARK       I    between atoms: C_8  and  N_9 
REMARK    4  A    between atoms: N_9  and  N_10 
REMARK       I    between atoms: N_10  and  C_11 
REMARK    5  A    between atoms: C_11  and  C_12 
REMARK    6  A    between atoms: C_14  and  C_15 
REMARK    7  A    between atoms: C_22  and  C_23 
ROOT
HETATM    1  N   UNL     1     -43.498  58.783 -51.124  1.00  0.00    -0.262 N 
HETATM    2  C   UNL     1     -44.052  57.530 -51.295  1.00  0.00     0.291 C 
HETATM    3  O   UNL     1     -45.107  57.208 -50.745  1.00  0.00    -0.264 OA
HETATM    4  H   UNL     1     -42.587  59.026 -51.513  1.00  0.00     0.190 HD
ENDROOT
BRANCH   2   5
HETATM    5  C   UNL     1     -43.272  56.649 -52.149  1.00  0.00     0.159 A 
HETATM    6  N   UNL     1     -42.588  55.536 -51.667  1.00  0.00    -0.216 NA
HETATM    7  C   UNL     1     -42.045  54.999 -52.744  1.00  0.00     0.180 A 
HETATM    8  O   UNL     1     -42.311  55.680 -53.900  1.00  0.00    -0.293 OA
HETATM    9  C   UNL     1     -43.095  56.733 -53.518  1.00  0.00     0.094 A 
BRANCH   7  10
HETATM   10  C   UNL     1     -41.228  53.794 -52.876  1.00  0.00     0.017 A 
HETATM   11  C   UNL     1     -41.135  53.145 -54.115  1.00  0.00     0.016 A 
HETATM   12  C   UNL     1     -40.351  51.997 -54.264  1.00  0.00     0.001 A 
HETATM   13  C   UNL     1     -39.652  51.482 -53.174  1.00  0.00     0.000 A 
HETATM   14  C   UNL     1     -39.735  52.113 -51.935  1.00  0.00     0.001 A 
HETATM   15  C   UNL     1     -40.519  53.262 -51.786  1.00  0.00     0.016 A 
ENDBRANCH   7  10
BRANCH   9  16
HETATM   16  C   UNL     1     -43.645  57.771 -54.480  1.00  0.00     0.046 A 
HETATM   17  C   UNL     1     -43.966  57.324 -55.892  1.00  0.00     0.012 A 
HETATM   18  C   UNL     1     -45.078  57.611 -54.945  1.00  0.00     0.012 A 
ENDBRANCH   9  16
ENDBRANCH   2   5
BRANCH   1  19
HETATM   19  N   UNL     1     -44.079  59.636 -50.184  1.00  0.00    -0.263 N 
HETATM   20  C   UNL     1     -43.628  60.933 -50.066  1.00  0.00     0.270 C 
HETATM   21  O   UNL     1     -42.747  61.413 -50.771  1.00  0.00    -0.266 OA
HETATM   22  H   UNL     1     -44.906  59.281 -49.707  1.00  0.00     0.190 HD
BRANCH  20  23
HETATM   23  C   UNL     1     -44.300  61.746 -49.015  1.00  0.00     0.033 A 
HETATM   24  C   UNL     1     -44.167  63.141 -48.974  1.00  0.00     0.020 A 
HETATM   25  C   UNL     1     -44.813  63.884 -47.979  1.00  0.00     0.038 A 
HETATM   26  C   UNL     1     -45.604  63.241 -47.025  1.00  0.00     0.068 A 
HETATM   27  C   UNL     1     -45.741  61.851 -47.073  1.00  0.00     0.038 A 
HETATM   28  C   UNL     1     -45.100  61.103 -48.067  1.00  0.00     0.020 A 
BRANCH  26  29
HETATM   29  O   UNL     1     -46.288  63.852 -46.011  1.00  0.00    -0.352 OA
BRANCH  29  30
HETATM   30  C   UNL     1     -45.550  64.745 -45.176  1.00  0.00     0.171 C 
HETATM   31  C   UNL     1     -44.721  63.915 -44.212  1.00  0.00     0.034 C 
ENDBRANCH  29  30
ENDBRANCH  26  29
ENDBRANCH  20  23
ENDBRANCH   1  19
TORSDOF 7
ENDMDL
MODEL 5
REMARK VINA RESULT:      -7.5      7.239      8.943
REMARK  7 active torsions:
REMARK  status: ('A' for Active; 'I' for Inactive)
REMARK    1  A    between atoms: C_2  and  O_3 
REMARK    2  A    between atoms: O_3  and  C_4 
REMARK    3  A    between atoms: C_7  and  C_8 
REMARK       I    between atoms: C_8  and  N_9 
REMARK    4  A    between atoms: N_9  and  N_10 
REMARK       I    between atoms: N_10  and  C_11 
REMARK    5  A    between atoms: C_11  and  C_12 
REMARK    6  A    between atoms: C_14  and  C_15 
REMARK    7  A    between atoms: C_22  and  C_23 
ROOT
HETATM    1  N   UNL     1     -43.687  58.471 -50.980  1.00  0.00    -0.262 N 
HETATM    2  C   UNL     1     -45.049  58.519 -50.759  1.00  0.00     0.291 C 
HETATM    3  O   UNL     1     -45.768  57.534 -50.936  1.00  0.00    -0.264 OA
HETATM    4  H   UNL     1     -43.101  59.303 -50.911  1.00  0.00     0.190 HD
ENDROOT
BRANCH   2   5
HETATM    5  C   UNL     1     -45.534  59.821 -50.329  1.00  0.00     0.159 A 
HETATM    6  N   UNL     1     -45.523  60.233 -49.000  1.00  0.00    -0.216 NA
HETATM    7  C   UNL     1     -46.006  61.462 -49.038  1.00  0.00     0.180 A 
HETATM    8  O   UNL     1     -46.343  61.887 -50.293  1.00  0.00    -0.293 OA
HETATM    9  C   UNL     1     -46.041  60.838 -51.117  1.00  0.00     0.094 A 
BRANCH   7  10
HETATM   10  C   UNL     1     -46.211  62.417 -47.952  1.00  0.00     0.017 A 
HETATM   11  C   UNL     1     -47.443  63.075 -47.823  1.00  0.00     0.016 A 
HETATM   12  C   UNL     1     -47.662  63.986 -46.786  1.00  0.00     0.001 A 
HETATM   13  C   UNL     1     -46.652  64.251 -45.863  1.00  0.00     0.000 A 
HETATM   14  C   UNL     1     -45.422  63.609 -45.978  1.00  0.00     0.001 A 
HETATM   15  C   UNL     1     -45.202  62.698 -47.015  1.00  0.00     0.016 A 
ENDBRANCH   7  10
BRANCH   9  16
HETATM   16  C   UNL     1     -46.245  60.858 -52.621  1.00  0.00     0.046 A 
HETATM   17  C   UNL     1     -46.267  62.206 -53.312  1.00  0.00     0.012 A 
HETATM   18  C   UNL     1     -45.086  61.314 -53.483  1.00  0.00     0.012 A 
ENDBRANCH   9  16
ENDBRANCH   2   5
BRANCH   1  19
HETATM   19  N   UNL     1     -43.155  57.319 -51.563  1.00  0.00    -0.263 N 
HETATM   20  C   UNL     1     -41.808  57.053 -51.447  1.00  0.00     0.270 C 
HETATM   21  O   UNL     1     -41.026  57.763 -50.823  1.00  0.00    -0.266 OA
HETATM   22  H   UNL     1     -43.829  56.661 -51.949  1.00  0.00     0.190 HD
BRANCH  20  23
HETATM   23  C   UNL     1     -41.344  55.814 -52.129  1.00  0.00     0.033 A 
HETATM   24  C   UNL     1     -41.252  54.595 -51.443  1.00  0.00     0.020 A 
HETATM   25  C   UNL     1     -40.819  53.441 -52.108  1.00  0.00     0.038 A 
HETATM   26  C   UNL     1     -40.485  53.495 -53.462  1.00  0.00     0.068 A 
HETATM   27  C   UNL     1     -40.585  54.710 -54.145  1.00  0.00     0.038 A 
HETATM   28  C   UNL     1     -41.021  55.866 -53.487  1.00  0.00     0.020 A 
BRANCH  26  29
HETATM   29  O   UNL     1     -40.057  52.441 -54.222  1.00  0.00    -0.352 OA
BRANCH  29  30
HETATM   30  C   UNL     1     -39.578  51.291 -53.525  1.00  0.00     0.171 C 
HETATM   31  C   UNL     1     -39.942  50.060 -54.335  1.00  0.00     0.034 C 
ENDBRANCH  29  30
ENDBRANCH  26  29
ENDBRANCH  20  23
ENDBRANCH   1  19
TORSDOF 7
ENDMDL
MODEL 6
REMARK VINA RESULT:      -7.4      2.094     10.065
REMARK  7 active torsions:
REMARK  status: ('A' for Active; 'I' for Inactive)
REMARK    1  A    between atoms: C_2  and  O_3 
REMARK    2  A    between atoms: O_3  and  C_4 
REMARK    3  A    between atoms: C_7  and  C_8 
REMARK       I    between atoms: C_8  and  N_9 
REMARK    4  A    between atoms: N_9  and  N_10 
REMARK       I    between atoms: N_10  and  C_11 
REMARK    5  A    between atoms: C_11  and  C_12 
REMARK    6  A    between atoms: C_14  and  C_15 
REMARK    7  A    between atoms: C_22  and  C_23 
ROOT
HETATM    1  N   UNL     1     -43.726  56.163 -55.607  1.00  0.00    -0.262 N 
HETATM    2  C   UNL     1     -42.592  56.598 -54.950  1.00  0.00     0.291 C 
HETATM    3  O   UNL     1     -42.135  57.729 -55.126  1.00  0.00    -0.264 OA
HETATM    4  H   UNL     1     -44.061  55.204 -55.525  1.00  0.00     0.190 HD
ENDROOT
BRANCH   2   5
HETATM    5  C   UNL     1     -41.999  55.603 -54.071  1.00  0.00     0.159 A 
HETATM    6  N   UNL     1     -41.628  54.333 -54.504  1.00  0.00    -0.216 NA
HETATM    7  C   UNL     1     -41.111  53.763 -53.431  1.00  0.00     0.180 A 
HETATM    8  O   UNL     1     -41.122  54.559 -52.319  1.00  0.00    -0.293 OA
HETATM    9  C   UNL     1     -41.689  55.734 -52.730  1.00  0.00     0.094 A 
BRANCH   7  10
HETATM   10  C   UNL     1     -40.525  52.434 -53.271  1.00  0.00     0.017 A 
HETATM   11  C   UNL     1     -39.993  52.049 -52.032  1.00  0.00     0.016 A 
HETATM   12  C   UNL     1     -39.437  50.778 -51.856  1.00  0.00     0.001 A 
HETATM   13  C   UNL     1     -39.406  49.876 -52.918  1.00  0.00     0.000 A 
HETATM   14  C   UNL     1     -39.929  50.243 -54.156  1.00  0.00     0.001 A 
HETATM   15  C   UNL     1     -40.484  51.513 -54.332  1.00  0.00     0.016 A 
ENDBRANCH   7  10
BRANCH   9  16
HETATM   16  C   UNL     1     -41.904  56.931 -51.822  1.00  0.00     0.046 A 
HETATM   17  C   UNL     1     -41.035  57.046 -50.587  1.00  0.00     0.012 A 
HETATM   18  C   UNL     1     -40.795  57.960 -51.737  1.00  0.00     0.012 A 
ENDBRANCH   9  16
ENDBRANCH   2   5
BRANCH   1  19
HETATM   19  N   UNL     1     -44.263  56.981 -56.603  1.00  0.00    -0.263 N 
HETATM   20  C   UNL     1     -43.961  56.739 -57.926  1.00  0.00     0.270 C 
HETATM   21  O   UNL     1     -43.256  55.808 -58.302  1.00  0.00    -0.266 OA
HETATM   22  H   UNL     1     -44.964  57.655 -56.299  1.00  0.00     0.190 HD
BRANCH  20  23
HETATM   23  C   UNL     1     -44.567  57.687 -58.900  1.00  0.00     0.033 A 
HETATM   24  C   UNL     1     -43.780  58.599 -59.617  1.00  0.00     0.020 A 
HETATM   25  C   UNL     1     -44.373  59.477 -60.532  1.00  0.00     0.038 A 
HETATM   26  C   UNL     1     -45.752  59.443 -60.745  1.00  0.00     0.068 A 
HETATM   27  C   UNL     1     -46.532  58.527 -60.034  1.00  0.00     0.038 A 
HETATM   28  C   UNL     1     -45.946  57.645 -59.121  1.00  0.00     0.020 A 
BRANCH  26  29
HETATM   29  O   UNL     1     -46.447  60.241 -61.612  1.00  0.00    -0.352 OA
BRANCH  29  30
HETATM   30  C   UNL     1     -47.594  60.916 -61.094  1.00  0.00     0.171 C 
HETATM   31  C   UNL     1     -48.718  60.782 -62.105  1.00  0.00     0.034 C 
ENDBRANCH  29  30
ENDBRANCH  26  29
ENDBRANCH  20  23
ENDBRANCH   1  19
TORSDOF 7
ENDMDL
MODEL 7
REMARK VINA RESULT:      -7.3     16.095     22.076
REMARK  7 active torsions:
REMARK  status: ('A' for Active; 'I' for Inactive)
REMARK    1  A    between atoms: C_2  and  O_3 
REMARK    2  A    between atoms: O_3  and  C_4 
REMARK    3  A    between atoms: C_7  and  C_8 
REMARK       I    between atoms: C_8  and  N_9 
REMARK    4  A    between atoms: N_9  and  N_10 
REMARK       I    between atoms: N_10  and  C_11 
REMARK    5  A    between atoms: C_11  and  C_12 
REMARK    6  A    between atoms: C_14  and  C_15 
REMARK    7  A    between atoms: C_22  and  C_23 
ROOT
HETATM    1  N   UNL     1     -33.198  40.775 -50.838  1.00  0.00    -0.262 N 
HETATM    2  C   UNL     1     -32.266  39.778 -50.630  1.00  0.00     0.291 C 
HETATM    3  O   UNL     1     -31.633  39.280 -51.562  1.00  0.00    -0.264 OA
HETATM    4  H   UNL     1     -33.780  41.135 -50.081  1.00  0.00     0.190 HD
ENDROOT
BRANCH   2   5
HETATM    5  C   UNL     1     -32.131  39.375 -49.239  1.00  0.00     0.159 A 
HETATM    6  N   UNL     1     -31.100  39.821 -48.417  1.00  0.00    -0.216 NA
HETATM    7  C   UNL     1     -31.353  39.262 -47.248  1.00  0.00     0.180 A 
HETATM    8  O   UNL     1     -32.469  38.471 -47.240  1.00  0.00    -0.293 OA
HETATM    9  C   UNL     1     -32.965  38.545 -48.512  1.00  0.00     0.094 A 
BRANCH   7  10
HETATM   10  C   UNL     1     -30.632  39.378 -45.982  1.00  0.00     0.017 A 
HETATM   11  C   UNL     1     -30.115  40.619 -45.584  1.00  0.00     0.016 A 
HETATM   12  C   UNL     1     -29.430  40.753 -44.372  1.00  0.00     0.001 A 
HETATM   13  C   UNL     1     -29.253  39.646 -43.544  1.00  0.00     0.000 A 
HETATM   14  C   UNL     1     -29.758  38.406 -43.925  1.00  0.00     0.001 A 
HETATM   15  C   UNL     1     -30.443  38.272 -45.137  1.00  0.00     0.016 A 
ENDBRANCH   7  10
BRANCH   9  16
HETATM   16  C   UNL     1     -34.217  37.822 -48.975  1.00  0.00     0.046 A 
HETATM   17  C   UNL     1     -35.220  37.403 -47.920  1.00  0.00     0.012 A 
HETATM   18  C   UNL     1     -35.542  38.541 -48.823  1.00  0.00     0.012 A 
ENDBRANCH   9  16
ENDBRANCH   2   5
BRANCH   1  19
HETATM   19  N   UNL     1     -33.527  41.104 -52.154  1.00  0.00    -0.263 N 
HETATM   20  C   UNL     1     -34.802  40.871 -52.621  1.00  0.00     0.270 C 
HETATM   21  O   UNL     1     -35.704  40.408 -51.930  1.00  0.00    -0.266 OA
HETATM   22  H   UNL     1     -32.822  41.624 -52.675  1.00  0.00     0.190 HD
BRANCH  20  23
HETATM   23  C   UNL     1     -35.034  41.235 -54.045  1.00  0.00     0.033 A 
HETATM   24  C   UNL     1     -34.120  40.884 -55.047  1.00  0.00     0.020 A 
HETATM   25  C   UNL     1     -34.364  41.233 -56.381  1.00  0.00     0.038 A 
HETATM   26  C   UNL     1     -35.526  41.925 -56.724  1.00  0.00     0.068 A 
HETATM   27  C   UNL     1     -36.440  42.268 -55.723  1.00  0.00     0.038 A 
HETATM   28  C   UNL     1     -36.203  41.919 -54.389  1.00  0.00     0.020 A 
BRANCH  26  29
HETATM   29  O   UNL     1     -35.880  42.317 -57.986  1.00  0.00    -0.352 OA
BRANCH  29  30
HETATM   30  C   UNL     1     -37.152  41.881 -58.466  1.00  0.00     0.171 C 
HETATM   31  C   UNL     1     -37.297  42.340 -59.906  1.00  0.00     0.034 C 
ENDBRANCH  29  30
ENDBRANCH  26  29
ENDBRANCH  20  23
ENDBRANCH   1  19
TORSDOF 7
ENDMDL
MODEL 8
REMARK VINA RESULT:      -7.1     16.044     18.498
REMARK  7 active torsions:
REMARK  status: ('A' for Active; 'I' for Inactive)
REMARK    1  A    between atoms: C_2  and  O_3 
REMARK    2  A    between atoms: O_3  and  C_4 
REMARK    3  A    between atoms: C_7  and  C_8 
REMARK       I    between atoms: C_8  and  N_9 
REMARK    4  A    between atoms: N_9  and  N_10 
REMARK       I    between atoms: N_10  and  C_11 
REMARK    5  A    between atoms: C_11  and  C_12 
REMARK    6  A    between atoms: C_14  and  C_15 
REMARK    7  A    between atoms: C_22  and  C_23 
ROOT
HETATM    1  N   UNL     1     -35.579  39.787 -51.947  1.00  0.00    -0.262 N 
HETATM    2  C   UNL     1     -35.662  41.036 -52.532  1.00  0.00     0.291 C 
HETATM    3  O   UNL     1     -35.038  42.001 -52.087  1.00  0.00    -0.264 OA
HETATM    4  H   UNL     1     -36.152  39.006 -52.263  1.00  0.00     0.190 HD
ENDROOT
BRANCH   2   5
HETATM    5  C   UNL     1     -36.552  41.094 -53.679  1.00  0.00     0.159 A 
HETATM    6  N   UNL     1     -36.105  40.990 -54.993  1.00  0.00    -0.216 NA
HETATM    7  C   UNL     1     -37.207  41.056 -55.717  1.00  0.00     0.180 A 
HETATM    8  O   UNL     1     -38.349  41.205 -54.979  1.00  0.00    -0.293 OA
HETATM    9  C   UNL     1     -37.929  41.228 -53.677  1.00  0.00     0.094 A 
BRANCH   7  10
HETATM   10  C   UNL     1     -37.378  40.978 -57.166  1.00  0.00     0.017 A 
HETATM   11  C   UNL     1     -37.980  39.849 -57.739  1.00  0.00     0.016 A 
HETATM   12  C   UNL     1     -38.161  39.759 -59.122  1.00  0.00     0.001 A 
HETATM   13  C   UNL     1     -37.741  40.798 -59.951  1.00  0.00     0.000 A 
HETATM   14  C   UNL     1     -37.139  41.926 -59.398  1.00  0.00     0.001 A 
HETATM   15  C   UNL     1     -36.958  42.016 -58.015  1.00  0.00     0.016 A 
ENDBRANCH   7  10
BRANCH   9  16
HETATM   16  C   UNL     1     -38.864  41.373 -52.490  1.00  0.00     0.046 A 
HETATM   17  C   UNL     1     -40.354  41.314 -52.754  1.00  0.00     0.012 A 
HETATM   18  C   UNL     1     -39.683  40.164 -52.087  1.00  0.00     0.012 A 
ENDBRANCH   9  16
ENDBRANCH   2   5
BRANCH   1  19
HETATM   19  N   UNL     1     -34.890  39.671 -50.738  1.00  0.00    -0.263 N 
HETATM   20  C   UNL     1     -33.624  39.128 -50.720  1.00  0.00     0.270 C 
HETATM   21  O   UNL     1     -33.029  38.757 -51.727  1.00  0.00    -0.266 OA
HETATM   22  H   UNL     1     -35.325  40.116 -49.931  1.00  0.00     0.190 HD
BRANCH  20  23
HETATM   23  C   UNL     1     -32.994  39.029 -49.375  1.00  0.00     0.033 A 
HETATM   24  C   UNL     1     -33.453  38.111 -48.420  1.00  0.00     0.020 A 
HETATM   25  C   UNL     1     -32.840  38.032 -47.164  1.00  0.00     0.038 A 
HETATM   26  C   UNL     1     -31.760  38.861 -46.856  1.00  0.00     0.068 A 
HETATM   27  C   UNL     1     -31.300  39.770 -47.813  1.00  0.00     0.038 A 
HETATM   28  C   UNL     1     -31.906  39.851 -49.072  1.00  0.00     0.020 A 
BRANCH  26  29
HETATM   29  O   UNL     1     -31.076  38.876 -45.672  1.00  0.00    -0.352 OA
BRANCH  29  30
HETATM   30  C   UNL     1     -29.857  39.619 -45.638  1.00  0.00     0.171 C 
HETATM   31  C   UNL     1     -29.941  40.614 -44.495  1.00  0.00     0.034 C 
ENDBRANCH  29  30
ENDBRANCH  26  29
ENDBRANCH  20  23
ENDBRANCH   1  19
TORSDOF 7
ENDMDL
MODEL 9
REMARK VINA RESULT:      -6.9      7.251      9.320
REMARK  7 active torsions:
REMARK  status: ('A' for Active; 'I' for Inactive)
REMARK    1  A    between atoms: C_2  and  O_3 
REMARK    2  A    between atoms: O_3  and  C_4 
REMARK    3  A    between atoms: C_7  and  C_8 
REMARK       I    between atoms: C_8  and  N_9 
REMARK    4  A    between atoms: N_9  and  N_10 
REMARK       I    between atoms: N_10  and  C_11 
REMARK    5  A    between atoms: C_11  and  C_12 
REMARK    6  A    between atoms: C_14  and  C_15 
REMARK    7  A    between atoms: C_22  and  C_23 
ROOT
HETATM    1  N   UNL     1     -43.868  59.262 -51.081  1.00  0.00    -0.262 N 
HETATM    2  C   UNL     1     -44.552  58.116 -51.437  1.00  0.00     0.291 C 
HETATM    3  O   UNL     1     -45.518  57.711 -50.787  1.00  0.00    -0.264 OA
HETATM    4  H   UNL     1     -43.022  59.557 -51.568  1.00  0.00     0.190 HD
ENDROOT
BRANCH   2   5
HETATM    5  C   UNL     1     -44.016  57.447 -52.611  1.00  0.00     0.159 A 
HETATM    6  N   UNL     1     -44.042  58.011 -53.883  1.00  0.00    -0.216 NA
HETATM    7  C   UNL     1     -43.440  57.117 -54.646  1.00  0.00     0.180 A 
HETATM    8  O   UNL     1     -43.027  56.000 -53.973  1.00  0.00    -0.293 OA
HETATM    9  C   UNL     1     -43.396  56.213 -52.673  1.00  0.00     0.094 A 
BRANCH   7  10
HETATM   10  C   UNL     1     -43.144  57.158 -56.076  1.00  0.00     0.017 A 
HETATM   11  C   UNL     1     -42.799  58.374 -56.684  1.00  0.00     0.016 A 
HETATM   12  C   UNL     1     -42.504  58.433 -58.049  1.00  0.00     0.001 A 
HETATM   13  C   UNL     1     -42.550  57.276 -58.825  1.00  0.00     0.000 A 
HETATM   14  C   UNL     1     -42.893  56.060 -58.237  1.00  0.00     0.001 A 
HETATM   15  C   UNL     1     -43.189  56.001 -56.872  1.00  0.00     0.016 A 
ENDBRANCH   7  10
BRANCH   9  16
HETATM   16  C   UNL     1     -43.133  55.228 -51.548  1.00  0.00     0.046 A 
HETATM   17  C   UNL     1     -42.466  53.915 -51.901  1.00  0.00     0.012 A 
HETATM   18  C   UNL     1     -41.690  54.956 -51.173  1.00  0.00     0.012 A 
ENDBRANCH   9  16
ENDBRANCH   2   5
BRANCH   1  19
HETATM   19  N   UNL     1     -44.195  59.875 -49.869  1.00  0.00    -0.263 N 
HETATM   20  C   UNL     1     -44.624  61.184 -49.858  1.00  0.00     0.270 C 
HETATM   21  O   UNL     1     -44.773  61.859 -50.872  1.00  0.00    -0.266 OA
HETATM   22  H   UNL     1     -44.215  59.267 -49.052  1.00  0.00     0.190 HD
BRANCH  20  23
HETATM   23  C   UNL     1     -44.921  61.744 -48.511  1.00  0.00     0.033 A 
HETATM   24  C   UNL     1     -45.411  60.936 -47.476  1.00  0.00     0.020 A 
HETATM   25  C   UNL     1     -45.676  61.486 -46.216  1.00  0.00     0.038 A 
HETATM   26  C   UNL     1     -45.444  62.841 -45.978  1.00  0.00     0.068 A 
HETATM   27  C   UNL     1     -44.948  63.642 -47.011  1.00  0.00     0.038 A 
HETATM   28  C   UNL     1     -44.678  63.099 -48.271  1.00  0.00     0.020 A 
BRANCH  26  29
HETATM   29  O   UNL     1     -45.657  63.493 -44.795  1.00  0.00    -0.352 OA
BRANCH  29  30
HETATM   30  C   UNL     1     -44.505  63.990 -44.113  1.00  0.00     0.171 C 
HETATM   31  C   UNL     1     -43.971  62.887 -43.218  1.00  0.00     0.034 C 
ENDBRANCH  29  30
ENDBRANCH  26  29
ENDBRANCH  20  23
ENDBRANCH   1  19
TORSDOF 7
ENDMDL
MODEL 10
REMARK VINA RESULT:      -6.7      2.957     10.178
REMARK  7 active torsions:
REMARK  status: ('A' for Active; 'I' for Inactive)
REMARK    1  A    between atoms: C_2  and  O_3 
REMARK    2  A    between atoms: O_3  and  C_4 
REMARK    3  A    between atoms: C_7  and  C_8 
REMARK       I    between atoms: C_8  and  N_9 
REMARK    4  A    between atoms: N_9  and  N_10 
REMARK       I    between atoms: N_10  and  C_11 
REMARK    5  A    between atoms: C_11  and  C_12 
REMARK    6  A    between atoms: C_14  and  C_15 
REMARK    7  A    between atoms: C_22  and  C_23 
ROOT
HETATM    1  N   UNL     1     -45.435  57.269 -55.336  1.00  0.00    -0.262 N 
HETATM    2  C   UNL     1     -44.389  57.974 -54.772  1.00  0.00     0.291 C 
HETATM    3  O   UNL     1     -44.256  59.186 -54.948  1.00  0.00    -0.264 OA
HETATM    4  H   UNL     1     -45.504  56.255 -55.258  1.00  0.00     0.190 HD
ENDROOT
BRANCH   2   5
HETATM    5  C   UNL     1     -43.477  57.154 -53.990  1.00  0.00     0.159 A 
HETATM    6  N   UNL     1     -43.037  55.901 -54.406  1.00  0.00    -0.216 NA
HETATM    7  C   UNL     1     -42.214  55.513 -53.449  1.00  0.00     0.180 A 
HETATM    8  O   UNL     1     -42.087  56.412 -52.427  1.00  0.00    -0.293 OA
HETATM    9  C   UNL     1     -42.894  57.460 -52.774  1.00  0.00     0.094 A 
BRANCH   7  10
HETATM   10  C   UNL     1     -41.425  54.289 -53.337  1.00  0.00     0.017 A 
HETATM   11  C   UNL     1     -41.203  53.494 -54.471  1.00  0.00     0.016 A 
HETATM   12  C   UNL     1     -40.443  52.324 -54.386  1.00  0.00     0.001 A 
HETATM   13  C   UNL     1     -39.894  51.933 -53.166  1.00  0.00     0.000 A 
HETATM   14  C   UNL     1     -40.106  52.710 -52.030  1.00  0.00     0.001 A 
HETATM   15  C   UNL     1     -40.866  53.880 -52.114  1.00  0.00     0.016 A 
ENDBRANCH   7  10
BRANCH   9  16
HETATM   16  C   UNL     1     -43.067  58.710 -51.929  1.00  0.00     0.046 A 
HETATM   17  C   UNL     1     -41.975  59.047 -50.935  1.00  0.00     0.012 A 
HETATM   18  C   UNL     1     -42.114  59.863 -52.173  1.00  0.00     0.012 A 
ENDBRANCH   9  16
ENDBRANCH   2   5
BRANCH   1  19
HETATM   19  N   UNL     1     -46.260  57.933 -56.246  1.00  0.00    -0.263 N 
HETATM   20  C   UNL     1     -45.899  58.001 -57.574  1.00  0.00     0.270 C 
HETATM   21  O   UNL     1     -44.888  57.478 -58.031  1.00  0.00    -0.266 OA
HETATM   22  H   UNL     1     -47.166  58.233 -55.892  1.00  0.00     0.190 HD
BRANCH  20  23
HETATM   23  C   UNL     1     -46.838  58.754 -58.450  1.00  0.00     0.033 A 
HETATM   24  C   UNL     1     -47.744  59.683 -57.920  1.00  0.00     0.020 A 
HETATM   25  C   UNL     1     -48.613  60.383 -58.766  1.00  0.00     0.038 A 
HETATM   26  C   UNL     1     -48.577  60.168 -60.144  1.00  0.00     0.068 A 
HETATM   27  C   UNL     1     -47.666  59.247 -60.670  1.00  0.00     0.038 A 
HETATM   28  C   UNL     1     -46.793  58.546 -59.831  1.00  0.00     0.020 A 
BRANCH  26  29
HETATM   29  O   UNL     1     -49.366  60.791 -61.072  1.00  0.00    -0.352 OA
BRANCH  29  30
HETATM   30  C   UNL     1     -50.195  59.957 -61.881  1.00  0.00     0.171 C 
HETATM   31  C   UNL     1     -51.643  60.325 -61.614  1.00  0.00     0.034 C 
ENDBRANCH  29  30
ENDBRANCH  26  29
ENDBRANCH  20  23
ENDBRANCH   1  19
TORSDOF 7
ENDMDL
