MODEL 1
REMARK VINA RESULT:      -7.8      0.000      0.000
REMARK  6 active torsions:
REMARK  status: ('A' for Active; 'I' for Inactive)
REMARK    1  A    between atoms: C_2  and  N_3 
REMARK    2  A    between atoms: N_3  and  C_5 
REMARK    3  A    between atoms: N_3  and  C_28 
REMARK    4  A    between atoms: C_8  and  C_9 
REMARK    5  A    between atoms: N_10  and  C_11 
REMARK    6  A    between atoms: C_11  and  C_12 
ROOT
HETATM    1  C   UNL     1     -43.689  56.776 -55.168  1.00  0.00     0.222 C 
HETATM    2  N   UNL     1     -43.174  58.126 -55.086  1.00  0.00    -0.316 N 
HETATM    3  C   UNL     1     -42.380  58.652 -56.092  1.00  0.00     0.258 C 
HETATM    4  O   UNL     1     -41.659  59.634 -55.940  1.00  0.00    -0.267 OA
HETATM    5  C   UNL     1     -42.445  57.979 -57.407  1.00  0.00     0.058 A 
HETATM    6  C   UNL     1     -43.359  56.934 -57.567  1.00  0.00     0.045 A 
HETATM    7  N   UNL     1     -44.183  56.536 -56.514  1.00  0.00    -0.364 N 
HETATM    8  C   UNL     1     -41.667  58.433 -58.480  1.00  0.00     0.019 A 
HETATM    9  C   UNL     1     -41.823  57.853 -59.737  1.00  0.00     0.001 A 
HETATM   10  C   UNL     1     -42.762  56.839 -59.920  1.00  0.00     0.002 A 
HETATM   11  C   UNL     1     -43.534  56.393 -58.844  1.00  0.00     0.030 A 
HETATM   12  H   UNL     1     -44.633  55.642 -56.651  1.00  0.00     0.162 HD
ENDROOT
BRANCH   1  13
HETATM   13  C   UNL     1     -42.698  55.679 -54.738  1.00  0.00    -0.016 A 
HETATM   14  C   UNL     1     -41.344  55.681 -55.125  1.00  0.00     0.013 A 
HETATM   15  C   UNL     1     -40.450  54.711 -54.656  1.00  0.00     0.038 A 
HETATM   16  C   UNL     1     -40.896  53.700 -53.807  1.00  0.00     0.134 A 
HETATM   17  C   UNL     1     -42.240  53.667 -53.424  1.00  0.00     0.038 A 
HETATM   18  C   UNL     1     -43.124  54.653 -53.875  1.00  0.00     0.013 A 
BRANCH  16  19
HETATM   19  N   UNL     1     -39.978  52.683 -53.246  1.00  0.00    -0.042 N 
HETATM   20  H   UNL     1     -39.049  53.122 -53.274  1.00  0.00     0.286 HD
BRANCH  19  21
HETATM   21  C   UNL     1     -39.842  51.455 -54.115  1.00  0.00     0.237 C 
HETATM   22  C   UNL     1     -39.717  50.199 -53.266  1.00  0.00     0.035 C 
ENDBRANCH  19  21
BRANCH  19  23
HETATM   23  C   UNL     1     -40.203  52.438 -51.772  1.00  0.00     0.237 C 
HETATM   24  C   UNL     1     -39.801  53.592 -50.872  1.00  0.00     0.035 C 
ENDBRANCH  19  23
ENDBRANCH  16  19
ENDBRANCH   1  13
BRANCH   2  25
HETATM   25  C   UNL     1     -43.302  58.845 -53.825  1.00  0.00     0.193 C 
BRANCH  25  26
HETATM   26  C   UNL     1     -42.482  58.181 -52.780  1.00  0.00     0.070 A 
HETATM   27  O   UNL     1     -43.159  57.477 -51.827  1.00  0.00    -0.325 OA
HETATM   28  C   UNL     1     -42.227  56.959 -50.985  1.00  0.00     0.142 A 
HETATM   29  C   UNL     1     -40.962  57.330 -51.378  1.00  0.00     0.027 A 
HETATM   30  C   UNL     1     -41.125  58.122 -52.539  1.00  0.00     0.036 A 
ENDBRANCH  25  26
ENDBRANCH   2  25
TORSDOF 6
ENDMDL
MODEL 2
REMARK VINA RESULT:      -7.3      1.723      4.987
REMARK  6 active torsions:
REMARK  status: ('A' for Active; 'I' for Inactive)
REMARK    1  A    between atoms: C_2  and  N_3 
REMARK    2  A    between atoms: N_3  and  C_5 
REMARK    3  A    between atoms: N_3  and  C_28 
REMARK    4  A    between atoms: C_8  and  C_9 
REMARK    5  A    between atoms: N_10  and  C_11 
REMARK    6  A    between atoms: C_11  and  C_12 
ROOT
HETATM    1  C   UNL     1     -41.573  56.919 -54.297  1.00  0.00     0.222 C 
HETATM    2  N   UNL     1     -42.894  57.254 -53.810  1.00  0.00    -0.316 N 
HETATM    3  C   UNL     1     -43.083  57.739 -52.526  1.00  0.00     0.258 C 
HETATM    4  O   UNL     1     -44.167  57.729 -51.952  1.00  0.00    -0.267 OA
HETATM    5  C   UNL     1     -41.895  58.307 -51.852  1.00  0.00     0.058 A 
HETATM    6  C   UNL     1     -40.706  58.399 -52.581  1.00  0.00     0.045 A 
HETATM    7  N   UNL     1     -40.642  57.963 -53.904  1.00  0.00    -0.364 N 
HETATM    8  C   UNL     1     -41.987  58.809 -50.548  1.00  0.00     0.019 A 
HETATM    9  C   UNL     1     -40.883  59.437 -49.972  1.00  0.00     0.001 A 
HETATM   10  C   UNL     1     -39.705  59.574 -50.703  1.00  0.00     0.002 A 
HETATM   11  C   UNL     1     -39.622  59.069 -52.004  1.00  0.00     0.030 A 
HETATM   12  H   UNL     1     -39.703  57.857 -54.263  1.00  0.00     0.162 HD
ENDROOT
BRANCH   1  13
HETATM   13  C   UNL     1     -41.060  55.531 -53.870  1.00  0.00    -0.016 A 
HETATM   14  C   UNL     1     -41.150  55.059 -52.547  1.00  0.00     0.013 A 
HETATM   15  C   UNL     1     -40.744  53.763 -52.205  1.00  0.00     0.038 A 
HETATM   16  C   UNL     1     -40.215  52.917 -53.177  1.00  0.00     0.134 A 
HETATM   17  C   UNL     1     -40.098  53.370 -54.494  1.00  0.00     0.038 A 
HETATM   18  C   UNL     1     -40.530  54.657 -54.836  1.00  0.00     0.013 A 
BRANCH  16  19
HETATM   19  N   UNL     1     -39.819  51.523 -52.874  1.00  0.00    -0.042 N 
HETATM   20  H   UNL     1     -38.823  51.471 -53.121  1.00  0.00     0.286 HD
BRANCH  19  21
HETATM   21  C   UNL     1     -40.484  50.504 -53.771  1.00  0.00     0.237 C 
HETATM   22  C   UNL     1     -39.456  49.786 -54.632  1.00  0.00     0.035 C 
ENDBRANCH  19  21
BRANCH  19  23
HETATM   23  C   UNL     1     -39.828  51.217 -51.395  1.00  0.00     0.237 C 
HETATM   24  C   UNL     1     -39.548  49.766 -51.049  1.00  0.00     0.035 C 
ENDBRANCH  19  23
ENDBRANCH  16  19
ENDBRANCH   1  13
BRANCH   2  25
HETATM   25  C   UNL     1     -44.050  56.853 -54.601  1.00  0.00     0.193 C 
BRANCH  25  26
HETATM   26  C   UNL     1     -43.990  57.489 -55.941  1.00  0.00     0.070 A 
HETATM   27  O   UNL     1     -43.688  56.674 -56.993  1.00  0.00    -0.325 OA
HETATM   28  C   UNL     1     -43.689  57.451 -58.107  1.00  0.00     0.142 A 
HETATM   29  C   UNL     1     -43.977  58.757 -57.784  1.00  0.00     0.027 A 
HETATM   30  C   UNL     1     -44.171  58.784 -56.383  1.00  0.00     0.036 A 
ENDBRANCH  25  26
ENDBRANCH   2  25
TORSDOF 6
ENDMDL
MODEL 3
REMARK VINA RESULT:      -7.3      1.630      4.958
REMARK  6 active torsions:
REMARK  status: ('A' for Active; 'I' for Inactive)
REMARK    1  A    between atoms: C_2  and  N_3 
REMARK    2  A    between atoms: N_3  and  C_5 
REMARK    3  A    between atoms: N_3  and  C_28 
REMARK    4  A    between atoms: C_8  and  C_9 
REMARK    5  A    between atoms: N_10  and  C_11 
REMARK    6  A    between atoms: C_11  and  C_12 
ROOT
HETATM    1  C   UNL     1     -41.620  57.060 -54.985  1.00  0.00     0.222 C 
HETATM    2  N   UNL     1     -42.989  57.096 -55.456  1.00  0.00    -0.316 N 
HETATM    3  C   UNL     1     -44.040  57.333 -54.585  1.00  0.00     0.258 C 
HETATM    4  O   UNL     1     -45.207  57.057 -54.843  1.00  0.00    -0.267 OA
HETATM    5  C   UNL     1     -43.699  57.968 -53.293  1.00  0.00     0.058 A 
HETATM    6  C   UNL     1     -42.374  58.365 -53.085  1.00  0.00     0.045 A 
HETATM    7  N   UNL     1     -41.404  58.163 -54.066  1.00  0.00    -0.364 N 
HETATM    8  C   UNL     1     -44.693  58.234 -52.344  1.00  0.00     0.019 A 
HETATM    9  C   UNL     1     -44.368  58.929 -51.181  1.00  0.00     0.001 A 
HETATM   10  C   UNL     1     -43.061  59.369 -50.981  1.00  0.00     0.002 A 
HETATM   11  C   UNL     1     -42.074  59.100 -51.933  1.00  0.00     0.030 A 
HETATM   12  H   UNL     1     -40.453  58.268 -53.739  1.00  0.00     0.162 HD
ENDROOT
BRANCH   1  13
HETATM   13  C   UNL     1     -41.189  55.722 -54.357  1.00  0.00    -0.016 A 
HETATM   14  C   UNL     1     -41.331  55.443 -52.985  1.00  0.00     0.013 A 
HETATM   15  C   UNL     1     -40.999  54.190 -52.457  1.00  0.00     0.038 A 
HETATM   16  C   UNL     1     -40.493  53.192 -53.287  1.00  0.00     0.134 A 
HETATM   17  C   UNL     1     -40.326  53.451 -54.650  1.00  0.00     0.038 A 
HETATM   18  C   UNL     1     -40.683  54.697 -55.178  1.00  0.00     0.013 A 
BRANCH  16  19
HETATM   19  N   UNL     1     -40.177  51.836 -52.784  1.00  0.00    -0.042 N 
HETATM   20  H   UNL     1     -41.071  51.331 -52.805  1.00  0.00     0.286 HD
BRANCH  19  21
HETATM   21  C   UNL     1     -39.768  51.818 -51.329  1.00  0.00     0.237 C 
HETATM   22  C   UNL     1     -39.782  50.400 -50.778  1.00  0.00     0.035 C 
ENDBRANCH  19  21
BRANCH  19  23
HETATM   23  C   UNL     1     -39.306  51.046 -53.732  1.00  0.00     0.237 C 
HETATM   24  C   UNL     1     -40.020  49.911 -54.445  1.00  0.00     0.035 C 
ENDBRANCH  19  23
ENDBRANCH  16  19
ENDBRANCH   1  13
BRANCH   2  25
HETATM   25  C   UNL     1     -43.271  56.647 -56.813  1.00  0.00     0.193 C 
BRANCH  25  26
HETATM   26  C   UNL     1     -42.961  57.731 -57.779  1.00  0.00     0.070 A 
HETATM   27  O   UNL     1     -43.730  58.856 -57.704  1.00  0.00    -0.325 OA
HETATM   28  C   UNL     1     -43.280  59.706 -58.662  1.00  0.00     0.142 A 
HETATM   29  C   UNL     1     -42.238  59.139 -59.360  1.00  0.00     0.027 A 
HETATM   30  C   UNL     1     -42.032  57.860 -58.790  1.00  0.00     0.036 A 
ENDBRANCH  25  26
ENDBRANCH   2  25
TORSDOF 6
ENDMDL
MODEL 4
REMARK VINA RESULT:      -7.0      2.091      6.545
REMARK  6 active torsions:
REMARK  status: ('A' for Active; 'I' for Inactive)
REMARK    1  A    between atoms: C_2  and  N_3 
REMARK    2  A    between atoms: N_3  and  C_5 
REMARK    3  A    between atoms: N_3  and  C_28 
REMARK    4  A    between atoms: C_8  and  C_9 
REMARK    5  A    between atoms: N_10  and  C_11 
REMARK    6  A    between atoms: C_11  and  C_12 
ROOT
HETATM    1  C   UNL     1     -42.810  55.645 -54.448  1.00  0.00     0.222 C 
HETATM    2  N   UNL     1     -41.513  56.153 -54.054  1.00  0.00    -0.316 N 
HETATM    3  C   UNL     1     -41.382  57.397 -53.457  1.00  0.00     0.258 C 
HETATM    4  O   UNL     1     -40.322  58.013 -53.403  1.00  0.00    -0.267 OA
HETATM    5  C   UNL     1     -42.603  57.971 -52.850  1.00  0.00     0.058 A 
HETATM    6  C   UNL     1     -43.762  57.190 -52.838  1.00  0.00     0.045 A 
HETATM    7  N   UNL     1     -43.766  55.908 -53.387  1.00  0.00    -0.364 N 
HETATM    8  C   UNL     1     -42.570  59.229 -52.236  1.00  0.00     0.019 A 
HETATM    9  C   UNL     1     -43.703  59.704 -51.577  1.00  0.00     0.001 A 
HETATM   10  C   UNL     1     -44.851  58.917 -51.520  1.00  0.00     0.002 A 
HETATM   11  C   UNL     1     -44.875  57.662 -52.135  1.00  0.00     0.030 A 
HETATM   12  H   UNL     1     -44.689  55.521 -53.536  1.00  0.00     0.162 HD
ENDROOT
BRANCH   1  13
HETATM   13  C   UNL     1     -43.325  56.170 -55.801  1.00  0.00    -0.016 A 
HETATM   14  C   UNL     1     -44.085  57.348 -55.922  1.00  0.00     0.013 A 
HETATM   15  C   UNL     1     -44.475  57.839 -57.174  1.00  0.00     0.038 A 
HETATM   16  C   UNL     1     -44.133  57.148 -58.334  1.00  0.00     0.134 A 
HETATM   17  C   UNL     1     -43.394  55.965 -58.238  1.00  0.00     0.038 A 
HETATM   18  C   UNL     1     -42.985  55.492 -56.986  1.00  0.00     0.013 A 
BRANCH  16  19
HETATM   19  N   UNL     1     -44.479  57.655 -59.682  1.00  0.00    -0.042 N 
HETATM   20  H   UNL     1     -44.137  56.935 -60.330  1.00  0.00     0.286 HD
BRANCH  19  21
HETATM   21  C   UNL     1     -43.716  58.902 -60.066  1.00  0.00     0.237 C 
HETATM   22  C   UNL     1     -42.289  58.563 -60.471  1.00  0.00     0.035 C 
ENDBRANCH  19  21
BRANCH  19  23
HETATM   23  C   UNL     1     -45.967  57.676 -59.938  1.00  0.00     0.237 C 
HETATM   24  C   UNL     1     -46.576  56.317 -60.228  1.00  0.00     0.035 C 
ENDBRANCH  19  23
ENDBRANCH  16  19
ENDBRANCH   1  13
BRANCH   2  25
HETATM   25  C   UNL     1     -40.321  55.447 -54.505  1.00  0.00     0.193 C 
BRANCH  25  26
HETATM   26  C   UNL     1     -40.312  54.069 -53.954  1.00  0.00     0.070 A 
HETATM   27  O   UNL     1     -40.337  53.953 -52.594  1.00  0.00    -0.325 OA
HETATM   28  C   UNL     1     -40.325  52.625 -52.312  1.00  0.00     0.142 A 
HETATM   29  C   UNL     1     -40.281  51.885 -53.471  1.00  0.00     0.027 A 
HETATM   30  C   UNL     1     -40.271  52.818 -54.535  1.00  0.00     0.036 A 
ENDBRANCH  25  26
ENDBRANCH   2  25
TORSDOF 6
ENDMDL
MODEL 5
REMARK VINA RESULT:      -6.9      1.607      2.514
REMARK  6 active torsions:
REMARK  status: ('A' for Active; 'I' for Inactive)
REMARK    1  A    between atoms: C_2  and  N_3 
REMARK    2  A    between atoms: N_3  and  C_5 
REMARK    3  A    between atoms: N_3  and  C_28 
REMARK    4  A    between atoms: C_8  and  C_9 
REMARK    5  A    between atoms: N_10  and  C_11 
REMARK    6  A    between atoms: C_11  and  C_12 
ROOT
HETATM    1  C   UNL     1     -43.685  56.854 -54.083  1.00  0.00     0.222 C 
HETATM    2  N   UNL     1     -43.049  58.147 -53.941  1.00  0.00    -0.316 N 
HETATM    3  C   UNL     1     -42.273  58.679 -54.958  1.00  0.00     0.258 C 
HETATM    4  O   UNL     1     -41.461  59.583 -54.786  1.00  0.00    -0.267 OA
HETATM    5  C   UNL     1     -42.476  58.114 -56.310  1.00  0.00     0.058 A 
HETATM    6  C   UNL     1     -43.487  57.164 -56.481  1.00  0.00     0.045 A 
HETATM    7  N   UNL     1     -44.277  56.758 -55.406  1.00  0.00    -0.364 N 
HETATM    8  C   UNL     1     -41.728  58.581 -57.397  1.00  0.00     0.019 A 
HETATM    9  C   UNL     1     -42.009  58.111 -58.680  1.00  0.00     0.001 A 
HETATM   10  C   UNL     1     -43.043  57.197 -58.870  1.00  0.00     0.002 A 
HETATM   11  C   UNL     1     -43.785  56.737 -57.779  1.00  0.00     0.030 A 
HETATM   12  H   UNL     1     -44.812  55.917 -55.576  1.00  0.00     0.162 HD
ENDROOT
BRANCH   1  13
HETATM   13  C   UNL     1     -42.769  55.649 -53.797  1.00  0.00    -0.016 A 
HETATM   14  C   UNL     1     -41.996  55.541 -52.627  1.00  0.00     0.013 A 
HETATM   15  C   UNL     1     -41.231  54.398 -52.360  1.00  0.00     0.038 A 
HETATM   16  C   UNL     1     -41.204  53.347 -53.273  1.00  0.00     0.134 A 
HETATM   17  C   UNL     1     -41.950  53.439 -54.451  1.00  0.00     0.038 A 
HETATM   18  C   UNL     1     -42.732  54.572 -54.701  1.00  0.00     0.013 A 
BRANCH  16  19
HETATM   19  N   UNL     1     -40.452  52.098 -53.012  1.00  0.00    -0.042 N 
HETATM   20  H   UNL     1     -41.172  51.395 -52.804  1.00  0.00     0.286 HD
BRANCH  19  21
HETATM   21  C   UNL     1     -39.610  52.158 -51.757  1.00  0.00     0.237 C 
HETATM   22  C   UNL     1     -39.894  50.966 -50.855  1.00  0.00     0.035 C 
ENDBRANCH  19  21
BRANCH  19  23
HETATM   23  C   UNL     1     -39.774  51.551 -54.246  1.00  0.00     0.237 C 
HETATM   24  C   UNL     1     -39.915  50.051 -54.429  1.00  0.00     0.035 C 
ENDBRANCH  19  23
ENDBRANCH  16  19
ENDBRANCH   1  13
BRANCH   2  25
HETATM   25  C   UNL     1     -43.038  58.776 -52.627  1.00  0.00     0.193 C 
BRANCH  25  26
HETATM   26  C   UNL     1     -44.176  59.722 -52.511  1.00  0.00     0.070 A 
HETATM   27  O   UNL     1     -45.359  59.204 -52.069  1.00  0.00    -0.325 OA
HETATM   28  C   UNL     1     -46.251  60.228 -52.037  1.00  0.00     0.142 A 
HETATM   29  C   UNL     1     -45.660  61.395 -52.461  1.00  0.00     0.027 A 
HETATM   30  C   UNL     1     -44.318  61.070 -52.770  1.00  0.00     0.036 A 
ENDBRANCH  25  26
ENDBRANCH   2  25
TORSDOF 6
ENDMDL
MODEL 6
REMARK VINA RESULT:      -6.9      1.580      2.404
REMARK  6 active torsions:
REMARK  status: ('A' for Active; 'I' for Inactive)
REMARK    1  A    between atoms: C_2  and  N_3 
REMARK    2  A    between atoms: N_3  and  C_5 
REMARK    3  A    between atoms: N_3  and  C_28 
REMARK    4  A    between atoms: C_8  and  C_9 
REMARK    5  A    between atoms: N_10  and  C_11 
REMARK    6  A    between atoms: C_11  and  C_12 
ROOT
HETATM    1  C   UNL     1     -43.716  57.240 -55.254  1.00  0.00     0.222 C 
HETATM    2  N   UNL     1     -43.095  58.545 -55.338  1.00  0.00    -0.316 N 
HETATM    3  C   UNL     1     -42.371  58.923 -56.458  1.00  0.00     0.258 C 
HETATM    4  O   UNL     1     -41.567  59.850 -56.461  1.00  0.00    -0.267 OA
HETATM    5  C   UNL     1     -42.622  58.157 -57.698  1.00  0.00     0.058 A 
HETATM    6  C   UNL     1     -43.624  57.182 -57.677  1.00  0.00     0.045 A 
HETATM    7  N   UNL     1     -44.362  56.938 -56.520  1.00  0.00    -0.364 N 
HETATM    8  C   UNL     1     -41.927  58.458 -58.875  1.00  0.00     0.019 A 
HETATM    9  C   UNL     1     -42.255  57.797 -60.058  1.00  0.00     0.001 A 
HETATM   10  C   UNL     1     -43.282  56.854 -60.061  1.00  0.00     0.002 A 
HETATM   11  C   UNL     1     -43.970  56.559 -58.881  1.00  0.00     0.030 A 
HETATM   12  H   UNL     1     -44.890  56.075 -56.536  1.00  0.00     0.162 HD
ENDROOT
BRANCH   1  13
HETATM   13  C   UNL     1     -42.770  56.101 -54.829  1.00  0.00    -0.016 A 
HETATM   14  C   UNL     1     -41.371  56.246 -54.793  1.00  0.00     0.013 A 
HETATM   15  C   UNL     1     -40.542  55.216 -54.330  1.00  0.00     0.038 A 
HETATM   16  C   UNL     1     -41.095  54.007 -53.915  1.00  0.00     0.134 A 
HETATM   17  C   UNL     1     -42.481  53.833 -53.958  1.00  0.00     0.038 A 
HETATM   18  C   UNL     1     -43.307  54.874 -54.398  1.00  0.00     0.013 A 
BRANCH  16  19
HETATM   19  N   UNL     1     -40.264  52.909 -53.370  1.00  0.00    -0.042 N 
HETATM   20  H   UNL     1     -39.302  53.272 -53.388  1.00  0.00     0.286 HD
BRANCH  19  21
HETATM   21  C   UNL     1     -40.223  51.690 -54.262  1.00  0.00     0.237 C 
HETATM   22  C   UNL     1     -39.667  50.488 -53.514  1.00  0.00     0.035 C 
ENDBRANCH  19  21
BRANCH  19  23
HETATM   23  C   UNL     1     -40.514  52.655 -51.902  1.00  0.00     0.237 C 
HETATM   24  C   UNL     1     -40.089  53.788 -50.985  1.00  0.00     0.035 C 
ENDBRANCH  19  23
ENDBRANCH  16  19
ENDBRANCH   1  13
BRANCH   2  25
HETATM   25  C   UNL     1     -43.038  59.368 -54.137  1.00  0.00     0.193 C 
BRANCH  25  26
HETATM   26  C   UNL     1     -44.215  60.271 -54.088  1.00  0.00     0.070 A 
HETATM   27  O   UNL     1     -44.103  61.459 -54.750  1.00  0.00    -0.325 OA
HETATM   28  C   UNL     1     -45.278  62.119 -54.578  1.00  0.00     0.142 A 
HETATM   29  C   UNL     1     -46.140  61.375 -53.806  1.00  0.00     0.027 A 
HETATM   30  C   UNL     1     -45.454  60.180 -53.487  1.00  0.00     0.036 A 
ENDBRANCH  25  26
ENDBRANCH   2  25
TORSDOF 6
ENDMDL
MODEL 7
REMARK VINA RESULT:      -6.8      2.169      6.256
REMARK  6 active torsions:
REMARK  status: ('A' for Active; 'I' for Inactive)
REMARK    1  A    between atoms: C_2  and  N_3 
REMARK    2  A    between atoms: N_3  and  C_5 
REMARK    3  A    between atoms: N_3  and  C_28 
REMARK    4  A    between atoms: C_8  and  C_9 
REMARK    5  A    between atoms: N_10  and  C_11 
REMARK    6  A    between atoms: C_11  and  C_12 
ROOT
HETATM    1  C   UNL     1     -41.980  57.383 -54.315  1.00  0.00     0.222 C 
HETATM    2  N   UNL     1     -42.645  56.928 -53.113  1.00  0.00    -0.316 N 
HETATM    3  C   UNL     1     -42.785  55.578 -52.838  1.00  0.00     0.258 C 
HETATM    4  O   UNL     1     -43.601  55.131 -52.037  1.00  0.00    -0.267 OA
HETATM    5  C   UNL     1     -41.874  54.659 -53.555  1.00  0.00     0.058 A 
HETATM    6  C   UNL     1     -40.889  55.217 -54.376  1.00  0.00     0.045 A 
HETATM    7  N   UNL     1     -40.773  56.600 -54.516  1.00  0.00    -0.364 N 
HETATM    8  C   UNL     1     -41.951  53.276 -53.352  1.00  0.00     0.019 A 
HETATM    9  C   UNL     1     -41.014  52.438 -53.955  1.00  0.00     0.001 A 
HETATM   10  C   UNL     1     -40.001  52.985 -54.740  1.00  0.00     0.002 A 
HETATM   11  C   UNL     1     -39.932  54.367 -54.937  1.00  0.00     0.030 A 
HETATM   12  H   UNL     1     -40.196  56.893 -55.292  1.00  0.00     0.162 HD
ENDROOT
BRANCH   1  13
HETATM   13  C   UNL     1     -42.858  57.382 -55.579  1.00  0.00    -0.016 A 
HETATM   14  C   UNL     1     -43.965  58.236 -55.739  1.00  0.00     0.013 A 
HETATM   15  C   UNL     1     -44.699  58.264 -56.931  1.00  0.00     0.038 A 
HETATM   16  C   UNL     1     -44.356  57.418 -57.984  1.00  0.00     0.134 A 
HETATM   17  C   UNL     1     -43.272  56.548 -57.842  1.00  0.00     0.038 A 
HETATM   18  C   UNL     1     -42.526  56.542 -56.658  1.00  0.00     0.013 A 
BRANCH  16  19
HETATM   19  N   UNL     1     -45.071  57.448 -59.281  1.00  0.00    -0.042 N 
HETATM   20  H   UNL     1     -44.899  58.390 -59.655  1.00  0.00     0.286 HD
BRANCH  19  21
HETATM   21  C   UNL     1     -46.573  57.366 -59.139  1.00  0.00     0.237 C 
HETATM   22  C   UNL     1     -47.244  58.588 -59.749  1.00  0.00     0.035 C 
ENDBRANCH  19  21
BRANCH  19  23
HETATM   23  C   UNL     1     -44.447  56.542 -60.316  1.00  0.00     0.237 C 
HETATM   24  C   UNL     1     -45.292  55.338 -60.690  1.00  0.00     0.035 C 
ENDBRANCH  19  23
ENDBRANCH  16  19
ENDBRANCH   1  13
BRANCH   2  25
HETATM   25  C   UNL     1     -43.376  57.901 -52.311  1.00  0.00     0.193 C 
BRANCH  25  26
HETATM   26  C   UNL     1     -42.439  58.626 -51.417  1.00  0.00     0.070 A 
HETATM   27  O   UNL     1     -42.718  59.939 -51.173  1.00  0.00    -0.325 OA
HETATM   28  C   UNL     1     -41.747  60.400 -50.342  1.00  0.00     0.142 A 
HETATM   29  C   UNL     1     -40.842  59.404 -50.057  1.00  0.00     0.027 A 
HETATM   30  C   UNL     1     -41.287  58.255 -50.753  1.00  0.00     0.036 A 
ENDBRANCH  25  26
ENDBRANCH   2  25
TORSDOF 6
ENDMDL
MODEL 8
REMARK VINA RESULT:      -6.7      2.366      6.273
REMARK  6 active torsions:
REMARK  status: ('A' for Active; 'I' for Inactive)
REMARK    1  A    between atoms: C_2  and  N_3 
REMARK    2  A    between atoms: N_3  and  C_5 
REMARK    3  A    between atoms: N_3  and  C_28 
REMARK    4  A    between atoms: C_8  and  C_9 
REMARK    5  A    between atoms: N_10  and  C_11 
REMARK    6  A    between atoms: C_11  and  C_12 
ROOT
HETATM    1  C   UNL     1     -42.245  57.481 -53.673  1.00  0.00     0.222 C 
HETATM    2  N   UNL     1     -42.759  56.807 -52.500  1.00  0.00    -0.316 N 
HETATM    3  C   UNL     1     -42.786  55.424 -52.422  1.00  0.00     0.258 C 
HETATM    4  O   UNL     1     -43.488  54.805 -51.629  1.00  0.00    -0.267 OA
HETATM    5  C   UNL     1     -41.895  54.692 -53.349  1.00  0.00     0.058 A 
HETATM    6  C   UNL     1     -41.033  55.437 -54.159  1.00  0.00     0.045 A 
HETATM    7  N   UNL     1     -41.017  56.830 -54.097  1.00  0.00    -0.364 N 
HETATM    8  C   UNL     1     -41.864  53.292 -53.352  1.00  0.00     0.019 A 
HETATM    9  C   UNL     1     -40.941  52.625 -54.155  1.00  0.00     0.001 A 
HETATM   10  C   UNL     1     -40.047  53.356 -54.935  1.00  0.00     0.002 A 
HETATM   11  C   UNL     1     -40.084  54.753 -54.926  1.00  0.00     0.030 A 
HETATM   12  H   UNL     1     -40.540  57.277 -54.868  1.00  0.00     0.162 HD
ENDROOT
BRANCH   1  13
HETATM   13  C   UNL     1     -43.243  57.596 -54.840  1.00  0.00    -0.016 A 
HETATM   14  C   UNL     1     -42.904  57.274 -56.168  1.00  0.00     0.013 A 
HETATM   15  C   UNL     1     -43.854  57.317 -57.195  1.00  0.00     0.038 A 
HETATM   16  C   UNL     1     -45.163  57.708 -56.921  1.00  0.00     0.134 A 
HETATM   17  C   UNL     1     -45.519  58.050 -55.614  1.00  0.00     0.038 A 
HETATM   18  C   UNL     1     -44.572  57.981 -54.586  1.00  0.00     0.013 A 
BRANCH  16  19
HETATM   19  N   UNL     1     -46.214  57.719 -57.964  1.00  0.00    -0.042 N 
HETATM   20  H   UNL     1     -46.839  56.942 -57.717  1.00  0.00     0.286 HD
BRANCH  19  21
HETATM   21  C   UNL     1     -45.697  57.364 -59.339  1.00  0.00     0.237 C 
HETATM   22  C   UNL     1     -46.665  56.440 -60.061  1.00  0.00     0.035 C 
ENDBRANCH  19  21
BRANCH  19  23
HETATM   23  C   UNL     1     -47.112  58.931 -57.880  1.00  0.00     0.237 C 
HETATM   24  C   UNL     1     -46.725  60.067 -58.809  1.00  0.00     0.035 C 
ENDBRANCH  19  23
ENDBRANCH  16  19
ENDBRANCH   1  13
BRANCH   2  25
HETATM   25  C   UNL     1     -43.466  57.595 -51.498  1.00  0.00     0.193 C 
BRANCH  25  26
HETATM   26  C   UNL     1     -42.610  58.718 -51.042  1.00  0.00     0.070 A 
HETATM   27  O   UNL     1     -41.402  58.386 -50.499  1.00  0.00    -0.325 OA
HETATM   28  C   UNL     1     -40.790  59.549 -50.156  1.00  0.00     0.142 A 
HETATM   29  C   UNL     1     -41.593  60.624 -50.461  1.00  0.00     0.027 A 
HETATM   30  C   UNL     1     -42.771  60.088 -51.033  1.00  0.00     0.036 A 
ENDBRANCH  25  26
ENDBRANCH   2  25
TORSDOF 6
ENDMDL
MODEL 9
REMARK VINA RESULT:      -6.7      2.141      6.350
REMARK  6 active torsions:
REMARK  status: ('A' for Active; 'I' for Inactive)
REMARK    1  A    between atoms: C_2  and  N_3 
REMARK    2  A    between atoms: N_3  and  C_5 
REMARK    3  A    between atoms: N_3  and  C_28 
REMARK    4  A    between atoms: C_8  and  C_9 
REMARK    5  A    between atoms: N_10  and  C_11 
REMARK    6  A    between atoms: C_11  and  C_12 
ROOT
HETATM    1  C   UNL     1     -43.068  55.419 -53.876  1.00  0.00     0.222 C 
HETATM    2  N   UNL     1     -41.764  55.739 -53.336  1.00  0.00    -0.316 N 
HETATM    3  C   UNL     1     -41.498  56.989 -52.801  1.00  0.00     0.258 C 
HETATM    4  O   UNL     1     -40.362  57.426 -52.637  1.00  0.00    -0.267 OA
HETATM    5  C   UNL     1     -42.667  57.802 -52.403  1.00  0.00     0.058 A 
HETATM    6  C   UNL     1     -43.936  57.224 -52.507  1.00  0.00     0.045 A 
HETATM    7  N   UNL     1     -44.092  55.920 -52.975  1.00  0.00    -0.364 N 
HETATM    8  C   UNL     1     -42.496  59.084 -51.866  1.00  0.00     0.019 A 
HETATM    9  C   UNL     1     -43.604  59.789 -51.399  1.00  0.00     0.001 A 
HETATM   10  C   UNL     1     -44.869  59.207 -51.456  1.00  0.00     0.002 A 
HETATM   11  C   UNL     1     -45.031  57.927 -51.994  1.00  0.00     0.030 A 
HETATM   12  H   UNL     1     -45.041  55.679 -53.228  1.00  0.00     0.162 HD
ENDROOT
BRANCH   1  13
HETATM   13  C   UNL     1     -43.309  55.909 -55.315  1.00  0.00    -0.016 A 
HETATM   14  C   UNL     1     -43.921  57.142 -55.609  1.00  0.00     0.013 A 
HETATM   15  C   UNL     1     -44.058  57.594 -56.927  1.00  0.00     0.038 A 
HETATM   16  C   UNL     1     -43.608  56.809 -57.986  1.00  0.00     0.134 A 
HETATM   17  C   UNL     1     -43.014  55.572 -57.721  1.00  0.00     0.038 A 
HETATM   18  C   UNL     1     -42.856  55.136 -56.400  1.00  0.00     0.013 A 
BRANCH  16  19
HETATM   19  N   UNL     1     -43.685  57.266 -59.392  1.00  0.00    -0.042 N 
HETATM   20  H   UNL     1     -44.135  58.188 -59.345  1.00  0.00     0.286 HD
BRANCH  19  21
HETATM   21  C   UNL     1     -44.617  56.434 -60.242  1.00  0.00     0.237 C 
HETATM   22  C   UNL     1     -46.069  56.792 -59.966  1.00  0.00     0.035 C 
ENDBRANCH  19  21
BRANCH  19  23
HETATM   23  C   UNL     1     -42.330  57.569 -59.986  1.00  0.00     0.237 C 
HETATM   24  C   UNL     1     -42.186  58.974 -60.543  1.00  0.00     0.035 C 
ENDBRANCH  19  23
ENDBRANCH  16  19
ENDBRANCH   1  13
BRANCH   2  25
HETATM   25  C   UNL     1     -40.665  54.814 -53.576  1.00  0.00     0.193 C 
BRANCH  25  26
HETATM   26  C   UNL     1     -40.522  53.890 -52.423  1.00  0.00     0.070 A 
HETATM   27  O   UNL     1     -39.943  52.680 -52.676  1.00  0.00    -0.325 OA
HETATM   28  C   UNL     1     -39.911  52.004 -51.498  1.00  0.00     0.142 A 
HETATM   29  C   UNL     1     -40.470  52.760 -50.493  1.00  0.00     0.027 A 
HETATM   30  C   UNL     1     -40.867  53.980 -51.090  1.00  0.00     0.036 A 
ENDBRANCH  25  26
ENDBRANCH   2  25
TORSDOF 6
ENDMDL
MODEL 10
REMARK VINA RESULT:      -6.6      2.993      6.893
REMARK  6 active torsions:
REMARK  status: ('A' for Active; 'I' for Inactive)
REMARK    1  A    between atoms: C_2  and  N_3 
REMARK    2  A    between atoms: N_3  and  C_5 
REMARK    3  A    between atoms: N_3  and  C_28 
REMARK    4  A    between atoms: C_8  and  C_9 
REMARK    5  A    between atoms: N_10  and  C_11 
REMARK    6  A    between atoms: C_11  and  C_12 
ROOT
HETATM    1  C   UNL     1     -44.972  57.218 -54.710  1.00  0.00     0.222 C 
HETATM    2  N   UNL     1     -44.163  57.581 -55.853  1.00  0.00    -0.316 N 
HETATM    3  C   UNL     1     -42.849  57.157 -55.964  1.00  0.00     0.258 C 
HETATM    4  O   UNL     1     -42.029  57.683 -56.712  1.00  0.00    -0.267 OA
HETATM    5  C   UNL     1     -42.455  55.998 -55.134  1.00  0.00     0.058 A 
HETATM    6  C   UNL     1     -43.446  55.362 -54.380  1.00  0.00     0.045 A 
HETATM    7  N   UNL     1     -44.765  55.813 -54.407  1.00  0.00    -0.364 N 
HETATM    8  C   UNL     1     -41.144  55.507 -55.170  1.00  0.00     0.019 A 
HETATM    9  C   UNL     1     -40.822  54.349 -54.464  1.00  0.00     0.001 A 
HETATM   10  C   UNL     1     -41.810  53.682 -53.743  1.00  0.00     0.002 A 
HETATM   11  C   UNL     1     -43.116  54.178 -53.713  1.00  0.00     0.030 A 
HETATM   12  H   UNL     1     -45.347  55.444 -53.667  1.00  0.00     0.162 HD
ENDROOT
BRANCH   1  13
HETATM   13  C   UNL     1     -44.755  58.092 -53.461  1.00  0.00    -0.016 A 
HETATM   14  C   UNL     1     -44.709  57.562 -52.158  1.00  0.00     0.013 A 
HETATM   15  C   UNL     1     -44.434  58.373 -51.050  1.00  0.00     0.038 A 
HETATM   16  C   UNL     1     -44.223  59.739 -51.217  1.00  0.00     0.134 A 
HETATM   17  C   UNL     1     -44.281  60.292 -52.499  1.00  0.00     0.038 A 
HETATM   18  C   UNL     1     -44.531  59.474 -53.607  1.00  0.00     0.013 A 
BRANCH  16  19
HETATM   19  N   UNL     1     -43.879  60.626 -50.083  1.00  0.00    -0.042 N 
HETATM   20  H   UNL     1     -43.552  59.993 -49.342  1.00  0.00     0.286 HD
BRANCH  19  21
HETATM   21  C   UNL     1     -45.079  61.321 -49.482  1.00  0.00     0.237 C 
HETATM   22  C   UNL     1     -45.139  61.099 -47.978  1.00  0.00     0.035 C 
ENDBRANCH  19  21
BRANCH  19  23
HETATM   23  C   UNL     1     -42.673  61.493 -50.359  1.00  0.00     0.237 C 
HETATM   24  C   UNL     1     -42.952  62.985 -50.338  1.00  0.00     0.035 C 
ENDBRANCH  19  23
ENDBRANCH  16  19
ENDBRANCH   1  13
BRANCH   2  25
HETATM   25  C   UNL     1     -44.669  58.593 -56.772  1.00  0.00     0.193 C 
BRANCH  25  26
HETATM   26  C   UNL     1     -45.438  57.945 -57.863  1.00  0.00     0.070 A 
HETATM   27  O   UNL     1     -44.717  57.251 -58.792  1.00  0.00    -0.325 OA
HETATM   28  C   UNL     1     -45.607  56.745 -59.684  1.00  0.00     0.142 A 
HETATM   29  C   UNL     1     -46.890  57.114 -59.349  1.00  0.00     0.027 A 
HETATM   30  C   UNL     1     -46.782  57.891 -58.171  1.00  0.00     0.036 A 
ENDBRANCH  25  26
ENDBRANCH   2  25
TORSDOF 6
ENDMDL
