MODEL 1
REMARK VINA RESULT:      -8.2      0.000      0.000
REMARK  6 active torsions:
REMARK  status: ('A' for Active; 'I' for Inactive)
REMARK    1  A    between atoms: C_2  and  C_3 
REMARK    2  A    between atoms: C_3  and  C_4 
REMARK    3  A    between atoms: C_3  and  C_10 
REMARK    4  A    between atoms: C_10  and  C_11 
REMARK       I    between atoms: C_11  and  N_12 
REMARK    5  A    between atoms: N_12  and  C_13 
REMARK    6  A    between atoms: C_15  and  C_16 
ROOT
HETATM    1  C   UNL     1     -41.855  55.151 -54.624  1.00  0.00     0.223 C 
HETATM    2  N   UNL     1     -41.637  55.919 -55.749  1.00  0.00    -0.327 N 
HETATM    3  O   UNL     1     -42.955  54.920 -54.126  1.00  0.00    -0.273 OA
HETATM    4  H   UNL     1     -40.676  56.103 -56.001  1.00  0.00     0.169 HD
ENDROOT
BRANCH   2   5
HETATM    5  C   UNL     1     -42.591  56.587 -56.546  1.00  0.00     0.035 A 
HETATM    6  C   UNL     1     -43.161  56.051 -57.705  1.00  0.00     0.042 A 
HETATM    7  C   UNL     1     -44.098  56.781 -58.456  1.00  0.00    -0.021 A 
HETATM    8  C   UNL     1     -44.467  58.060 -58.018  1.00  0.00     0.012 A 
HETATM    9  C   UNL     1     -43.902  58.604 -56.864  1.00  0.00     0.003 A 
HETATM   10  C   UNL     1     -42.964  57.873 -56.138  1.00  0.00     0.029 A 
BRANCH   7  11
HETATM   11  C   UNL     1     -44.668  56.208 -59.665  1.00  0.00     0.010 A 
HETATM   12  C   UNL     1     -44.278  55.080 -60.428  1.00  0.00     0.152 A 
HETATM   13  N   UNL     1     -45.056  54.884 -61.498  1.00  0.00    -0.187 NA
HETATM   14  N   UNL     1     -45.939  55.892 -61.431  1.00  0.00    -0.289 N 
HETATM   15  H   UNL     1     -46.642  55.962 -62.159  1.00  0.00     0.188 HD
HETATM   16  C   UNL     1     -45.752  56.710 -60.355  1.00  0.00     0.123 A 
ENDBRANCH   7  11
ENDBRANCH   2   5
BRANCH   1  17
HETATM   17  C   UNL     1     -40.619  54.471 -54.035  1.00  0.00     0.116 C 
BRANCH  17  18
HETATM   18  C   UNL     1     -40.796  53.514 -52.835  1.00  0.00     0.049 C 
BRANCH  18  19
HETATM   19  C   UNL     1     -40.400  54.244 -51.558  1.00  0.00    -0.027 C 
HETATM   20  C   UNL     1     -41.196  54.876 -50.686  1.00  0.00     0.007 C 
ENDBRANCH  18  19
BRANCH  18  21
HETATM   21  C   UNL     1     -40.281  52.077 -52.998  1.00  0.00    -0.050 A 
HETATM   22  C   UNL     1     -39.861  51.334 -51.879  1.00  0.00     0.008 A 
HETATM   23  C   UNL     1     -39.408  50.017 -52.005  1.00  0.00     0.001 A 
HETATM   24  C   UNL     1     -39.396  49.399 -53.250  1.00  0.00     0.000 A 
HETATM   25  C   UNL     1     -39.852  50.093 -54.364  1.00  0.00     0.001 A 
HETATM   26  C   UNL     1     -40.301  51.412 -54.238  1.00  0.00     0.008 A 
ENDBRANCH  18  21
ENDBRANCH  17  18
ENDBRANCH   1  17
TORSDOF 6
ENDMDL
MODEL 2
REMARK VINA RESULT:      -8.1      2.440      8.439
REMARK  6 active torsions:
REMARK  status: ('A' for Active; 'I' for Inactive)
REMARK    1  A    between atoms: C_2  and  C_3 
REMARK    2  A    between atoms: C_3  and  C_4 
REMARK    3  A    between atoms: C_3  and  C_10 
REMARK    4  A    between atoms: C_10  and  C_11 
REMARK       I    between atoms: C_11  and  N_12 
REMARK    5  A    between atoms: N_12  and  C_13 
REMARK    6  A    between atoms: C_15  and  C_16 
ROOT
HETATM    1  C   UNL     1     -42.557  56.303 -56.238  1.00  0.00     0.223 C 
HETATM    2  N   UNL     1     -41.346  55.862 -55.749  1.00  0.00    -0.327 N 
HETATM    3  O   UNL     1     -43.653  56.074 -55.728  1.00  0.00    -0.273 OA
HETATM    4  H   UNL     1     -40.528  56.045 -56.312  1.00  0.00     0.169 HD
ENDROOT
BRANCH   2   5
HETATM    5  C   UNL     1     -41.103  55.079 -54.600  1.00  0.00     0.035 A 
HETATM    6  C   UNL     1     -40.712  53.737 -54.632  1.00  0.00     0.042 A 
HETATM    7  C   UNL     1     -40.500  53.017 -53.444  1.00  0.00    -0.021 A 
HETATM    8  C   UNL     1     -40.673  53.670 -52.216  1.00  0.00     0.012 A 
HETATM    9  C   UNL     1     -41.065  55.008 -52.174  1.00  0.00     0.003 A 
HETATM   10  C   UNL     1     -41.285  55.705 -53.361  1.00  0.00     0.029 A 
BRANCH   7  11
HETATM   11  C   UNL     1     -40.105  51.618 -53.501  1.00  0.00     0.010 A 
HETATM   12  C   UNL     1     -40.143  50.688 -54.569  1.00  0.00     0.152 A 
HETATM   13  N   UNL     1     -39.704  49.475 -54.216  1.00  0.00    -0.187 NA
HETATM   14  N   UNL     1     -39.396  49.619 -52.919  1.00  0.00    -0.289 N 
HETATM   15  H   UNL     1     -39.044  48.811 -52.417  1.00  0.00     0.188 HD
HETATM   16  C   UNL     1     -39.616  50.880 -52.443  1.00  0.00     0.123 A 
ENDBRANCH   7  11
ENDBRANCH   2   5
BRANCH   1  17
HETATM   17  C   UNL     1     -42.487  57.225 -57.456  1.00  0.00     0.116 C 
BRANCH  17  18
HETATM   18  C   UNL     1     -42.796  56.642 -58.852  1.00  0.00     0.049 C 
BRANCH  18  19
HETATM   19  C   UNL     1     -41.834  57.248 -59.865  1.00  0.00    -0.027 C 
HETATM   20  C   UNL     1     -41.952  58.407 -60.527  1.00  0.00     0.007 C 
ENDBRANCH  18  19
BRANCH  18  21
HETATM   21  C   UNL     1     -44.271  56.552 -59.268  1.00  0.00    -0.050 A 
HETATM   22  C   UNL     1     -45.227  57.424 -58.715  1.00  0.00     0.008 A 
HETATM   23  C   UNL     1     -46.571  57.371 -59.097  1.00  0.00     0.001 A 
HETATM   24  C   UNL     1     -46.986  56.466 -60.067  1.00  0.00     0.000 A 
HETATM   25  C   UNL     1     -46.054  55.627 -60.665  1.00  0.00     0.001 A 
HETATM   26  C   UNL     1     -44.710  55.679 -60.280  1.00  0.00     0.008 A 
ENDBRANCH  18  21
ENDBRANCH  17  18
ENDBRANCH   1  17
TORSDOF 6
ENDMDL
MODEL 3
REMARK VINA RESULT:      -8.1      1.034      1.659
REMARK  6 active torsions:
REMARK  status: ('A' for Active; 'I' for Inactive)
REMARK    1  A    between atoms: C_2  and  C_3 
REMARK    2  A    between atoms: C_3  and  C_4 
REMARK    3  A    between atoms: C_3  and  C_10 
REMARK    4  A    between atoms: C_10  and  C_11 
REMARK       I    between atoms: C_11  and  N_12 
REMARK    5  A    between atoms: N_12  and  C_13 
REMARK    6  A    between atoms: C_15  and  C_16 
ROOT
HETATM    1  C   UNL     1     -42.320  56.255 -53.915  1.00  0.00     0.223 C 
HETATM    2  N   UNL     1     -41.807  56.597 -55.148  1.00  0.00    -0.327 N 
HETATM    3  O   UNL     1     -43.512  56.280 -53.611  1.00  0.00    -0.273 OA
HETATM    4  H   UNL     1     -40.801  56.618 -55.239  1.00  0.00     0.169 HD
ENDROOT
BRANCH   2   5
HETATM    5  C   UNL     1     -42.508  57.038 -56.291  1.00  0.00     0.035 A 
HETATM    6  C   UNL     1     -42.992  56.189 -57.291  1.00  0.00     0.042 A 
HETATM    7  C   UNL     1     -43.672  56.703 -58.410  1.00  0.00    -0.021 A 
HETATM    8  C   UNL     1     -43.871  58.086 -58.504  1.00  0.00     0.012 A 
HETATM    9  C   UNL     1     -43.390  58.941 -57.512  1.00  0.00     0.003 A 
HETATM   10  C   UNL     1     -42.706  58.418 -56.415  1.00  0.00     0.029 A 
BRANCH   7  11
HETATM   11  C   UNL     1     -44.155  55.802 -59.444  1.00  0.00     0.010 A 
HETATM   12  C   UNL     1     -44.618  56.063 -60.757  1.00  0.00     0.152 A 
HETATM   13  N   UNL     1     -44.999  54.956 -61.403  1.00  0.00    -0.187 NA
HETATM   14  N   UNL     1     -44.793  53.983 -60.503  1.00  0.00    -0.289 N 
HETATM   15  H   UNL     1     -45.025  53.031 -60.765  1.00  0.00     0.188 HD
HETATM   16  C   UNL     1     -44.290  54.435 -59.317  1.00  0.00     0.123 A 
ENDBRANCH   7  11
ENDBRANCH   2   5
BRANCH   1  17
HETATM   17  C   UNL     1     -41.310  55.714 -52.902  1.00  0.00     0.116 C 
BRANCH  17  18
HETATM   18  C   UNL     1     -41.632  54.401 -52.156  1.00  0.00     0.049 C 
BRANCH  18  19
HETATM   19  C   UNL     1     -41.632  54.670 -50.657  1.00  0.00    -0.027 C 
HETATM   20  C   UNL     1     -40.943  55.602 -49.984  1.00  0.00     0.007 C 
ENDBRANCH  18  19
BRANCH  18  21
HETATM   21  C   UNL     1     -40.917  53.128 -52.629  1.00  0.00    -0.050 A 
HETATM   22  C   UNL     1     -41.003  52.711 -53.971  1.00  0.00     0.008 A 
HETATM   23  C   UNL     1     -40.342  51.566 -54.425  1.00  0.00     0.001 A 
HETATM   24  C   UNL     1     -39.549  50.827 -53.554  1.00  0.00     0.000 A 
HETATM   25  C   UNL     1     -39.406  51.244 -52.236  1.00  0.00     0.001 A 
HETATM   26  C   UNL     1     -40.070  52.388 -51.782  1.00  0.00     0.008 A 
ENDBRANCH  18  21
ENDBRANCH  17  18
ENDBRANCH   1  17
TORSDOF 6
ENDMDL
MODEL 4
REMARK VINA RESULT:      -7.9      2.590      8.944
REMARK  6 active torsions:
REMARK  status: ('A' for Active; 'I' for Inactive)
REMARK    1  A    between atoms: C_2  and  C_3 
REMARK    2  A    between atoms: C_3  and  C_4 
REMARK    3  A    between atoms: C_3  and  C_10 
REMARK    4  A    between atoms: C_10  and  C_11 
REMARK       I    between atoms: C_11  and  N_12 
REMARK    5  A    between atoms: N_12  and  C_13 
REMARK    6  A    between atoms: C_15  and  C_16 
ROOT
HETATM    1  C   UNL     1     -42.414  55.639 -56.261  1.00  0.00     0.223 C 
HETATM    2  N   UNL     1     -41.391  55.712 -55.340  1.00  0.00    -0.327 N 
HETATM    3  O   UNL     1     -43.169  54.679 -56.407  1.00  0.00    -0.273 OA
HETATM    4  H   UNL     1     -40.788  56.522 -55.384  1.00  0.00     0.169 HD
ENDROOT
BRANCH   2   5
HETATM    5  C   UNL     1     -40.995  54.738 -54.397  1.00  0.00     0.035 A 
HETATM    6  C   UNL     1     -41.093  54.901 -53.012  1.00  0.00     0.042 A 
HETATM    7  C   UNL     1     -40.667  53.890 -52.133  1.00  0.00    -0.021 A 
HETATM    8  C   UNL     1     -40.151  52.702 -52.667  1.00  0.00     0.012 A 
HETATM    9  C   UNL     1     -40.047  52.532 -54.048  1.00  0.00     0.003 A 
HETATM   10  C   UNL     1     -40.461  53.549 -54.907  1.00  0.00     0.029 A 
BRANCH   7  11
HETATM   11  C   UNL     1     -40.767  54.086 -50.695  1.00  0.00     0.010 A 
HETATM   12  C   UNL     1     -40.587  53.179 -49.622  1.00  0.00     0.152 A 
HETATM   13  N   UNL     1     -40.786  53.744 -48.427  1.00  0.00    -0.187 NA
HETATM   14  N   UNL     1     -41.105  55.011 -48.729  1.00  0.00    -0.289 N 
HETATM   15  H   UNL     1     -41.316  55.647 -47.967  1.00  0.00     0.188 HD
HETATM   16  C   UNL     1     -41.107  55.268 -50.070  1.00  0.00     0.123 A 
ENDBRANCH   7  11
ENDBRANCH   2   5
BRANCH   1  17
HETATM   17  C   UNL     1     -42.662  56.905 -57.081  1.00  0.00     0.116 C 
BRANCH  17  18
HETATM   18  C   UNL     1     -42.713  56.798 -58.621  1.00  0.00     0.049 C 
BRANCH  18  19
HETATM   19  C   UNL     1     -41.906  57.939 -59.224  1.00  0.00    -0.027 C 
HETATM   20  C   UNL     1     -41.961  58.423 -60.473  1.00  0.00     0.007 C 
ENDBRANCH  18  19
BRANCH  18  21
HETATM   21  C   UNL     1     -44.077  56.503 -59.262  1.00  0.00    -0.050 A 
HETATM   22  C   UNL     1     -45.206  57.277 -58.936  1.00  0.00     0.008 A 
HETATM   23  C   UNL     1     -46.451  57.037 -59.525  1.00  0.00     0.001 A 
HETATM   24  C   UNL     1     -46.590  56.036 -60.480  1.00  0.00     0.000 A 
HETATM   25  C   UNL     1     -45.481  55.289 -60.857  1.00  0.00     0.001 A 
HETATM   26  C   UNL     1     -44.236  55.528 -60.265  1.00  0.00     0.008 A 
ENDBRANCH  18  21
ENDBRANCH  17  18
ENDBRANCH   1  17
TORSDOF 6
ENDMDL
MODEL 5
REMARK VINA RESULT:      -7.9      4.379      6.727
REMARK  6 active torsions:
REMARK  status: ('A' for Active; 'I' for Inactive)
REMARK    1  A    between atoms: C_2  and  C_3 
REMARK    2  A    between atoms: C_3  and  C_4 
REMARK    3  A    between atoms: C_3  and  C_10 
REMARK    4  A    between atoms: C_10  and  C_11 
REMARK       I    between atoms: C_11  and  N_12 
REMARK    5  A    between atoms: N_12  and  C_13 
REMARK    6  A    between atoms: C_15  and  C_16 
ROOT
HETATM    1  C   UNL     1     -41.628  55.351 -51.832  1.00  0.00     0.223 C 
HETATM    2  N   UNL     1     -41.740  56.617 -52.365  1.00  0.00    -0.327 N 
HETATM    3  O   UNL     1     -41.504  55.094 -50.635  1.00  0.00    -0.273 OA
HETATM    4  H   UNL     1     -41.747  56.694 -53.372  1.00  0.00     0.169 HD
ENDROOT
BRANCH   2   5
HETATM    5  C   UNL     1     -41.736  57.853 -51.683  1.00  0.00     0.035 A 
HETATM    6  C   UNL     1     -42.888  58.581 -51.369  1.00  0.00     0.042 A 
HETATM    7  C   UNL     1     -42.804  59.813 -50.697  1.00  0.00    -0.021 A 
HETATM    8  C   UNL     1     -41.542  60.301 -50.332  1.00  0.00     0.012 A 
HETATM    9  C   UNL     1     -40.388  59.583 -50.644  1.00  0.00     0.003 A 
HETATM   10  C   UNL     1     -40.486  58.369 -51.322  1.00  0.00     0.029 A 
BRANCH   7  11
HETATM   11  C   UNL     1     -44.015  60.559 -50.392  1.00  0.00     0.010 A 
HETATM   12  C   UNL     1     -45.360  60.132 -50.267  1.00  0.00     0.152 A 
HETATM   13  N   UNL     1     -46.199  61.135 -49.991  1.00  0.00    -0.187 NA
HETATM   14  N   UNL     1     -45.398  62.211 -49.950  1.00  0.00    -0.289 N 
HETATM   15  H   UNL     1     -45.819  63.115 -49.763  1.00  0.00     0.188 HD
HETATM   16  C   UNL     1     -44.085  61.921 -50.182  1.00  0.00     0.123 A 
ENDBRANCH   7  11
ENDBRANCH   2   5
BRANCH   1  17
HETATM   17  C   UNL     1     -41.770  54.197 -52.825  1.00  0.00     0.116 C 
BRANCH  17  18
HETATM   18  C   UNL     1     -40.503  53.648 -53.516  1.00  0.00     0.049 C 
BRANCH  18  19
HETATM   19  C   UNL     1     -40.498  54.100 -54.971  1.00  0.00    -0.027 C 
HETATM   20  C   UNL     1     -41.426  54.819 -55.617  1.00  0.00     0.007 C 
ENDBRANCH  18  19
BRANCH  18  21
HETATM   21  C   UNL     1     -40.131  52.183 -53.247  1.00  0.00    -0.050 A 
HETATM   22  C   UNL     1     -39.788  51.756 -51.951  1.00  0.00     0.008 A 
HETATM   23  C   UNL     1     -39.467  50.421 -51.683  1.00  0.00     0.001 A 
HETATM   24  C   UNL     1     -39.514  49.474 -52.699  1.00  0.00     0.000 A 
HETATM   25  C   UNL     1     -39.897  49.860 -53.978  1.00  0.00     0.001 A 
HETATM   26  C   UNL     1     -40.216  51.195 -54.246  1.00  0.00     0.008 A 
ENDBRANCH  18  21
ENDBRANCH  17  18
ENDBRANCH   1  17
TORSDOF 6
ENDMDL
MODEL 6
REMARK VINA RESULT:      -7.9      1.111      3.150
REMARK  6 active torsions:
REMARK  status: ('A' for Active; 'I' for Inactive)
REMARK    1  A    between atoms: C_2  and  C_3 
REMARK    2  A    between atoms: C_3  and  C_4 
REMARK    3  A    between atoms: C_3  and  C_10 
REMARK    4  A    between atoms: C_10  and  C_11 
REMARK       I    between atoms: C_11  and  N_12 
REMARK    5  A    between atoms: N_12  and  C_13 
REMARK    6  A    between atoms: C_15  and  C_16 
ROOT
HETATM    1  C   UNL     1     -41.690  54.552 -55.362  1.00  0.00     0.223 C 
HETATM    2  N   UNL     1     -41.611  55.803 -55.938  1.00  0.00    -0.327 N 
HETATM    3  O   UNL     1     -42.674  53.815 -55.401  1.00  0.00    -0.273 OA
HETATM    4  H   UNL     1     -40.776  56.341 -55.756  1.00  0.00     0.169 HD
ENDROOT
BRANCH   2   5
HETATM    5  C   UNL     1     -42.604  56.490 -56.669  1.00  0.00     0.035 A 
HETATM    6  C   UNL     1     -43.202  56.000 -57.833  1.00  0.00     0.042 A 
HETATM    7  C   UNL     1     -44.178  56.748 -58.515  1.00  0.00    -0.021 A 
HETATM    8  C   UNL     1     -44.556  57.995 -58.002  1.00  0.00     0.012 A 
HETATM    9  C   UNL     1     -43.963  58.493 -56.842  1.00  0.00     0.003 A 
HETATM   10  C   UNL     1     -42.987  57.746 -56.184  1.00  0.00     0.029 A 
BRANCH   7  11
HETATM   11  C   UNL     1     -44.778  56.224 -59.732  1.00  0.00     0.010 A 
HETATM   12  C   UNL     1     -44.369  55.172 -60.588  1.00  0.00     0.152 A 
HETATM   13  N   UNL     1     -45.188  55.003 -61.631  1.00  0.00    -0.187 NA
HETATM   14  N   UNL     1     -46.119  55.953 -61.454  1.00  0.00    -0.289 N 
HETATM   15  H   UNL     1     -46.860  56.032 -62.142  1.00  0.00     0.188 HD
HETATM   16  C   UNL     1     -45.920  56.709 -60.335  1.00  0.00     0.123 A 
ENDBRANCH   7  11
ENDBRANCH   2   5
BRANCH   1  17
HETATM   17  C   UNL     1     -40.403  54.035 -54.719  1.00  0.00     0.116 C 
BRANCH  17  18
HETATM   18  C   UNL     1     -40.375  53.799 -53.193  1.00  0.00     0.049 C 
BRANCH  18  19
HETATM   19  C   UNL     1     -40.162  52.315 -52.925  1.00  0.00    -0.027 C 
HETATM   20  C   UNL     1     -39.965  51.334 -53.816  1.00  0.00     0.007 C 
ENDBRANCH  18  19
BRANCH  18  21
HETATM   21  C   UNL     1     -41.447  54.506 -52.351  1.00  0.00    -0.050 A 
HETATM   22  C   UNL     1     -42.520  53.781 -51.799  1.00  0.00     0.008 A 
HETATM   23  C   UNL     1     -43.495  54.404 -51.013  1.00  0.00     0.001 A 
HETATM   24  C   UNL     1     -43.401  55.762 -50.731  1.00  0.00     0.000 A 
HETATM   25  C   UNL     1     -42.325  56.492 -51.222  1.00  0.00     0.001 A 
HETATM   26  C   UNL     1     -41.353  55.869 -52.011  1.00  0.00     0.008 A 
ENDBRANCH  18  21
ENDBRANCH  17  18
ENDBRANCH   1  17
TORSDOF 6
ENDMDL
MODEL 7
REMARK VINA RESULT:      -7.8      2.078      2.947
REMARK  6 active torsions:
REMARK  status: ('A' for Active; 'I' for Inactive)
REMARK    1  A    between atoms: C_2  and  C_3 
REMARK    2  A    between atoms: C_3  and  C_4 
REMARK    3  A    between atoms: C_3  and  C_10 
REMARK    4  A    between atoms: C_10  and  C_11 
REMARK       I    between atoms: C_11  and  N_12 
REMARK    5  A    between atoms: N_12  and  C_13 
REMARK    6  A    between atoms: C_15  and  C_16 
ROOT
HETATM    1  C   UNL     1     -42.202  54.796 -55.891  1.00  0.00     0.223 C 
HETATM    2  N   UNL     1     -42.043  55.810 -56.811  1.00  0.00    -0.327 N 
HETATM    3  O   UNL     1     -43.222  54.125 -55.745  1.00  0.00    -0.273 OA
HETATM    4  H   UNL     1     -41.185  56.341 -56.767  1.00  0.00     0.169 HD
ENDROOT
BRANCH   2   5
HETATM    5  C   UNL     1     -42.980  56.287 -57.753  1.00  0.00     0.035 A 
HETATM    6  C   UNL     1     -44.014  57.178 -57.449  1.00  0.00     0.042 A 
HETATM    7  C   UNL     1     -44.919  57.601 -58.439  1.00  0.00    -0.021 A 
HETATM    8  C   UNL     1     -44.761  57.125 -59.747  1.00  0.00     0.012 A 
HETATM    9  C   UNL     1     -43.734  56.235 -60.059  1.00  0.00     0.003 A 
HETATM   10  C   UNL     1     -42.853  55.814 -59.063  1.00  0.00     0.029 A 
BRANCH   7  11
HETATM   11  C   UNL     1     -45.995  58.518 -58.097  1.00  0.00     0.010 A 
HETATM   12  C   UNL     1     -46.014  59.932 -58.008  1.00  0.00     0.152 A 
HETATM   13  N   UNL     1     -47.206  60.412 -57.642  1.00  0.00    -0.187 NA
HETATM   14  N   UNL     1     -47.953  59.309 -57.483  1.00  0.00    -0.289 N 
HETATM   15  H   UNL     1     -48.917  59.421 -57.190  1.00  0.00     0.188 HD
HETATM   16  C   UNL     1     -47.277  58.152 -57.744  1.00  0.00     0.123 A 
ENDBRANCH   7  11
ENDBRANCH   2   5
BRANCH   1  17
HETATM   17  C   UNL     1     -40.960  54.441 -55.072  1.00  0.00     0.116 C 
BRANCH  17  18
HETATM   18  C   UNL     1     -41.144  53.876 -53.646  1.00  0.00     0.049 C 
BRANCH  18  19
HETATM   19  C   UNL     1     -40.802  54.964 -52.636  1.00  0.00    -0.027 C 
HETATM   20  C   UNL     1     -41.570  55.449 -51.651  1.00  0.00     0.007 C 
ENDBRANCH  18  19
BRANCH  18  21
HETATM   21  C   UNL     1     -40.587  52.473 -53.366  1.00  0.00    -0.050 A 
HETATM   22  C   UNL     1     -40.551  51.499 -54.381  1.00  0.00     0.008 A 
HETATM   23  C   UNL     1     -40.028  50.223 -54.150  1.00  0.00     0.001 A 
HETATM   24  C   UNL     1     -39.498  49.900 -52.906  1.00  0.00     0.000 A 
HETATM   25  C   UNL     1     -39.477  50.859 -51.900  1.00  0.00     0.001 A 
HETATM   26  C   UNL     1     -40.002  52.135 -52.132  1.00  0.00     0.008 A 
ENDBRANCH  18  21
ENDBRANCH  17  18
ENDBRANCH   1  17
TORSDOF 6
ENDMDL
MODEL 8
REMARK VINA RESULT:      -7.6      2.868      8.197
REMARK  6 active torsions:
REMARK  status: ('A' for Active; 'I' for Inactive)
REMARK    1  A    between atoms: C_2  and  C_3 
REMARK    2  A    between atoms: C_3  and  C_4 
REMARK    3  A    between atoms: C_3  and  C_10 
REMARK    4  A    between atoms: C_10  and  C_11 
REMARK       I    between atoms: C_11  and  N_12 
REMARK    5  A    between atoms: N_12  and  C_13 
REMARK    6  A    between atoms: C_15  and  C_16 
ROOT
HETATM    1  C   UNL     1     -43.092  55.434 -54.146  1.00  0.00     0.223 C 
HETATM    2  N   UNL     1     -41.850  55.562 -53.562  1.00  0.00    -0.327 N 
HETATM    3  O   UNL     1     -43.873  54.503 -53.954  1.00  0.00    -0.273 OA
HETATM    4  H   UNL     1     -41.272  56.330 -53.874  1.00  0.00     0.169 HD
ENDROOT
BRANCH   2   5
HETATM    5  C   UNL     1     -41.220  54.686 -52.652  1.00  0.00     0.035 A 
HETATM    6  C   UNL     1     -40.847  53.373 -52.955  1.00  0.00     0.042 A 
HETATM    7  C   UNL     1     -40.233  52.554 -51.991  1.00  0.00    -0.021 A 
HETATM    8  C   UNL     1     -39.986  53.079 -50.716  1.00  0.00     0.012 A 
HETATM    9  C   UNL     1     -40.356  54.387 -50.404  1.00  0.00     0.003 A 
HETATM   10  C   UNL     1     -40.976  55.182 -51.366  1.00  0.00     0.029 A 
BRANCH   7  11
HETATM   11  C   UNL     1     -39.866  51.187 -52.325  1.00  0.00     0.010 A 
HETATM   12  C   UNL     1     -39.628  50.572 -53.579  1.00  0.00     0.152 A 
HETATM   13  N   UNL     1     -39.326  49.274 -53.471  1.00  0.00    -0.187 NA
HETATM   14  N   UNL     1     -39.381  49.049 -52.149  1.00  0.00    -0.289 N 
HETATM   15  H   UNL     1     -39.194  48.110 -51.814  1.00  0.00     0.188 HD
HETATM   16  C   UNL     1     -39.698  50.159 -51.420  1.00  0.00     0.123 A 
ENDBRANCH   7  11
ENDBRANCH   2   5
BRANCH   1  17
HETATM   17  C   UNL     1     -43.541  56.607 -55.017  1.00  0.00     0.116 C 
BRANCH  17  18
HETATM   18  C   UNL     1     -42.500  57.309 -55.916  1.00  0.00     0.049 C 
BRANCH  18  19
HETATM   19  C   UNL     1     -42.285  58.729 -55.408  1.00  0.00    -0.027 C 
HETATM   20  C   UNL     1     -41.556  59.130 -54.357  1.00  0.00     0.007 C 
ENDBRANCH  18  19
BRANCH  18  21
HETATM   21  C   UNL     1     -42.646  57.134 -57.434  1.00  0.00    -0.050 A 
HETATM   22  C   UNL     1     -42.396  58.209 -58.308  1.00  0.00     0.008 A 
HETATM   23  C   UNL     1     -42.505  58.063 -59.695  1.00  0.00     0.001 A 
HETATM   24  C   UNL     1     -42.833  56.828 -60.243  1.00  0.00     0.000 A 
HETATM   25  C   UNL     1     -43.037  55.738 -59.405  1.00  0.00     0.001 A 
HETATM   26  C   UNL     1     -42.931  55.886 -58.018  1.00  0.00     0.008 A 
ENDBRANCH  18  21
ENDBRANCH  17  18
ENDBRANCH   1  17
TORSDOF 6
ENDMDL
MODEL 9
REMARK VINA RESULT:      -7.5      2.045      2.693
REMARK  6 active torsions:
REMARK  status: ('A' for Active; 'I' for Inactive)
REMARK    1  A    between atoms: C_2  and  C_3 
REMARK    2  A    between atoms: C_3  and  C_4 
REMARK    3  A    between atoms: C_3  and  C_10 
REMARK    4  A    between atoms: C_10  and  C_11 
REMARK       I    between atoms: C_11  and  N_12 
REMARK    5  A    between atoms: N_12  and  C_13 
REMARK    6  A    between atoms: C_15  and  C_16 
ROOT
HETATM    1  C   UNL     1     -42.876  55.716 -52.243  1.00  0.00     0.223 C 
HETATM    2  N   UNL     1     -43.874  55.665 -53.194  1.00  0.00    -0.327 N 
HETATM    3  O   UNL     1     -41.974  56.551 -52.207  1.00  0.00    -0.273 OA
HETATM    4  H   UNL     1     -44.502  54.875 -53.160  1.00  0.00     0.169 HD
ENDROOT
BRANCH   2   5
HETATM    5  C   UNL     1     -44.072  56.525 -54.295  1.00  0.00     0.035 A 
HETATM    6  C   UNL     1     -43.475  56.348 -55.547  1.00  0.00     0.042 A 
HETATM    7  C   UNL     1     -43.711  57.254 -56.596  1.00  0.00    -0.021 A 
HETATM    8  C   UNL     1     -44.570  58.339 -56.373  1.00  0.00     0.012 A 
HETATM    9  C   UNL     1     -45.168  58.525 -55.126  1.00  0.00     0.003 A 
HETATM   10  C   UNL     1     -44.913  57.625 -54.092  1.00  0.00     0.029 A 
BRANCH   7  11
HETATM   11  C   UNL     1     -43.070  57.058 -57.886  1.00  0.00     0.010 A 
HETATM   12  C   UNL     1     -43.165  55.992 -58.815  1.00  0.00     0.152 A 
HETATM   13  N   UNL     1     -42.396  56.175 -59.893  1.00  0.00    -0.187 NA
HETATM   14  N   UNL     1     -41.795  57.350 -59.654  1.00  0.00    -0.289 N 
HETATM   15  H   UNL     1     -41.140  57.702 -60.343  1.00  0.00     0.188 HD
HETATM   16  C   UNL     1     -42.164  57.920 -58.470  1.00  0.00     0.123 A 
ENDBRANCH   7  11
ENDBRANCH   2   5
BRANCH   1  17
HETATM   17  C   UNL     1     -42.989  54.699 -51.107  1.00  0.00     0.116 C 
BRANCH  17  18
HETATM   18  C   UNL     1     -41.750  53.853 -50.738  1.00  0.00     0.049 C 
BRANCH  18  19
HETATM   19  C   UNL     1     -40.882  54.644 -49.769  1.00  0.00    -0.027 C 
HETATM   20  C   UNL     1     -40.728  54.454 -48.451  1.00  0.00     0.007 C 
ENDBRANCH  18  19
BRANCH  18  21
HETATM   21  C   UNL     1     -41.025  53.129 -51.882  1.00  0.00    -0.050 A 
HETATM   22  C   UNL     1     -40.005  52.198 -51.610  1.00  0.00     0.008 A 
HETATM   23  C   UNL     1     -39.347  51.514 -52.637  1.00  0.00     0.001 A 
HETATM   24  C   UNL     1     -39.718  51.719 -53.961  1.00  0.00     0.000 A 
HETATM   25  C   UNL     1     -40.755  52.596 -54.255  1.00  0.00     0.001 A 
HETATM   26  C   UNL     1     -41.410  53.282 -53.227  1.00  0.00     0.008 A 
ENDBRANCH  18  21
ENDBRANCH  17  18
ENDBRANCH   1  17
TORSDOF 6
ENDMDL
MODEL 10
REMARK VINA RESULT:      -7.5      2.739      9.239
REMARK  6 active torsions:
REMARK  status: ('A' for Active; 'I' for Inactive)
REMARK    1  A    between atoms: C_2  and  C_3 
REMARK    2  A    between atoms: C_3  and  C_4 
REMARK    3  A    between atoms: C_3  and  C_10 
REMARK    4  A    between atoms: C_10  and  C_11 
REMARK       I    between atoms: C_11  and  N_12 
REMARK    5  A    between atoms: N_12  and  C_13 
REMARK    6  A    between atoms: C_15  and  C_16 
ROOT
HETATM    1  C   UNL     1     -42.425  56.057 -55.858  1.00  0.00     0.223 C 
HETATM    2  N   UNL     1     -41.187  55.562 -55.508  1.00  0.00    -0.327 N 
HETATM    3  O   UNL     1     -43.488  55.749 -55.321  1.00  0.00    -0.273 OA
HETATM    4  H   UNL     1     -40.403  55.829 -56.087  1.00  0.00     0.169 HD
ENDROOT
BRANCH   2   5
HETATM    5  C   UNL     1     -40.876  54.627 -54.497  1.00  0.00     0.035 A 
HETATM    6  C   UNL     1     -40.970  54.890 -53.127  1.00  0.00     0.042 A 
HETATM    7  C   UNL     1     -40.631  53.912 -52.177  1.00  0.00    -0.021 A 
HETATM    8  C   UNL     1     -40.206  52.654 -52.623  1.00  0.00     0.012 A 
HETATM    9  C   UNL     1     -40.106  52.382 -53.988  1.00  0.00     0.003 A 
HETATM   10  C   UNL     1     -40.433  53.368 -54.918  1.00  0.00     0.029 A 
BRANCH   7  11
HETATM   11  C   UNL     1     -40.725  54.212 -50.757  1.00  0.00     0.010 A 
HETATM   12  C   UNL     1     -41.128  55.392 -50.084  1.00  0.00     0.152 A 
HETATM   13  N   UNL     1     -41.061  55.279 -48.754  1.00  0.00    -0.187 NA
HETATM   14  N   UNL     1     -40.603  54.032 -48.568  1.00  0.00    -0.289 N 
HETATM   15  H   UNL     1     -40.455  53.712 -47.617  1.00  0.00     0.188 HD
HETATM   16  C   UNL     1     -40.387  53.352 -49.732  1.00  0.00     0.123 A 
ENDBRANCH   7  11
ENDBRANCH   2   5
BRANCH   1  17
HETATM   17  C   UNL     1     -42.427  57.142 -56.935  1.00  0.00     0.116 C 
BRANCH  17  18
HETATM   18  C   UNL     1     -43.351  56.974 -58.160  1.00  0.00     0.049 C 
BRANCH  18  19
HETATM   19  C   UNL     1     -43.302  55.523 -58.623  1.00  0.00    -0.027 C 
HETATM   20  C   UNL     1     -44.158  54.882 -59.430  1.00  0.00     0.007 C 
ENDBRANCH  18  19
BRANCH  18  21
HETATM   21  C   UNL     1     -43.276  58.050 -59.253  1.00  0.00    -0.050 A 
HETATM   22  C   UNL     1     -44.442  58.690 -59.712  1.00  0.00     0.008 A 
HETATM   23  C   UNL     1     -44.391  59.687 -60.692  1.00  0.00     0.001 A 
HETATM   24  C   UNL     1     -43.167  60.091 -61.213  1.00  0.00     0.000 A 
HETATM   25  C   UNL     1     -41.996  59.510 -60.741  1.00  0.00     0.001 A 
HETATM   26  C   UNL     1     -42.048  58.512 -59.764  1.00  0.00     0.008 A 
ENDBRANCH  18  21
ENDBRANCH  17  18
ENDBRANCH   1  17
TORSDOF 6
ENDMDL
