MODEL 1
REMARK VINA RESULT:      -8.4      0.000      0.000
REMARK  7 active torsions:
REMARK  status: ('A' for Active; 'I' for Inactive)
REMARK    1  A    between atoms: C_2  and  C_3 
REMARK       I    between atoms: C_3  and  N_4 
REMARK    2  A    between atoms: N_7  and  C_8 
REMARK    3  A    between atoms: C_9  and  N_10 
REMARK    4  A    between atoms: N_10  and  C_11 
REMARK    5  A    between atoms: C_11  and  N_12 
REMARK       I    between atoms: N_12  and  C_13 
REMARK    6  A    between atoms: C_13  and  C_14 
REMARK    7  A    between atoms: C_15  and  O_16 
ROOT
HETATM    1  C   UNL     1     -42.555  58.026 -54.194  1.00  0.00     0.037 A 
HETATM    2  C   UNL     1     -42.649  57.332 -52.956  1.00  0.00     0.057 A 
HETATM    3  C   UNL     1     -42.118  57.882 -51.786  1.00  0.00     0.055 A 
HETATM    4  C   UNL     1     -41.530  59.142 -51.823  1.00  0.00     0.036 A 
HETATM    5 CL   UNL     1     -40.896  59.830 -50.379  1.00  0.00    -0.084 Cl
HETATM    6  C   UNL     1     -41.440  59.847 -53.021  1.00  0.00     0.026 A 
HETATM    7  C   UNL     1     -41.943  59.288 -54.200  1.00  0.00     0.027 A 
ENDROOT
BRANCH   2   8
HETATM    8  N   UNL     1     -43.214  56.037 -53.001  1.00  0.00    -0.331 N 
HETATM    9  H   UNL     1     -43.657  55.845 -53.897  1.00  0.00     0.168 HD
BRANCH   8  10
HETATM   10  C   UNL     1     -43.158  55.002 -52.135  1.00  0.00     0.179 C 
HETATM   11  S   UNL     1     -44.055  55.070 -50.725  1.00  0.00    -0.040 SA
BRANCH  10  12
HETATM   12  N   UNL     1     -42.353  53.921 -52.339  1.00  0.00    -0.299 N 
HETATM   13  C   UNL     1     -41.186  53.822 -53.092  1.00  0.00     0.260 C 
HETATM   14  O   UNL     1     -40.632  54.729 -53.702  1.00  0.00    -0.267 OA
HETATM   15  H   UNL     1     -42.465  53.201 -51.633  1.00  0.00     0.171 HD
BRANCH  13  16
HETATM   16  C   UNL     1     -40.571  52.471 -53.116  1.00  0.00     0.066 A 
HETATM   17  C   UNL     1     -40.201  51.785 -51.950  1.00  0.00     0.089 A 
HETATM   18  C   UNL     1     -39.707  50.472 -52.021  1.00  0.00    -0.028 A 
HETATM   19  C   UNL     1     -39.331  49.703 -50.787  1.00  0.00     0.051 C 
HETATM   20  C   UNL     1     -39.517  49.891 -53.285  1.00  0.00     0.009 A 
HETATM   21  C   UNL     1     -39.843  50.588 -54.449  1.00  0.00     0.002 A 
HETATM   22  C   UNL     1     -40.371  51.876 -54.367  1.00  0.00     0.020 A 
BRANCH  17  23
HETATM   23  O   UNL     1     -40.370  52.367 -50.716  1.00  0.00    -0.354 OA
HETATM   24  C   UNL     1     -39.362  53.364 -50.502  1.00  0.00     0.210 C 
ENDBRANCH  17  23
ENDBRANCH  13  16
ENDBRANCH  10  12
ENDBRANCH   8  10
ENDBRANCH   2   8
BRANCH   1  25
HETATM   25  N   UNL     1     -43.108  57.432 -55.355  1.00  0.00    -0.278 NA
HETATM   26  C   UNL     1     -42.197  56.641 -56.211  1.00  0.00     0.115 C 
HETATM   27  C   UNL     1     -43.011  55.876 -57.270  1.00  0.00     0.140 C 
HETATM   28  N   UNL     1     -43.937  56.734 -58.027  1.00  0.00    -0.350 N 
HETATM   29  C   UNL     1     -44.353  56.267 -59.272  1.00  0.00     0.219 C 
HETATM   30  C   UNL     1     -44.716  57.686 -57.219  1.00  0.00     0.140 C 
HETATM   31  O   UNL     1     -43.819  55.300 -59.817  1.00  0.00    -0.273 OA
HETATM   32  C   UNL     1     -43.870  58.422 -56.161  1.00  0.00     0.115 C 
BRANCH  29  33
HETATM   33  C   UNL     1     -45.495  57.020 -59.939  1.00  0.00     0.098 C 
HETATM   34  C   UNL     1     -46.586  56.091 -60.447  1.00  0.00     0.014 C 
ENDBRANCH  29  33
ENDBRANCH   1  25
TORSDOF 7
ENDMDL
MODEL 2
REMARK VINA RESULT:      -7.9      2.811      3.533
REMARK  7 active torsions:
REMARK  status: ('A' for Active; 'I' for Inactive)
REMARK    1  A    between atoms: C_2  and  C_3 
REMARK       I    between atoms: C_3  and  N_4 
REMARK    2  A    between atoms: N_7  and  C_8 
REMARK    3  A    between atoms: C_9  and  N_10 
REMARK    4  A    between atoms: N_10  and  C_11 
REMARK    5  A    between atoms: C_11  and  N_12 
REMARK       I    between atoms: N_12  and  C_13 
REMARK    6  A    between atoms: C_13  and  C_14 
REMARK    7  A    between atoms: C_15  and  O_16 
ROOT
HETATM    1  C   UNL     1     -44.511  59.988 -52.479  1.00  0.00     0.037 A 
HETATM    2  C   UNL     1     -44.302  59.528 -51.149  1.00  0.00     0.057 A 
HETATM    3  C   UNL     1     -44.869  60.199 -50.062  1.00  0.00     0.055 A 
HETATM    4  C   UNL     1     -45.685  61.304 -50.286  1.00  0.00     0.036 A 
HETATM    5 CL   UNL     1     -46.403  62.117 -48.950  1.00  0.00    -0.084 Cl
HETATM    6  C   UNL     1     -45.918  61.763 -51.580  1.00  0.00     0.026 A 
HETATM    7  C   UNL     1     -45.327  61.113 -52.668  1.00  0.00     0.027 A 
ENDROOT
BRANCH   2   8
HETATM    8  N   UNL     1     -43.422  58.432 -50.992  1.00  0.00    -0.331 N 
HETATM    9  H   UNL     1     -43.907  57.598 -50.667  1.00  0.00     0.168 HD
BRANCH   8  10
HETATM   10  C   UNL     1     -42.120  58.274 -51.310  1.00  0.00     0.179 C 
HETATM   11  S   UNL     1     -41.022  59.454 -50.862  1.00  0.00    -0.040 SA
BRANCH  10  12
HETATM   12  N   UNL     1     -41.667  57.210 -52.032  1.00  0.00    -0.299 N 
HETATM   13  C   UNL     1     -42.343  56.053 -52.412  1.00  0.00     0.260 C 
HETATM   14  O   UNL     1     -43.517  55.787 -52.188  1.00  0.00    -0.267 OA
HETATM   15  H   UNL     1     -40.847  57.425 -52.590  1.00  0.00     0.171 HD
BRANCH  13  16
HETATM   16  C   UNL     1     -41.528  55.079 -53.182  1.00  0.00     0.066 A 
HETATM   17  C   UNL     1     -41.039  53.889 -52.623  1.00  0.00     0.089 A 
HETATM   18  C   UNL     1     -40.352  52.957 -53.417  1.00  0.00    -0.028 A 
HETATM   19  C   UNL     1     -39.842  51.663 -52.852  1.00  0.00     0.051 C 
HETATM   20  C   UNL     1     -40.094  53.277 -54.760  1.00  0.00     0.009 A 
HETATM   21  C   UNL     1     -40.541  54.480 -55.308  1.00  0.00     0.002 A 
HETATM   22  C   UNL     1     -41.259  55.381 -54.522  1.00  0.00     0.020 A 
BRANCH  17  23
HETATM   23  O   UNL     1     -41.277  53.591 -51.302  1.00  0.00    -0.354 OA
HETATM   24  C   UNL     1     -40.228  54.125 -50.483  1.00  0.00     0.210 C 
ENDBRANCH  17  23
ENDBRANCH  13  16
ENDBRANCH  10  12
ENDBRANCH   8  10
ENDBRANCH   2   8
BRANCH   1  25
HETATM   25  N   UNL     1     -43.917  59.277 -53.550  1.00  0.00    -0.278 NA
HETATM   26  C   UNL     1     -43.056  60.042 -54.477  1.00  0.00     0.115 C 
HETATM   27  C   UNL     1     -42.309  59.075 -55.412  1.00  0.00     0.140 C 
HETATM   28  N   UNL     1     -43.195  58.114 -56.088  1.00  0.00    -0.350 N 
HETATM   29  C   UNL     1     -42.719  57.536 -57.262  1.00  0.00     0.219 C 
HETATM   30  C   UNL     1     -44.210  57.482 -55.229  1.00  0.00     0.140 C 
HETATM   31  O   UNL     1     -41.710  57.954 -57.832  1.00  0.00    -0.273 OA
HETATM   32  C   UNL     1     -44.926  58.479 -54.297  1.00  0.00     0.115 C 
BRANCH  29  33
HETATM   33  C   UNL     1     -43.515  56.365 -57.820  1.00  0.00     0.098 C 
HETATM   34  C   UNL     1     -42.992  55.896 -59.168  1.00  0.00     0.014 C 
ENDBRANCH  29  33
ENDBRANCH   1  25
TORSDOF 7
ENDMDL
MODEL 3
REMARK VINA RESULT:      -7.8      3.176      5.505
REMARK  7 active torsions:
REMARK  status: ('A' for Active; 'I' for Inactive)
REMARK    1  A    between atoms: C_2  and  C_3 
REMARK       I    between atoms: C_3  and  N_4 
REMARK    2  A    between atoms: N_7  and  C_8 
REMARK    3  A    between atoms: C_9  and  N_10 
REMARK    4  A    between atoms: N_10  and  C_11 
REMARK    5  A    between atoms: C_11  and  N_12 
REMARK       I    between atoms: N_12  and  C_13 
REMARK    6  A    between atoms: C_13  and  C_14 
REMARK    7  A    between atoms: C_15  and  O_16 
ROOT
HETATM    1  C   UNL     1     -43.734  57.956 -54.292  1.00  0.00     0.037 A 
HETATM    2  C   UNL     1     -42.754  56.929 -54.395  1.00  0.00     0.057 A 
HETATM    3  C   UNL     1     -42.529  56.274 -55.609  1.00  0.00     0.055 A 
HETATM    4  C   UNL     1     -43.239  56.661 -56.741  1.00  0.00     0.036 A 
HETATM    5 CL   UNL     1     -42.946  55.870 -58.241  1.00  0.00    -0.084 Cl
HETATM    6  C   UNL     1     -44.192  57.674 -56.669  1.00  0.00     0.026 A 
HETATM    7  C   UNL     1     -44.442  58.311 -55.449  1.00  0.00     0.027 A 
ENDROOT
BRANCH   2   8
HETATM    8  N   UNL     1     -42.107  56.554 -53.195  1.00  0.00    -0.331 N 
HETATM    9  H   UNL     1     -41.429  57.251 -52.894  1.00  0.00     0.168 HD
BRANCH   8  10
HETATM   10  C   UNL     1     -42.318  55.527 -52.345  1.00  0.00     0.179 C 
HETATM   11  S   UNL     1     -43.275  55.769 -50.995  1.00  0.00    -0.040 SA
BRANCH  10  12
HETATM   12  N   UNL     1     -41.735  54.306 -52.514  1.00  0.00    -0.299 N 
HETATM   13  C   UNL     1     -40.723  53.927 -53.393  1.00  0.00     0.260 C 
HETATM   14  O   UNL     1     -40.128  54.656 -54.178  1.00  0.00    -0.267 OA
HETATM   15  H   UNL     1     -41.855  53.691 -51.716  1.00  0.00     0.171 HD
BRANCH  13  16
HETATM   16  C   UNL     1     -40.343  52.494 -53.328  1.00  0.00     0.066 A 
HETATM   17  C   UNL     1     -39.826  51.898 -52.167  1.00  0.00     0.089 A 
HETATM   18  C   UNL     1     -39.567  50.518 -52.128  1.00  0.00    -0.028 A 
HETATM   19  C   UNL     1     -39.040  49.850 -50.892  1.00  0.00     0.051 C 
HETATM   20  C   UNL     1     -39.760  49.764 -53.296  1.00  0.00     0.009 A 
HETATM   21  C   UNL     1     -40.233  50.362 -54.466  1.00  0.00     0.002 A 
HETATM   22  C   UNL     1     -40.526  51.725 -54.483  1.00  0.00     0.020 A 
BRANCH  17  23
HETATM   23  O   UNL     1     -39.619  52.647 -51.033  1.00  0.00    -0.354 OA
HETATM   24  C   UNL     1     -40.659  52.392 -50.080  1.00  0.00     0.210 C 
ENDBRANCH  17  23
ENDBRANCH  13  16
ENDBRANCH  10  12
ENDBRANCH   8  10
ENDBRANCH   2   8
BRANCH   1  25
HETATM   25  N   UNL     1     -43.928  58.593 -53.042  1.00  0.00    -0.278 NA
HETATM   26  C   UNL     1     -45.287  58.542 -52.459  1.00  0.00     0.115 C 
HETATM   27  C   UNL     1     -45.251  59.058 -51.010  1.00  0.00     0.140 C 
HETATM   28  N   UNL     1     -44.599  60.371 -50.873  1.00  0.00    -0.350 N 
HETATM   29  C   UNL     1     -44.919  61.118 -49.742  1.00  0.00     0.219 C 
HETATM   30  C   UNL     1     -43.337  60.527 -51.615  1.00  0.00     0.140 C 
HETATM   31  O   UNL     1     -45.854  60.812 -49.001  1.00  0.00    -0.273 OA
HETATM   32  C   UNL     1     -43.407  59.986 -53.057  1.00  0.00     0.115 C 
BRANCH  29  33
HETATM   33  C   UNL     1     -44.064  62.348 -49.470  1.00  0.00     0.098 C 
HETATM   34  C   UNL     1     -44.833  63.645 -49.667  1.00  0.00     0.014 C 
ENDBRANCH  29  33
ENDBRANCH   1  25
TORSDOF 7
ENDMDL
MODEL 4
REMARK VINA RESULT:      -7.8      3.000      6.725
REMARK  7 active torsions:
REMARK  status: ('A' for Active; 'I' for Inactive)
REMARK    1  A    between atoms: C_2  and  C_3 
REMARK       I    between atoms: C_3  and  N_4 
REMARK    2  A    between atoms: N_7  and  C_8 
REMARK    3  A    between atoms: C_9  and  N_10 
REMARK    4  A    between atoms: N_10  and  C_11 
REMARK    5  A    between atoms: C_11  and  N_12 
REMARK       I    between atoms: N_12  and  C_13 
REMARK    6  A    between atoms: C_13  and  C_14 
REMARK    7  A    between atoms: C_15  and  O_16 
ROOT
HETATM    1  C   UNL     1     -41.042  53.518 -53.364  1.00  0.00     0.037 A 
HETATM    2  C   UNL     1     -41.222  53.415 -51.956  1.00  0.00     0.057 A 
HETATM    3  C   UNL     1     -40.630  52.376 -51.234  1.00  0.00     0.055 A 
HETATM    4  C   UNL     1     -39.817  51.457 -51.891  1.00  0.00     0.036 A 
HETATM    5 CL   UNL     1     -39.068  50.191 -50.998  1.00  0.00    -0.084 Cl
HETATM    6  C   UNL     1     -39.613  51.547 -53.265  1.00  0.00     0.026 A 
HETATM    7  C   UNL     1     -40.229  52.567 -53.997  1.00  0.00     0.027 A 
ENDROOT
BRANCH   2   8
HETATM    8  N   UNL     1     -42.100  54.352 -51.363  1.00  0.00    -0.331 N 
HETATM    9  H   UNL     1     -43.064  54.209 -51.656  1.00  0.00     0.168 HD
BRANCH   8  10
HETATM   10  C   UNL     1     -41.902  55.288 -50.411  1.00  0.00     0.179 C 
HETATM   11  S   UNL     1     -41.072  54.873 -49.019  1.00  0.00    -0.040 SA
BRANCH  10  12
HETATM   12  N   UNL     1     -42.401  56.553 -50.514  1.00  0.00    -0.299 N 
HETATM   13  C   UNL     1     -41.807  57.692 -51.052  1.00  0.00     0.260 C 
HETATM   14  O   UNL     1     -40.702  57.759 -51.578  1.00  0.00    -0.267 OA
HETATM   15  H   UNL     1     -43.413  56.589 -50.457  1.00  0.00     0.171 HD
BRANCH  13  16
HETATM   16  C   UNL     1     -42.635  58.922 -50.978  1.00  0.00     0.066 A 
HETATM   17  C   UNL     1     -44.006  58.932 -51.272  1.00  0.00     0.089 A 
HETATM   18  C   UNL     1     -44.765  60.102 -51.100  1.00  0.00    -0.028 A 
HETATM   19  C   UNL     1     -46.239  60.134 -51.380  1.00  0.00     0.051 C 
HETATM   20  C   UNL     1     -44.108  61.278 -50.705  1.00  0.00     0.009 A 
HETATM   21  C   UNL     1     -42.734  61.281 -50.454  1.00  0.00     0.002 A 
HETATM   22  C   UNL     1     -41.997  60.106 -50.588  1.00  0.00     0.020 A 
BRANCH  17  23
HETATM   23  O   UNL     1     -44.640  57.781 -51.680  1.00  0.00    -0.354 OA
HETATM   24  C   UNL     1     -44.639  57.702 -53.111  1.00  0.00     0.210 C 
ENDBRANCH  17  23
ENDBRANCH  13  16
ENDBRANCH  10  12
ENDBRANCH   8  10
ENDBRANCH   2   8
BRANCH   1  25
HETATM   25  N   UNL     1     -41.661  54.588 -54.056  1.00  0.00    -0.278 NA
HETATM   26  C   UNL     1     -42.439  54.251 -55.268  1.00  0.00     0.115 C 
HETATM   27  C   UNL     1     -43.233  55.483 -55.736  1.00  0.00     0.140 C 
HETATM   28  N   UNL     1     -42.405  56.691 -55.883  1.00  0.00    -0.350 N 
HETATM   29  C   UNL     1     -42.894  57.693 -56.718  1.00  0.00     0.219 C 
HETATM   30  C   UNL     1     -41.463  56.946 -54.780  1.00  0.00     0.140 C 
HETATM   31  O   UNL     1     -43.853  57.506 -57.467  1.00  0.00    -0.273 OA
HETATM   32  C   UNL     1     -40.697  55.687 -54.330  1.00  0.00     0.115 C 
BRANCH  29  33
HETATM   33  C   UNL     1     -42.175  59.033 -56.673  1.00  0.00     0.098 C 
HETATM   34  C   UNL     1     -42.047  59.671 -58.048  1.00  0.00     0.014 C 
ENDBRANCH  29  33
ENDBRANCH   1  25
TORSDOF 7
ENDMDL
MODEL 5
REMARK VINA RESULT:      -7.7      3.555      8.036
REMARK  7 active torsions:
REMARK  status: ('A' for Active; 'I' for Inactive)
REMARK    1  A    between atoms: C_2  and  C_3 
REMARK       I    between atoms: C_3  and  N_4 
REMARK    2  A    between atoms: N_7  and  C_8 
REMARK    3  A    between atoms: C_9  and  N_10 
REMARK    4  A    between atoms: N_10  and  C_11 
REMARK    5  A    between atoms: C_11  and  N_12 
REMARK       I    between atoms: N_12  and  C_13 
REMARK    6  A    between atoms: C_13  and  C_14 
REMARK    7  A    between atoms: C_15  and  O_16 
ROOT
HETATM    1  C   UNL     1     -40.968  54.615 -52.770  1.00  0.00     0.037 A 
HETATM    2  C   UNL     1     -40.712  54.209 -54.109  1.00  0.00     0.057 A 
HETATM    3  C   UNL     1     -40.225  52.930 -54.388  1.00  0.00     0.055 A 
HETATM    4  C   UNL     1     -40.030  52.026 -53.348  1.00  0.00     0.036 A 
HETATM    5 CL   UNL     1     -39.452  50.442 -53.692  1.00  0.00    -0.084 Cl
HETATM    6  C   UNL     1     -40.289  52.395 -52.031  1.00  0.00     0.026 A 
HETATM    7  C   UNL     1     -40.747  53.685 -51.744  1.00  0.00     0.027 A 
ENDROOT
BRANCH   2   8
HETATM    8  N   UNL     1     -40.884  55.194 -55.110  1.00  0.00    -0.331 N 
HETATM    9  H   UNL     1     -40.023  55.705 -55.293  1.00  0.00     0.168 HD
BRANCH   8  10
HETATM   10  C   UNL     1     -41.924  55.474 -55.923  1.00  0.00     0.179 C 
HETATM   11  S   UNL     1     -43.234  54.434 -55.960  1.00  0.00    -0.040 SA
BRANCH  10  12
HETATM   12  N   UNL     1     -41.928  56.551 -56.760  1.00  0.00    -0.299 N 
HETATM   13  C   UNL     1     -42.868  57.571 -56.877  1.00  0.00     0.260 C 
HETATM   14  O   UNL     1     -43.881  57.711 -56.203  1.00  0.00    -0.267 OA
HETATM   15  H   UNL     1     -41.008  56.777 -57.125  1.00  0.00     0.171 HD
BRANCH  13  16
HETATM   16  C   UNL     1     -42.566  58.582 -57.922  1.00  0.00     0.066 A 
HETATM   17  C   UNL     1     -41.923  59.797 -57.639  1.00  0.00     0.089 A 
HETATM   18  C   UNL     1     -41.578  60.679 -58.675  1.00  0.00    -0.028 A 
HETATM   19  C   UNL     1     -40.865  61.973 -58.405  1.00  0.00     0.051 C 
HETATM   20  C   UNL     1     -41.959  60.359 -59.988  1.00  0.00     0.009 A 
HETATM   21  C   UNL     1     -42.638  59.171 -60.267  1.00  0.00     0.002 A 
HETATM   22  C   UNL     1     -42.940  58.282 -59.237  1.00  0.00     0.020 A 
BRANCH  17  23
HETATM   23  O   UNL     1     -41.572  60.115 -56.348  1.00  0.00    -0.354 OA
HETATM   24  C   UNL     1     -42.627  60.854 -55.720  1.00  0.00     0.210 C 
ENDBRANCH  17  23
ENDBRANCH  13  16
ENDBRANCH  10  12
ENDBRANCH   8  10
ENDBRANCH   2   8
BRANCH   1  25
HETATM   25  N   UNL     1     -41.462  55.922 -52.534  1.00  0.00    -0.278 NA
HETATM   26  C   UNL     1     -40.905  56.659 -51.379  1.00  0.00     0.115 C 
HETATM   27  C   UNL     1     -41.365  58.126 -51.427  1.00  0.00     0.140 C 
HETATM   28  N   UNL     1     -42.822  58.277 -51.575  1.00  0.00    -0.350 N 
HETATM   29  C   UNL     1     -43.375  59.488 -51.167  1.00  0.00     0.219 C 
HETATM   30  C   UNL     1     -43.446  57.401 -52.581  1.00  0.00     0.140 C 
HETATM   31  O   UNL     1     -42.731  60.313 -50.517  1.00  0.00    -0.273 OA
HETATM   32  C   UNL     1     -42.949  55.944 -52.511  1.00  0.00     0.115 C 
BRANCH  29  33
HETATM   33  C   UNL     1     -44.826  59.742 -51.551  1.00  0.00     0.098 C 
HETATM   34  C   UNL     1     -45.797  59.330 -50.456  1.00  0.00     0.014 C 
ENDBRANCH  29  33
ENDBRANCH   1  25
TORSDOF 7
ENDMDL
MODEL 6
REMARK VINA RESULT:      -7.5      2.099      3.128
REMARK  7 active torsions:
REMARK  status: ('A' for Active; 'I' for Inactive)
REMARK    1  A    between atoms: C_2  and  C_3 
REMARK       I    between atoms: C_3  and  N_4 
REMARK    2  A    between atoms: N_7  and  C_8 
REMARK    3  A    between atoms: C_9  and  N_10 
REMARK    4  A    between atoms: N_10  and  C_11 
REMARK    5  A    between atoms: C_11  and  N_12 
REMARK       I    between atoms: N_12  and  C_13 
REMARK    6  A    between atoms: C_13  and  C_14 
REMARK    7  A    between atoms: C_15  and  O_16 
ROOT
HETATM    1  C   UNL     1     -42.872  60.205 -55.448  1.00  0.00     0.037 A 
HETATM    2  C   UNL     1     -42.706  59.947 -54.059  1.00  0.00     0.057 A 
HETATM    3  C   UNL     1     -42.827  60.977 -53.121  1.00  0.00     0.055 A 
HETATM    4  C   UNL     1     -43.157  62.259 -53.547  1.00  0.00     0.036 A 
HETATM    5 CL   UNL     1     -43.329  63.523 -52.391  1.00  0.00    -0.084 Cl
HETATM    6  C   UNL     1     -43.341  62.532 -54.900  1.00  0.00     0.026 A 
HETATM    7  C   UNL     1     -43.191  61.512 -55.844  1.00  0.00     0.027 A 
ENDROOT
BRANCH   2   8
HETATM    8  N   UNL     1     -42.322  58.634 -53.702  1.00  0.00    -0.331 N 
HETATM    9  H   UNL     1     -41.322  58.484 -53.822  1.00  0.00     0.168 HD
BRANCH   8  10
HETATM   10  C   UNL     1     -43.009  57.622 -53.131  1.00  0.00     0.179 C 
HETATM   11  S   UNL     1     -44.640  57.820 -52.816  1.00  0.00    -0.040 SA
BRANCH  10  12
HETATM   12  N   UNL     1     -42.413  56.457 -52.750  1.00  0.00    -0.299 N 
HETATM   13  C   UNL     1     -41.414  56.248 -51.803  1.00  0.00     0.260 C 
HETATM   14  O   UNL     1     -40.894  57.099 -51.091  1.00  0.00    -0.267 OA
HETATM   15  H   UNL     1     -42.963  55.634 -52.974  1.00  0.00     0.171 HD
BRANCH  13  16
HETATM   16  C   UNL     1     -40.976  54.837 -51.657  1.00  0.00     0.066 A 
HETATM   17  C   UNL     1     -40.672  54.020 -52.756  1.00  0.00     0.089 A 
HETATM   18  C   UNL     1     -40.175  52.720 -52.563  1.00  0.00    -0.028 A 
HETATM   19  C   UNL     1     -39.813  51.834 -53.720  1.00  0.00     0.051 C 
HETATM   20  C   UNL     1     -40.065  52.229 -51.252  1.00  0.00     0.009 A 
HETATM   21  C   UNL     1     -40.410  53.025 -50.158  1.00  0.00     0.002 A 
HETATM   22  C   UNL     1     -40.863  54.328 -50.358  1.00  0.00     0.020 A 
BRANCH  17  23
HETATM   23  O   UNL     1     -40.801  54.499 -54.038  1.00  0.00    -0.354 OA
HETATM   24  C   UNL     1     -41.970  53.943 -54.654  1.00  0.00     0.210 C 
ENDBRANCH  17  23
ENDBRANCH  13  16
ENDBRANCH  10  12
ENDBRANCH   8  10
ENDBRANCH   2   8
BRANCH   1  25
HETATM   25  N   UNL     1     -42.742  59.131 -56.362  1.00  0.00    -0.278 NA
HETATM   26  C   UNL     1     -42.081  59.418 -57.654  1.00  0.00     0.115 C 
HETATM   27  C   UNL     1     -41.807  58.101 -58.403  1.00  0.00     0.140 C 
HETATM   28  N   UNL     1     -42.995  57.241 -58.526  1.00  0.00    -0.350 N 
HETATM   29  C   UNL     1     -42.984  56.295 -59.547  1.00  0.00     0.219 C 
HETATM   30  C   UNL     1     -43.798  57.099 -57.300  1.00  0.00     0.140 C 
HETATM   31  O   UNL     1     -42.135  56.308 -60.440  1.00  0.00    -0.273 OA
HETATM   32  C   UNL     1     -44.040  58.436 -56.572  1.00  0.00     0.115 C 
BRANCH  29  33
HETATM   33  C   UNL     1     -44.086  55.245 -59.520  1.00  0.00     0.098 C 
HETATM   34  C   UNL     1     -44.895  55.218 -60.807  1.00  0.00     0.014 C 
ENDBRANCH  29  33
ENDBRANCH   1  25
TORSDOF 7
ENDMDL
MODEL 7
REMARK VINA RESULT:      -7.4      2.379      3.060
REMARK  7 active torsions:
REMARK  status: ('A' for Active; 'I' for Inactive)
REMARK    1  A    between atoms: C_2  and  C_3 
REMARK       I    between atoms: C_3  and  N_4 
REMARK    2  A    between atoms: N_7  and  C_8 
REMARK    3  A    between atoms: C_9  and  N_10 
REMARK    4  A    between atoms: N_10  and  C_11 
REMARK    5  A    between atoms: C_11  and  N_12 
REMARK       I    between atoms: N_12  and  C_13 
REMARK    6  A    between atoms: C_13  and  C_14 
REMARK    7  A    between atoms: C_15  and  O_16 
ROOT
HETATM    1  C   UNL     1     -44.162  59.571 -53.484  1.00  0.00     0.037 A 
HETATM    2  C   UNL     1     -43.958  58.804 -52.304  1.00  0.00     0.057 A 
HETATM    3  C   UNL     1     -44.395  59.272 -51.062  1.00  0.00     0.055 A 
HETATM    4  C   UNL     1     -45.078  60.482 -50.984  1.00  0.00     0.036 A 
HETATM    5 CL   UNL     1     -45.637  61.048 -49.459  1.00  0.00    -0.084 Cl
HETATM    6  C   UNL     1     -45.304  61.243 -52.128  1.00  0.00     0.026 A 
HETATM    7  C   UNL     1     -44.841  60.793 -53.369  1.00  0.00     0.027 A 
ENDROOT
BRANCH   2   8
HETATM    8  N   UNL     1     -43.214  57.610 -52.449  1.00  0.00    -0.331 N 
HETATM    9  H   UNL     1     -43.766  56.866 -52.870  1.00  0.00     0.168 HD
BRANCH   8  10
HETATM   10  C   UNL     1     -41.907  57.337 -52.248  1.00  0.00     0.179 C 
HETATM   11  S   UNL     1     -40.816  58.601 -52.154  1.00  0.00    -0.040 SA
BRANCH  10  12
HETATM   12  N   UNL     1     -41.430  56.062 -52.171  1.00  0.00    -0.299 N 
HETATM   13  C   UNL     1     -42.087  54.860 -52.421  1.00  0.00     0.260 C 
HETATM   14  O   UNL     1     -43.244  54.725 -52.801  1.00  0.00    -0.267 OA
HETATM   15  H   UNL     1     -40.418  56.011 -52.220  1.00  0.00     0.171 HD
BRANCH  13  16
HETATM   16  C   UNL     1     -41.262  53.643 -52.213  1.00  0.00     0.066 A 
HETATM   17  C   UNL     1     -40.806  52.845 -53.273  1.00  0.00     0.089 A 
HETATM   18  C   UNL     1     -39.952  51.756 -53.031  1.00  0.00    -0.028 A 
HETATM   19  C   UNL     1     -39.427  50.903 -54.149  1.00  0.00     0.051 C 
HETATM   20  C   UNL     1     -39.631  51.435 -51.703  1.00  0.00     0.009 A 
HETATM   21  C   UNL     1     -40.119  52.201 -50.643  1.00  0.00     0.002 A 
HETATM   22  C   UNL     1     -40.932  53.305 -50.895  1.00  0.00     0.020 A 
BRANCH  17  23
HETATM   23  O   UNL     1     -41.142  53.153 -54.571  1.00  0.00    -0.354 OA
HETATM   24  C   UNL     1     -40.198  54.084 -55.114  1.00  0.00     0.210 C 
ENDBRANCH  17  23
ENDBRANCH  13  16
ENDBRANCH  10  12
ENDBRANCH   8  10
ENDBRANCH   2   8
BRANCH   1  25
HETATM   25  N   UNL     1     -43.703  59.057 -54.722  1.00  0.00    -0.278 NA
HETATM   26  C   UNL     1     -42.830  59.930 -55.536  1.00  0.00     0.115 C 
HETATM   27  C   UNL     1     -42.234  59.126 -56.705  1.00  0.00     0.140 C 
HETATM   28  N   UNL     1     -43.247  58.405 -57.493  1.00  0.00    -0.350 N 
HETATM   29  C   UNL     1     -42.898  58.051 -58.794  1.00  0.00     0.219 C 
HETATM   30  C   UNL     1     -44.264  57.688 -56.706  1.00  0.00     0.140 C 
HETATM   31  O   UNL     1     -41.890  58.498 -59.343  1.00  0.00    -0.273 OA
HETATM   32  C   UNL     1     -44.826  58.520 -55.536  1.00  0.00     0.115 C 
BRANCH  29  33
HETATM   33  C   UNL     1     -43.834  57.093 -59.518  1.00  0.00     0.098 C 
HETATM   34  C   UNL     1     -43.201  55.732 -59.757  1.00  0.00     0.014 C 
ENDBRANCH  29  33
ENDBRANCH   1  25
TORSDOF 7
ENDMDL
MODEL 8
REMARK VINA RESULT:      -7.4      2.812      6.563
REMARK  7 active torsions:
REMARK  status: ('A' for Active; 'I' for Inactive)
REMARK    1  A    between atoms: C_2  and  C_3 
REMARK       I    between atoms: C_3  and  N_4 
REMARK    2  A    between atoms: N_7  and  C_8 
REMARK    3  A    between atoms: C_9  and  N_10 
REMARK    4  A    between atoms: N_10  and  C_11 
REMARK    5  A    between atoms: C_11  and  N_12 
REMARK       I    between atoms: N_12  and  C_13 
REMARK    6  A    between atoms: C_13  and  C_14 
REMARK    7  A    between atoms: C_15  and  O_16 
ROOT
HETATM    1  C   UNL     1     -41.440  53.836 -53.703  1.00  0.00     0.037 A 
HETATM    2  C   UNL     1     -40.818  53.954 -52.429  1.00  0.00     0.057 A 
HETATM    3  C   UNL     1     -40.116  52.880 -51.874  1.00  0.00     0.055 A 
HETATM    4  C   UNL     1     -39.986  51.697 -52.595  1.00  0.00     0.036 A 
HETATM    5 CL   UNL     1     -39.102  50.382 -51.923  1.00  0.00    -0.084 Cl
HETATM    6  C   UNL     1     -40.573  51.564 -53.850  1.00  0.00     0.026 A 
HETATM    7  C   UNL     1     -41.302  52.625 -54.397  1.00  0.00     0.027 A 
ENDROOT
BRANCH   2   8
HETATM    8  N   UNL     1     -41.033  55.165 -51.732  1.00  0.00    -0.331 N 
HETATM    9  H   UNL     1     -40.177  55.709 -51.641  1.00  0.00     0.168 HD
BRANCH   8  10
HETATM   10  C   UNL     1     -42.163  55.760 -51.294  1.00  0.00     0.179 C 
HETATM   11  S   UNL     1     -43.267  54.865 -50.413  1.00  0.00    -0.040 SA
BRANCH  10  12
HETATM   12  N   UNL     1     -42.467  57.056 -51.588  1.00  0.00    -0.299 N 
HETATM   13  C   UNL     1     -41.769  57.968 -52.376  1.00  0.00     0.260 C 
HETATM   14  O   UNL     1     -40.735  57.754 -52.997  1.00  0.00    -0.267 OA
HETATM   15  H   UNL     1     -43.449  57.276 -51.454  1.00  0.00     0.171 HD
BRANCH  13  16
HETATM   16  C   UNL     1     -42.383  59.317 -52.462  1.00  0.00     0.066 A 
HETATM   17  C   UNL     1     -42.431  60.200 -51.373  1.00  0.00     0.089 A 
HETATM   18  C   UNL     1     -42.940  61.499 -51.529  1.00  0.00    -0.028 A 
HETATM   19  C   UNL     1     -42.978  62.474 -50.388  1.00  0.00     0.051 C 
HETATM   20  C   UNL     1     -43.472  61.868 -52.775  1.00  0.00     0.009 A 
HETATM   21  C   UNL     1     -43.466  60.977 -53.849  1.00  0.00     0.002 A 
HETATM   22  C   UNL     1     -42.921  59.703 -53.695  1.00  0.00     0.020 A 
BRANCH  17  23
HETATM   23  O   UNL     1     -41.927  59.825 -50.149  1.00  0.00    -0.354 OA
HETATM   24  C   UNL     1     -40.495  59.888 -50.168  1.00  0.00     0.210 C 
ENDBRANCH  17  23
ENDBRANCH  13  16
ENDBRANCH  10  12
ENDBRANCH   8  10
ENDBRANCH   2   8
BRANCH   1  25
HETATM   25  N   UNL     1     -42.140  54.950 -54.227  1.00  0.00    -0.278 NA
HETATM   26  C   UNL     1     -43.617  54.866 -54.265  1.00  0.00     0.115 C 
HETATM   27  C   UNL     1     -44.208  56.241 -54.624  1.00  0.00     0.140 C 
HETATM   28  N   UNL     1     -43.619  56.831 -55.837  1.00  0.00    -0.350 N 
HETATM   29  C   UNL     1     -44.373  57.799 -56.496  1.00  0.00     0.219 C 
HETATM   30  C   UNL     1     -42.152  56.746 -55.930  1.00  0.00     0.140 C 
HETATM   31  O   UNL     1     -45.555  58.005 -56.219  1.00  0.00    -0.273 OA
HETATM   32  C   UNL     1     -41.597  55.359 -55.550  1.00  0.00     0.115 C 
BRANCH  29  33
HETATM   33  C   UNL     1     -43.668  58.586 -57.592  1.00  0.00     0.098 C 
HETATM   34  C   UNL     1     -44.157  58.211 -58.982  1.00  0.00     0.014 C 
ENDBRANCH  29  33
ENDBRANCH   1  25
TORSDOF 7
ENDMDL
MODEL 9
REMARK VINA RESULT:      -7.4      3.403      8.063
REMARK  7 active torsions:
REMARK  status: ('A' for Active; 'I' for Inactive)
REMARK    1  A    between atoms: C_2  and  C_3 
REMARK       I    between atoms: C_3  and  N_4 
REMARK    2  A    between atoms: N_7  and  C_8 
REMARK    3  A    between atoms: C_9  and  N_10 
REMARK    4  A    between atoms: N_10  and  C_11 
REMARK    5  A    between atoms: C_11  and  N_12 
REMARK       I    between atoms: N_12  and  C_13 
REMARK    6  A    between atoms: C_13  and  C_14 
REMARK    7  A    between atoms: C_15  and  O_16 
ROOT
HETATM    1  C   UNL     1     -41.428  55.049 -52.406  1.00  0.00     0.037 A 
HETATM    2  C   UNL     1     -40.987  54.678 -53.707  1.00  0.00     0.057 A 
HETATM    3  C   UNL     1     -40.322  53.467 -53.919  1.00  0.00     0.055 A 
HETATM    4  C   UNL     1     -40.130  52.593 -52.853  1.00  0.00     0.036 A 
HETATM    5 CL   UNL     1     -39.332  51.091 -53.117  1.00  0.00    -0.084 Cl
HETATM    6  C   UNL     1     -40.566  52.928 -51.574  1.00  0.00     0.026 A 
HETATM    7  C   UNL     1     -41.204  54.152 -51.352  1.00  0.00     0.027 A 
ENDROOT
BRANCH   2   8
HETATM    8  N   UNL     1     -41.172  55.635 -54.732  1.00  0.00    -0.331 N 
HETATM    9  H   UNL     1     -40.396  56.293 -54.783  1.00  0.00     0.168 HD
BRANCH   8  10
HETATM   10  C   UNL     1     -42.106  55.744 -55.700  1.00  0.00     0.179 C 
HETATM   11  S   UNL     1     -43.212  54.507 -55.909  1.00  0.00    -0.040 SA
BRANCH  10  12
HETATM   12  N   UNL     1     -42.152  56.805 -56.555  1.00  0.00    -0.299 N 
HETATM   13  C   UNL     1     -42.384  58.150 -56.278  1.00  0.00     0.260 C 
HETATM   14  O   UNL     1     -42.561  58.647 -55.173  1.00  0.00    -0.267 OA
HETATM   15  H   UNL     1     -41.681  56.629 -57.437  1.00  0.00     0.171 HD
BRANCH  13  16
HETATM   16  C   UNL     1     -42.389  59.040 -57.466  1.00  0.00     0.066 A 
HETATM   17  C   UNL     1     -43.154  58.773 -58.612  1.00  0.00     0.089 A 
HETATM   18  C   UNL     1     -43.195  59.693 -59.673  1.00  0.00    -0.028 A 
HETATM   19  C   UNL     1     -44.027  59.446 -60.898  1.00  0.00     0.051 C 
HETATM   20  C   UNL     1     -42.394  60.843 -59.598  1.00  0.00     0.009 A 
HETATM   21  C   UNL     1     -41.597  61.090 -58.478  1.00  0.00     0.002 A 
HETATM   22  C   UNL     1     -41.595  60.192 -57.412  1.00  0.00     0.020 A 
BRANCH  17  23
HETATM   23  O   UNL     1     -43.919  57.634 -58.688  1.00  0.00    -0.354 OA
HETATM   24  C   UNL     1     -45.233  57.891 -58.176  1.00  0.00     0.210 C 
ENDBRANCH  17  23
ENDBRANCH  13  16
ENDBRANCH  10  12
ENDBRANCH   8  10
ENDBRANCH   2   8
BRANCH   1  25
HETATM   25  N   UNL     1     -42.098  56.286 -52.238  1.00  0.00    -0.278 NA
HETATM   26  C   UNL     1     -41.525  57.240 -51.263  1.00  0.00     0.115 C 
HETATM   27  C   UNL     1     -42.226  58.603 -51.395  1.00  0.00     0.140 C 
HETATM   28  N   UNL     1     -43.694  58.513 -51.340  1.00  0.00    -0.350 N 
HETATM   29  C   UNL     1     -44.384  59.670 -50.985  1.00  0.00     0.219 C 
HETATM   30  C   UNL     1     -44.289  57.433 -52.145  1.00  0.00     0.140 C 
HETATM   31  O   UNL     1     -43.807  60.658 -50.527  1.00  0.00    -0.273 OA
HETATM   32  C   UNL     1     -43.552  56.087 -51.997  1.00  0.00     0.115 C 
BRANCH  29  33
HETATM   33  C   UNL     1     -45.894  59.652 -51.173  1.00  0.00     0.098 C 
HETATM   34  C   UNL     1     -46.373  60.726 -52.136  1.00  0.00     0.014 C 
ENDBRANCH  29  33
ENDBRANCH   1  25
TORSDOF 7
ENDMDL
MODEL 10
REMARK VINA RESULT:      -7.2      3.250      7.098
REMARK  7 active torsions:
REMARK  status: ('A' for Active; 'I' for Inactive)
REMARK    1  A    between atoms: C_2  and  C_3 
REMARK       I    between atoms: C_3  and  N_4 
REMARK    2  A    between atoms: N_7  and  C_8 
REMARK    3  A    between atoms: C_9  and  N_10 
REMARK    4  A    between atoms: N_10  and  C_11 
REMARK    5  A    between atoms: C_11  and  N_12 
REMARK       I    between atoms: N_12  and  C_13 
REMARK    6  A    between atoms: C_13  and  C_14 
REMARK    7  A    between atoms: C_15  and  O_16 
ROOT
HETATM    1  C   UNL     1     -41.684  56.119 -51.689  1.00  0.00     0.037 A 
HETATM    2  C   UNL     1     -41.720  54.930 -52.470  1.00  0.00     0.057 A 
HETATM    3  C   UNL     1     -41.290  53.712 -51.939  1.00  0.00     0.055 A 
HETATM    4  C   UNL     1     -40.863  53.651 -50.616  1.00  0.00     0.036 A 
HETATM    5 CL   UNL     1     -40.354  52.146 -49.953  1.00  0.00    -0.084 Cl
HETATM    6  C   UNL     1     -40.834  54.797 -49.827  1.00  0.00     0.026 A 
HETATM    7  C   UNL     1     -41.235  56.025 -50.364  1.00  0.00     0.027 A 
ENDROOT
BRANCH   2   8
HETATM    8  N   UNL     1     -42.117  55.075 -53.820  1.00  0.00    -0.331 N 
HETATM    9  H   UNL     1     -43.056  55.460 -53.901  1.00  0.00     0.168 HD
BRANCH   8  10
HETATM   10  C   UNL     1     -41.441  54.915 -54.977  1.00  0.00     0.179 C 
HETATM   11  S   UNL     1     -40.098  53.917 -55.004  1.00  0.00    -0.040 SA
BRANCH  10  12
HETATM   12  N   UNL     1     -41.777  55.578 -56.119  1.00  0.00    -0.299 N 
HETATM   13  C   UNL     1     -42.877  56.393 -56.372  1.00  0.00     0.260 C 
HETATM   14  O   UNL     1     -43.756  56.701 -55.575  1.00  0.00    -0.267 OA
HETATM   15  H   UNL     1     -40.992  55.719 -56.746  1.00  0.00     0.171 HD
BRANCH  13  16
HETATM   16  C   UNL     1     -42.945  56.941 -57.750  1.00  0.00     0.066 A 
HETATM   17  C   UNL     1     -42.511  58.235 -58.075  1.00  0.00     0.089 A 
HETATM   18  C   UNL     1     -42.511  58.674 -59.409  1.00  0.00    -0.028 A 
HETATM   19  C   UNL     1     -42.025  60.042 -59.789  1.00  0.00     0.051 C 
HETATM   20  C   UNL     1     -43.029  57.822 -60.398  1.00  0.00     0.009 A 
HETATM   21  C   UNL     1     -43.504  56.551 -60.071  1.00  0.00     0.002 A 
HETATM   22  C   UNL     1     -43.461  56.108 -58.750  1.00  0.00     0.020 A 
BRANCH  17  23
HETATM   23  O   UNL     1     -42.024  59.072 -57.098  1.00  0.00    -0.354 OA
HETATM   24  C   UNL     1     -43.071  59.927 -56.620  1.00  0.00     0.210 C 
ENDBRANCH  17  23
ENDBRANCH  13  16
ENDBRANCH  10  12
ENDBRANCH   8  10
ENDBRANCH   2   8
BRANCH   1  25
HETATM   25  N   UNL     1     -42.131  57.332 -52.268  1.00  0.00    -0.278 NA
HETATM   26  C   UNL     1     -41.204  58.484 -52.229  1.00  0.00     0.115 C 
HETATM   27  C   UNL     1     -41.749  59.621 -53.111  1.00  0.00     0.140 C 
HETATM   28  N   UNL     1     -43.145  59.976 -52.810  1.00  0.00    -0.350 N 
HETATM   29  C   UNL     1     -43.568  61.246 -53.194  1.00  0.00     0.219 C 
HETATM   30  C   UNL     1     -44.061  58.837 -52.637  1.00  0.00     0.140 C 
HETATM   31  O   UNL     1     -42.776  62.113 -53.567  1.00  0.00    -0.273 OA
HETATM   32  C   UNL     1     -43.476  57.713 -51.759  1.00  0.00     0.115 C 
BRANCH  29  33
HETATM   33  C   UNL     1     -45.063  61.522 -53.117  1.00  0.00     0.098 C 
HETATM   34  C   UNL     1     -45.721  61.551 -54.487  1.00  0.00     0.014 C 
ENDBRANCH  29  33
ENDBRANCH   1  25
TORSDOF 7
ENDMDL
