MODEL 1
REMARK VINA RESULT:      -8.2      0.000      0.000
REMARK  5 active torsions:
REMARK  status: ('A' for Active; 'I' for Inactive)
REMARK    1  A    between atoms: C_2  and  O_3 
REMARK    2  A    between atoms: O_3  and  C_4 
REMARK    3  A    between atoms: C_5  and  C_6 
REMARK       I    between atoms: C_6  and  N_7 
REMARK    4  A    between atoms: N_7  and  N_8 
REMARK    5  A    between atoms: C_9  and  C_10 
ROOT
HETATM    1  C   UNL     1     -42.777  56.427 -56.660  1.00  0.00     0.274 C 
HETATM    2  N   UNL     1     -42.052  55.247 -56.635  1.00  0.00    -0.243 N 
HETATM    3  O   UNL     1     -43.455  56.862 -55.732  1.00  0.00    -0.266 OA
HETATM    4  H   UNL     1     -41.517  54.968 -57.452  1.00  0.00     0.192 HD
ENDROOT
BRANCH   2   5
HETATM    5  N   UNL     1     -41.922  54.567 -55.458  1.00  0.00    -0.183 NA
HETATM    6  C   UNL     1     -40.721  54.224 -55.124  1.00  0.00     0.152 C 
BRANCH   6   7
HETATM    7  C   UNL     1     -40.506  53.562 -53.853  1.00  0.00     0.011 A 
HETATM    8  C   UNL     1     -40.197  52.183 -53.620  1.00  0.00     0.004 A 
HETATM    9  C   UNL     1     -40.035  52.019 -52.243  1.00  0.00     0.043 A 
HETATM   10  C   UNL     1     -40.020  51.057 -54.452  1.00  0.00     0.014 A 
HETATM   11  C   UNL     1     -39.702  50.790 -51.657  1.00  0.00     0.030 A 
HETATM   12  N   UNL     1     -40.252  53.244 -51.658  1.00  0.00    -0.364 N 
HETATM   13  C   UNL     1     -39.530  49.694 -52.504  1.00  0.00     0.002 A 
HETATM   14  C   UNL     1     -39.687  49.822 -53.881  1.00  0.00     0.001 A 
HETATM   15  H   UNL     1     -40.196  53.427 -50.666  1.00  0.00     0.165 HD
HETATM   16  C   UNL     1     -40.531  54.178 -52.615  1.00  0.00     0.102 A 
ENDBRANCH   6   7
ENDBRANCH   2   5
BRANCH   1  17
HETATM   17  C   UNL     1     -42.620  57.256 -57.890  1.00  0.00     0.067 A 
HETATM   18  C   UNL     1     -42.837  56.782 -59.192  1.00  0.00     0.084 A 
HETATM   19  C   UNL     1     -42.579  57.623 -60.284  1.00  0.00     0.038 A 
HETATM   20  C   UNL     1     -42.155  58.940 -60.081  1.00  0.00     0.003 A 
HETATM   21  C   UNL     1     -41.980  59.425 -58.789  1.00  0.00     0.001 A 
HETATM   22  C   UNL     1     -42.211  58.587 -57.699  1.00  0.00     0.020 A 
BRANCH  18  23
HETATM   23  O   UNL     1     -43.263  55.487 -59.365  1.00  0.00    -0.350 OA
BRANCH  23  24
HETATM   24  C   UNL     1     -44.674  55.362 -59.587  1.00  0.00     0.171 C 
HETATM   25  C   UNL     1     -44.894  54.883 -61.009  1.00  0.00     0.034 C 
ENDBRANCH  23  24
ENDBRANCH  18  23
ENDBRANCH   1  17
TORSDOF 5
ENDMDL
MODEL 2
REMARK VINA RESULT:      -7.7      4.759      8.453
REMARK  5 active torsions:
REMARK  status: ('A' for Active; 'I' for Inactive)
REMARK    1  A    between atoms: C_2  and  O_3 
REMARK    2  A    between atoms: O_3  and  C_4 
REMARK    3  A    between atoms: C_5  and  C_6 
REMARK       I    between atoms: C_6  and  N_7 
REMARK    4  A    between atoms: N_7  and  N_8 
REMARK    5  A    between atoms: C_9  and  C_10 
ROOT
HETATM    1  C   UNL     1     -40.857  53.675 -53.679  1.00  0.00     0.274 C 
HETATM    2  N   UNL     1     -42.048  54.045 -53.076  1.00  0.00    -0.243 N 
HETATM    3  O   UNL     1     -40.138  54.419 -54.343  1.00  0.00    -0.266 OA
HETATM    4  H   UNL     1     -42.576  53.359 -52.544  1.00  0.00     0.192 HD
ENDROOT
BRANCH   2   5
HETATM    5  N   UNL     1     -42.407  55.362 -53.057  1.00  0.00    -0.183 NA
HETATM    6  C   UNL     1     -43.143  55.740 -52.064  1.00  0.00     0.152 C 
BRANCH   6   7
HETATM    7  C   UNL     1     -43.501  57.140 -51.946  1.00  0.00     0.011 A 
HETATM    8  C   UNL     1     -42.733  58.198 -51.360  1.00  0.00     0.004 A 
HETATM    9  C   UNL     1     -43.461  59.379 -51.518  1.00  0.00     0.043 A 
HETATM   10  C   UNL     1     -41.475  58.270 -50.724  1.00  0.00     0.014 A 
HETATM   11  C   UNL     1     -42.997  60.625 -51.077  1.00  0.00     0.030 A 
HETATM   12  N   UNL     1     -44.632  59.052 -52.160  1.00  0.00    -0.364 N 
HETATM   13  C   UNL     1     -41.747  60.667 -50.454  1.00  0.00     0.002 A 
HETATM   14  C   UNL     1     -40.996  59.508 -50.277  1.00  0.00     0.001 A 
HETATM   15  H   UNL     1     -45.355  59.712 -52.413  1.00  0.00     0.165 HD
HETATM   16  C   UNL     1     -44.665  57.712 -52.426  1.00  0.00     0.102 A 
ENDBRANCH   6   7
ENDBRANCH   2   5
BRANCH   1  17
HETATM   17  C   UNL     1     -40.393  52.286 -53.397  1.00  0.00     0.067 A 
HETATM   18  C   UNL     1     -39.766  51.893 -52.205  1.00  0.00     0.084 A 
HETATM   19  C   UNL     1     -39.294  50.579 -52.076  1.00  0.00     0.038 A 
HETATM   20  C   UNL     1     -39.487  49.651 -53.104  1.00  0.00     0.003 A 
HETATM   21  C   UNL     1     -40.146  50.028 -54.270  1.00  0.00     0.001 A 
HETATM   22  C   UNL     1     -40.597  51.340 -54.415  1.00  0.00     0.020 A 
BRANCH  18  23
HETATM   23  O   UNL     1     -39.596  52.821 -51.206  1.00  0.00    -0.350 OA
BRANCH  23  24
HETATM   24  C   UNL     1     -40.471  52.637 -50.085  1.00  0.00     0.171 C 
HETATM   25  C   UNL     1     -40.886  54.003 -49.574  1.00  0.00     0.034 C 
ENDBRANCH  23  24
ENDBRANCH  18  23
ENDBRANCH   1  17
TORSDOF 5
ENDMDL
MODEL 3
REMARK VINA RESULT:      -7.6      2.245      8.597
REMARK  5 active torsions:
REMARK  status: ('A' for Active; 'I' for Inactive)
REMARK    1  A    between atoms: C_2  and  O_3 
REMARK    2  A    between atoms: O_3  and  C_4 
REMARK    3  A    between atoms: C_5  and  C_6 
REMARK       I    between atoms: C_6  and  N_7 
REMARK    4  A    between atoms: N_7  and  N_8 
REMARK    5  A    between atoms: C_9  and  C_10 
ROOT
HETATM    1  C   UNL     1     -40.628  53.343 -54.469  1.00  0.00     0.274 C 
HETATM    2  N   UNL     1     -41.943  53.762 -54.347  1.00  0.00    -0.243 N 
HETATM    3  O   UNL     1     -39.754  53.931 -55.101  1.00  0.00    -0.266 OA
HETATM    4  H   UNL     1     -42.598  53.210 -53.800  1.00  0.00     0.192 HD
ENDROOT
BRANCH   2   5
HETATM    5  N   UNL     1     -42.298  54.996 -54.813  1.00  0.00    -0.183 NA
HETATM    6  C   UNL     1     -42.794  55.036 -56.006  1.00  0.00     0.152 C 
BRANCH   6   7
HETATM    7  C   UNL     1     -43.256  56.305 -56.533  1.00  0.00     0.011 A 
HETATM    8  C   UNL     1     -43.450  56.670 -57.904  1.00  0.00     0.004 A 
HETATM    9  C   UNL     1     -43.949  57.974 -57.922  1.00  0.00     0.043 A 
HETATM   10  C   UNL     1     -43.268  56.008 -59.137  1.00  0.00     0.014 A 
HETATM   11  C   UNL     1     -44.277  58.648 -59.106  1.00  0.00     0.030 A 
HETATM   12  N   UNL     1     -44.039  58.393 -56.616  1.00  0.00    -0.364 N 
HETATM   13  C   UNL     1     -44.089  57.967 -60.311  1.00  0.00     0.002 A 
HETATM   14  C   UNL     1     -43.591  56.668 -60.330  1.00  0.00     0.001 A 
HETATM   15  H   UNL     1     -44.376  59.300 -56.323  1.00  0.00     0.165 HD
HETATM   16  C   UNL     1     -43.631  57.399 -55.773  1.00  0.00     0.102 A 
ENDBRANCH   6   7
ENDBRANCH   2   5
BRANCH   1  17
HETATM   17  C   UNL     1     -40.259  52.135 -53.677  1.00  0.00     0.067 A 
HETATM   18  C   UNL     1     -39.922  52.159 -52.316  1.00  0.00     0.084 A 
HETATM   19  C   UNL     1     -39.509  50.976 -51.687  1.00  0.00     0.038 A 
HETATM   20  C   UNL     1     -39.476  49.770 -52.394  1.00  0.00     0.003 A 
HETATM   21  C   UNL     1     -39.850  49.737 -53.734  1.00  0.00     0.001 A 
HETATM   22  C   UNL     1     -40.239  50.914 -54.372  1.00  0.00     0.020 A 
BRANCH  18  23
HETATM   23  O   UNL     1     -39.970  53.355 -51.641  1.00  0.00    -0.350 OA
BRANCH  23  24
HETATM   24  C   UNL     1     -40.505  53.253 -50.314  1.00  0.00     0.171 C 
HETATM   25  C   UNL     1     -39.797  54.265 -49.434  1.00  0.00     0.034 C 
ENDBRANCH  23  24
ENDBRANCH  18  23
ENDBRANCH   1  17
TORSDOF 5
ENDMDL
MODEL 4
REMARK VINA RESULT:      -7.6      4.710      8.593
REMARK  5 active torsions:
REMARK  status: ('A' for Active; 'I' for Inactive)
REMARK    1  A    between atoms: C_2  and  O_3 
REMARK    2  A    between atoms: O_3  and  C_4 
REMARK    3  A    between atoms: C_5  and  C_6 
REMARK       I    between atoms: C_6  and  N_7 
REMARK    4  A    between atoms: N_7  and  N_8 
REMARK    5  A    between atoms: C_9  and  C_10 
ROOT
HETATM    1  C   UNL     1     -40.824  53.862 -53.681  1.00  0.00     0.274 C 
HETATM    2  N   UNL     1     -41.920  54.307 -52.960  1.00  0.00    -0.243 N 
HETATM    3  O   UNL     1     -40.153  54.550 -54.446  1.00  0.00    -0.266 OA
HETATM    4  H   UNL     1     -42.414  53.664 -52.348  1.00  0.00     0.192 HD
ENDROOT
BRANCH   2   5
HETATM    5  N   UNL     1     -42.213  55.641 -52.945  1.00  0.00    -0.183 NA
HETATM    6  C   UNL     1     -41.962  56.269 -51.844  1.00  0.00     0.152 C 
BRANCH   6   7
HETATM    7  C   UNL     1     -42.185  57.700 -51.784  1.00  0.00     0.011 A 
HETATM    8  C   UNL     1     -43.401  58.390 -51.474  1.00  0.00     0.004 A 
HETATM    9  C   UNL     1     -43.123  59.758 -51.494  1.00  0.00     0.043 A 
HETATM   10  C   UNL     1     -44.715  57.981 -51.159  1.00  0.00     0.014 A 
HETATM   11  C   UNL     1     -44.086  60.735 -51.212  1.00  0.00     0.030 A 
HETATM   12  N   UNL     1     -41.794  59.898 -51.818  1.00  0.00    -0.364 N 
HETATM   13  C   UNL     1     -45.376  60.302 -50.900  1.00  0.00     0.002 A 
HETATM   14  C   UNL     1     -45.690  58.946 -50.875  1.00  0.00     0.001 A 
HETATM   15  H   UNL     1     -41.310  60.782 -51.900  1.00  0.00     0.165 HD
HETATM   16  C   UNL     1     -41.220  58.670 -51.990  1.00  0.00     0.102 A 
ENDBRANCH   6   7
ENDBRANCH   2   5
BRANCH   1  17
HETATM   17  C   UNL     1     -40.395  52.460 -53.406  1.00  0.00     0.067 A 
HETATM   18  C   UNL     1     -39.792  52.043 -52.210  1.00  0.00     0.084 A 
HETATM   19  C   UNL     1     -39.351  50.717 -52.088  1.00  0.00     0.038 A 
HETATM   20  C   UNL     1     -39.552  49.803 -53.127  1.00  0.00     0.003 A 
HETATM   21  C   UNL     1     -40.188  50.205 -54.297  1.00  0.00     0.001 A 
HETATM   22  C   UNL     1     -40.607  51.528 -54.436  1.00  0.00     0.020 A 
BRANCH  18  23
HETATM   23  O   UNL     1     -39.613  52.957 -51.201  1.00  0.00    -0.350 OA
BRANCH  23  24
HETATM   24  C   UNL     1     -40.448  52.732 -50.057  1.00  0.00     0.171 C 
HETATM   25  C   UNL     1     -40.239  53.874 -49.080  1.00  0.00     0.034 C 
ENDBRANCH  23  24
ENDBRANCH  18  23
ENDBRANCH   1  17
TORSDOF 5
ENDMDL
MODEL 5
REMARK VINA RESULT:      -7.5      2.183      8.072
REMARK  5 active torsions:
REMARK  status: ('A' for Active; 'I' for Inactive)
REMARK    1  A    between atoms: C_2  and  O_3 
REMARK    2  A    between atoms: O_3  and  C_4 
REMARK    3  A    between atoms: C_5  and  C_6 
REMARK       I    between atoms: C_6  and  N_7 
REMARK    4  A    between atoms: N_7  and  N_8 
REMARK    5  A    between atoms: C_9  and  C_10 
ROOT
HETATM    1  C   UNL     1     -41.268  54.929 -53.556  1.00  0.00     0.274 C 
HETATM    2  N   UNL     1     -42.254  54.441 -54.399  1.00  0.00    -0.243 N 
HETATM    3  O   UNL     1     -40.777  56.054 -53.617  1.00  0.00    -0.266 OA
HETATM    4  H   UNL     1     -42.601  53.494 -54.271  1.00  0.00     0.192 HD
ENDROOT
BRANCH   2   5
HETATM    5  N   UNL     1     -42.868  55.291 -55.273  1.00  0.00    -0.183 NA
HETATM    6  C   UNL     1     -42.383  55.329 -56.470  1.00  0.00     0.152 C 
BRANCH   6   7
HETATM    7  C   UNL     1     -43.032  56.158 -57.466  1.00  0.00     0.011 A 
HETATM    8  C   UNL     1     -43.777  55.735 -58.614  1.00  0.00     0.004 A 
HETATM    9  C   UNL     1     -44.251  56.884 -59.251  1.00  0.00     0.043 A 
HETATM   10  C   UNL     1     -44.113  54.480 -59.166  1.00  0.00     0.014 A 
HETATM   11  C   UNL     1     -45.043  56.842 -60.406  1.00  0.00     0.030 A 
HETATM   12  N   UNL     1     -43.799  57.964 -58.530  1.00  0.00    -0.364 N 
HETATM   13  C   UNL     1     -45.362  55.587 -60.928  1.00  0.00     0.002 A 
HETATM   14  C   UNL     1     -44.904  54.422 -60.320  1.00  0.00     0.001 A 
HETATM   15  H   UNL     1     -43.994  58.930 -58.756  1.00  0.00     0.165 HD
HETATM   16  C   UNL     1     -43.071  57.541 -57.455  1.00  0.00     0.102 A 
ENDBRANCH   6   7
ENDBRANCH   2   5
BRANCH   1  17
HETATM   17  C   UNL     1     -40.867  54.026 -52.439  1.00  0.00     0.067 A 
HETATM   18  C   UNL     1     -40.238  52.784 -52.618  1.00  0.00     0.084 A 
HETATM   19  C   UNL     1     -39.980  51.977 -51.501  1.00  0.00     0.038 A 
HETATM   20  C   UNL     1     -40.301  52.420 -50.215  1.00  0.00     0.003 A 
HETATM   21  C   UNL     1     -40.886  53.668 -50.032  1.00  0.00     0.001 A 
HETATM   22  C   UNL     1     -41.168  54.468 -51.139  1.00  0.00     0.020 A 
BRANCH  18  23
HETATM   23  O   UNL     1     -39.926  52.375 -53.891  1.00  0.00    -0.350 OA
BRANCH  23  24
HETATM   24  C   UNL     1     -40.622  51.193 -54.310  1.00  0.00     0.171 C 
HETATM   25  C   UNL     1     -39.616  50.065 -54.436  1.00  0.00     0.034 C 
ENDBRANCH  23  24
ENDBRANCH  18  23
ENDBRANCH   1  17
TORSDOF 5
ENDMDL
MODEL 6
REMARK VINA RESULT:      -7.4      3.627      8.463
REMARK  5 active torsions:
REMARK  status: ('A' for Active; 'I' for Inactive)
REMARK    1  A    between atoms: C_2  and  O_3 
REMARK    2  A    between atoms: O_3  and  C_4 
REMARK    3  A    between atoms: C_5  and  C_6 
REMARK       I    between atoms: C_6  and  N_7 
REMARK    4  A    between atoms: N_7  and  N_8 
REMARK    5  A    between atoms: C_9  and  C_10 
ROOT
HETATM    1  C   UNL     1     -40.796  53.426 -54.320  1.00  0.00     0.274 C 
HETATM    2  N   UNL     1     -42.135  53.742 -54.160  1.00  0.00    -0.243 N 
HETATM    3  O   UNL     1     -39.964  54.135 -54.881  1.00  0.00    -0.266 OA
HETATM    4  H   UNL     1     -42.751  53.092 -53.679  1.00  0.00     0.192 HD
ENDROOT
BRANCH   2   5
HETATM    5  N   UNL     1     -42.572  54.992 -54.491  1.00  0.00    -0.183 NA
HETATM    6  C   UNL     1     -43.644  55.400 -53.896  1.00  0.00     0.152 C 
BRANCH   6   7
HETATM    7  C   UNL     1     -44.122  56.745 -54.150  1.00  0.00     0.011 A 
HETATM    8  C   UNL     1     -44.616  57.698 -53.202  1.00  0.00     0.004 A 
HETATM    9  C   UNL     1     -44.914  58.868 -53.903  1.00  0.00     0.043 A 
HETATM   10  C   UNL     1     -44.822  57.686 -51.806  1.00  0.00     0.014 A 
HETATM   11  C   UNL     1     -45.404  60.025 -53.281  1.00  0.00     0.030 A 
HETATM   12  N   UNL     1     -44.629  58.633 -55.227  1.00  0.00    -0.364 N 
HETATM   13  C   UNL     1     -45.594  59.985 -51.898  1.00  0.00     0.002 A 
HETATM   14  C   UNL     1     -45.311  58.834 -51.169  1.00  0.00     0.001 A 
HETATM   15  H   UNL     1     -44.743  59.309 -55.970  1.00  0.00     0.165 HD
HETATM   16  C   UNL     1     -44.148  57.365 -55.387  1.00  0.00     0.102 A 
ENDBRANCH   6   7
ENDBRANCH   2   5
BRANCH   1  17
HETATM   17  C   UNL     1     -40.345  52.167 -53.661  1.00  0.00     0.067 A 
HETATM   18  C   UNL     1     -39.898  52.090 -52.333  1.00  0.00     0.084 A 
HETATM   19  C   UNL     1     -39.417  50.869 -51.839  1.00  0.00     0.038 A 
HETATM   20  C   UNL     1     -39.426  49.724 -52.641  1.00  0.00     0.003 A 
HETATM   21  C   UNL     1     -39.909  49.790 -53.944  1.00  0.00     0.001 A 
HETATM   22  C   UNL     1     -40.366  51.005 -54.452  1.00  0.00     0.020 A 
BRANCH  18  23
HETATM   23  O   UNL     1     -39.907  53.227 -51.562  1.00  0.00    -0.350 OA
BRANCH  23  24
HETATM   24  C   UNL     1     -40.779  53.152 -50.426  1.00  0.00     0.171 C 
HETATM   25  C   UNL     1     -41.967  54.062 -50.674  1.00  0.00     0.034 C 
ENDBRANCH  23  24
ENDBRANCH  18  23
ENDBRANCH   1  17
TORSDOF 5
ENDMDL
MODEL 7
REMARK VINA RESULT:      -7.3      2.242      8.309
REMARK  5 active torsions:
REMARK  status: ('A' for Active; 'I' for Inactive)
REMARK    1  A    between atoms: C_2  and  O_3 
REMARK    2  A    between atoms: O_3  and  C_4 
REMARK    3  A    between atoms: C_5  and  C_6 
REMARK       I    between atoms: C_6  and  N_7 
REMARK    4  A    between atoms: N_7  and  N_8 
REMARK    5  A    between atoms: C_9  and  C_10 
ROOT
HETATM    1  C   UNL     1     -42.263  54.480 -53.702  1.00  0.00     0.274 C 
HETATM    2  N   UNL     1     -41.689  55.473 -54.481  1.00  0.00    -0.243 N 
HETATM    3  O   UNL     1     -43.471  54.293 -53.570  1.00  0.00    -0.266 OA
HETATM    4  H   UNL     1     -40.678  55.550 -54.531  1.00  0.00     0.192 HD
ENDROOT
BRANCH   2   5
HETATM    5  N   UNL     1     -42.482  56.218 -55.305  1.00  0.00    -0.183 NA
HETATM    6  C   UNL     1     -42.453  55.910 -56.560  1.00  0.00     0.152 C 
BRANCH   6   7
HETATM    7  C   UNL     1     -43.324  56.616 -57.478  1.00  0.00     0.011 A 
HETATM    8  C   UNL     1     -43.984  56.099 -58.639  1.00  0.00     0.004 A 
HETATM    9  C   UNL     1     -44.750  57.134 -59.180  1.00  0.00     0.043 A 
HETATM   10  C   UNL     1     -44.020  54.839 -59.275  1.00  0.00     0.014 A 
HETATM   11  C   UNL     1     -45.550  56.974 -60.319  1.00  0.00     0.030 A 
HETATM   12  N   UNL     1     -44.552  58.242 -58.390  1.00  0.00    -0.364 N 
HETATM   13  C   UNL     1     -45.570  55.716 -60.925  1.00  0.00     0.002 A 
HETATM   14  C   UNL     1     -44.816  54.663 -60.415  1.00  0.00     0.001 A 
HETATM   15  H   UNL     1     -44.987  59.142 -58.540  1.00  0.00     0.165 HD
HETATM   16  C   UNL     1     -43.702  57.942 -57.364  1.00  0.00     0.102 A 
ENDBRANCH   6   7
ENDBRANCH   2   5
BRANCH   1  17
HETATM   17  C   UNL     1     -41.311  53.523 -53.070  1.00  0.00     0.067 A 
HETATM   18  C   UNL     1     -41.004  53.506 -51.701  1.00  0.00     0.084 A 
HETATM   19  C   UNL     1     -40.030  52.617 -51.225  1.00  0.00     0.038 A 
HETATM   20  C   UNL     1     -39.402  51.720 -52.093  1.00  0.00     0.003 A 
HETATM   21  C   UNL     1     -39.735  51.706 -53.444  1.00  0.00     0.001 A 
HETATM   22  C   UNL     1     -40.685  52.604 -53.930  1.00  0.00     0.020 A 
BRANCH  18  23
HETATM   23  O   UNL     1     -41.641  54.392 -50.867  1.00  0.00    -0.350 OA
BRANCH  23  24
HETATM   24  C   UNL     1     -40.767  55.358 -50.267  1.00  0.00     0.171 C 
HETATM   25  C   UNL     1     -41.242  56.743 -50.661  1.00  0.00     0.034 C 
ENDBRANCH  23  24
ENDBRANCH  18  23
ENDBRANCH   1  17
TORSDOF 5
ENDMDL
MODEL 8
REMARK VINA RESULT:      -7.2      4.407      8.901
REMARK  5 active torsions:
REMARK  status: ('A' for Active; 'I' for Inactive)
REMARK    1  A    between atoms: C_2  and  O_3 
REMARK    2  A    between atoms: O_3  and  C_4 
REMARK    3  A    between atoms: C_5  and  C_6 
REMARK       I    between atoms: C_6  and  N_7 
REMARK    4  A    between atoms: N_7  and  N_8 
REMARK    5  A    between atoms: C_9  and  C_10 
ROOT
HETATM    1  C   UNL     1     -41.926  54.708 -52.945  1.00  0.00     0.274 C 
HETATM    2  N   UNL     1     -41.281  55.851 -52.502  1.00  0.00    -0.243 N 
HETATM    3  O   UNL     1     -43.080  54.664 -53.367  1.00  0.00    -0.266 OA
HETATM    4  H   UNL     1     -40.323  55.791 -52.171  1.00  0.00     0.192 HD
ENDROOT
BRANCH   2   5
HETATM    5  N   UNL     1     -41.878  57.067 -52.679  1.00  0.00    -0.183 NA
HETATM    6  C   UNL     1     -41.159  57.978 -53.247  1.00  0.00     0.152 C 
BRANCH   6   7
HETATM    7  C   UNL     1     -41.756  59.269 -53.529  1.00  0.00     0.011 A 
HETATM    8  C   UNL     1     -42.246  60.235 -52.592  1.00  0.00     0.004 A 
HETATM    9  C   UNL     1     -42.686  61.341 -53.323  1.00  0.00     0.043 A 
HETATM   10  C   UNL     1     -42.341  60.286 -51.184  1.00  0.00     0.014 A 
HETATM   11  C   UNL     1     -43.212  62.492 -52.721  1.00  0.00     0.030 A 
HETATM   12  N   UNL     1     -42.487  61.054 -54.653  1.00  0.00    -0.364 N 
HETATM   13  C   UNL     1     -43.291  62.515 -51.327  1.00  0.00     0.002 A 
HETATM   14  C   UNL     1     -42.865  61.429 -50.567  1.00  0.00     0.001 A 
HETATM   15  H   UNL     1     -42.710  61.677 -55.416  1.00  0.00     0.165 HD
HETATM   16  C   UNL     1     -41.926  59.816 -54.788  1.00  0.00     0.102 A 
ENDBRANCH   6   7
ENDBRANCH   2   5
BRANCH   1  17
HETATM   17  C   UNL     1     -41.092  53.472 -52.992  1.00  0.00     0.067 A 
HETATM   18  C   UNL     1     -40.178  53.102 -51.995  1.00  0.00     0.084 A 
HETATM   19  C   UNL     1     -39.383  51.961 -52.180  1.00  0.00     0.038 A 
HETATM   20  C   UNL     1     -39.530  51.171 -53.323  1.00  0.00     0.003 A 
HETATM   21  C   UNL     1     -40.466  51.514 -54.293  1.00  0.00     0.001 A 
HETATM   22  C   UNL     1     -41.243  52.659 -54.129  1.00  0.00     0.020 A 
BRANCH  18  23
HETATM   23  O   UNL     1     -40.058  53.891 -50.877  1.00  0.00    -0.350 OA
BRANCH  23  24
HETATM   24  C   UNL     1     -40.378  53.217 -49.652  1.00  0.00     0.171 C 
HETATM   25  C   UNL     1     -40.829  54.253 -48.641  1.00  0.00     0.034 C 
ENDBRANCH  23  24
ENDBRANCH  18  23
ENDBRANCH   1  17
TORSDOF 5
ENDMDL
MODEL 9
REMARK VINA RESULT:      -7.2      2.078      7.968
REMARK  5 active torsions:
REMARK  status: ('A' for Active; 'I' for Inactive)
REMARK    1  A    between atoms: C_2  and  O_3 
REMARK    2  A    between atoms: O_3  and  C_4 
REMARK    3  A    between atoms: C_5  and  C_6 
REMARK       I    between atoms: C_6  and  N_7 
REMARK    4  A    between atoms: N_7  and  N_8 
REMARK    5  A    between atoms: C_9  and  C_10 
ROOT
HETATM    1  C   UNL     1     -42.185  54.664 -53.682  1.00  0.00     0.274 C 
HETATM    2  N   UNL     1     -41.417  55.344 -54.615  1.00  0.00    -0.243 N 
HETATM    3  O   UNL     1     -43.375  54.389 -53.811  1.00  0.00    -0.266 OA
HETATM    4  H   UNL     1     -40.437  55.526 -54.422  1.00  0.00     0.192 HD
ENDROOT
BRANCH   2   5
HETATM    5  N   UNL     1     -41.940  55.604 -55.849  1.00  0.00    -0.183 NA
HETATM    6  C   UNL     1     -42.249  56.835 -56.092  1.00  0.00     0.152 C 
BRANCH   6   7
HETATM    7  C   UNL     1     -42.742  57.190 -57.408  1.00  0.00     0.011 A 
HETATM    8  C   UNL     1     -43.365  56.336 -58.374  1.00  0.00     0.004 A 
HETATM    9  C   UNL     1     -43.713  57.129 -59.470  1.00  0.00     0.043 A 
HETATM   10  C   UNL     1     -43.687  54.962 -58.416  1.00  0.00     0.014 A 
HETATM   11  C   UNL     1     -44.366  56.621 -60.601  1.00  0.00     0.030 A 
HETATM   12  N   UNL     1     -43.304  58.411 -59.190  1.00  0.00    -0.364 N 
HETATM   13  C   UNL     1     -44.674  55.259 -60.613  1.00  0.00     0.002 A 
HETATM   14  C   UNL     1     -44.340  54.439 -59.539  1.00  0.00     0.001 A 
HETATM   15  H   UNL     1     -43.430  59.204 -59.805  1.00  0.00     0.165 HD
HETATM   16  C   UNL     1     -42.724  58.461 -57.954  1.00  0.00     0.102 A 
ENDBRANCH   6   7
ENDBRANCH   2   5
BRANCH   1  17
HETATM   17  C   UNL     1     -41.450  54.157 -52.487  1.00  0.00     0.067 A 
HETATM   18  C   UNL     1     -40.589  53.050 -52.504  1.00  0.00     0.084 A 
HETATM   19  C   UNL     1     -40.014  52.607 -51.305  1.00  0.00     0.038 A 
HETATM   20  C   UNL     1     -40.255  53.287 -50.108  1.00  0.00     0.003 A 
HETATM   21  C   UNL     1     -41.075  54.411 -50.097  1.00  0.00     0.001 A 
HETATM   22  C   UNL     1     -41.670  54.843 -51.281  1.00  0.00     0.020 A 
BRANCH  18  23
HETATM   23  O   UNL     1     -40.362  52.403 -53.695  1.00  0.00    -0.350 OA
BRANCH  23  24
HETATM   24  C   UNL     1     -39.487  51.272 -53.585  1.00  0.00     0.171 C 
HETATM   25  C   UNL     1     -40.039  50.155 -54.449  1.00  0.00     0.034 C 
ENDBRANCH  23  24
ENDBRANCH  18  23
ENDBRANCH   1  17
TORSDOF 5
ENDMDL
MODEL 10
REMARK VINA RESULT:      -7.1      4.008      4.708
REMARK  5 active torsions:
REMARK  status: ('A' for Active; 'I' for Inactive)
REMARK    1  A    between atoms: C_2  and  O_3 
REMARK    2  A    between atoms: O_3  and  C_4 
REMARK    3  A    between atoms: C_5  and  C_6 
REMARK       I    between atoms: C_6  and  N_7 
REMARK    4  A    between atoms: N_7  and  N_8 
REMARK    5  A    between atoms: C_9  and  C_10 
ROOT
HETATM    1  C   UNL     1     -43.323  56.968 -53.276  1.00  0.00     0.274 C 
HETATM    2  N   UNL     1     -42.457  56.143 -53.976  1.00  0.00    -0.243 N 
HETATM    3  O   UNL     1     -43.940  56.649 -52.263  1.00  0.00    -0.266 OA
HETATM    4  H   UNL     1     -41.988  56.495 -54.806  1.00  0.00     0.192 HD
ENDROOT
BRANCH   2   5
HETATM    5  N   UNL     1     -42.110  54.934 -53.445  1.00  0.00    -0.183 NA
HETATM    6  C   UNL     1     -40.944  54.866 -52.892  1.00  0.00     0.152 C 
BRANCH   6   7
HETATM    7  C   UNL     1     -40.542  53.630 -52.247  1.00  0.00     0.011 A 
HETATM    8  C   UNL     1     -40.291  52.360 -52.859  1.00  0.00     0.004 A 
HETATM    9  C   UNL     1     -39.887  51.483 -51.850  1.00  0.00     0.043 A 
HETATM   10  C   UNL     1     -40.348  51.873 -54.183  1.00  0.00     0.014 A 
HETATM   11  C   UNL     1     -39.537  50.149 -52.095  1.00  0.00     0.030 A 
HETATM   12  N   UNL     1     -39.908  52.186 -50.668  1.00  0.00    -0.364 N 
HETATM   13  C   UNL     1     -39.600  49.695 -53.414  1.00  0.00     0.002 A 
HETATM   14  C   UNL     1     -40.001  50.541 -54.444  1.00  0.00     0.001 A 
HETATM   15  H   UNL     1     -39.656  51.805 -49.766  1.00  0.00     0.165 HD
HETATM   16  C   UNL     1     -40.295  53.476 -50.895  1.00  0.00     0.102 A 
ENDBRANCH   6   7
ENDBRANCH   2   5
BRANCH   1  17
HETATM   17  C   UNL     1     -43.412  58.374 -53.764  1.00  0.00     0.067 A 
HETATM   18  C   UNL     1     -42.358  59.298 -53.699  1.00  0.00     0.084 A 
HETATM   19  C   UNL     1     -42.575  60.621 -54.110  1.00  0.00     0.038 A 
HETATM   20  C   UNL     1     -43.815  61.009 -54.626  1.00  0.00     0.003 A 
HETATM   21  C   UNL     1     -44.848  60.084 -54.731  1.00  0.00     0.001 A 
HETATM   22  C   UNL     1     -44.648  58.773 -54.301  1.00  0.00     0.020 A 
BRANCH  18  23
HETATM   23  O   UNL     1     -41.147  58.889 -53.195  1.00  0.00    -0.350 OA
BRANCH  23  24
HETATM   24  C   UNL     1     -40.891  59.338 -51.858  1.00  0.00     0.171 C 
HETATM   25  C   UNL     1     -40.663  58.122 -50.980  1.00  0.00     0.034 C 
ENDBRANCH  23  24
ENDBRANCH  18  23
ENDBRANCH   1  17
TORSDOF 5
ENDMDL
