MODEL 1
REMARK VINA RESULT:      -8.1      0.000      0.000
REMARK  5 active torsions:
REMARK  status: ('A' for Active; 'I' for Inactive)
REMARK    1  A    between atoms: C_9  and  N_10 
REMARK       I    between atoms: N_10  and  C_11 
REMARK    2  A    between atoms: C_11  and  C_12 
REMARK    3  A    between atoms: C_12  and  N_13 
REMARK    4  A    between atoms: C_12  and  C_17 
REMARK    5  A    between atoms: C_17  and  C_18 
ROOT
HETATM    1  N   UNL     1     -41.876  55.756 -56.206  1.00  0.00    -0.325 N 
HETATM    2  C   UNL     1     -43.059  56.449 -56.370  1.00  0.00     0.253 C 
HETATM    3  O   UNL     1     -43.950  56.613 -55.537  1.00  0.00    -0.271 OA
HETATM    4  H   UNL     1     -41.216  55.722 -56.975  1.00  0.00     0.169 HD
ENDROOT
BRANCH   2   5
HETATM    5  C   UNL     1     -43.249  57.085 -57.752  1.00  0.00     0.280 C 
BRANCH   5   6
HETATM    6  N   UNL     1     -44.729  57.254 -58.015  1.00  0.00    -0.066 N 
HETATM    7  H   UNL     1     -45.265  56.826 -57.232  1.00  0.00     0.275 HD
HETATM    8  H   UNL     1     -44.963  58.255 -58.070  1.00  0.00     0.275 HD
HETATM    9  H   UNL     1     -45.018  56.828 -58.900  1.00  0.00     0.275 HD
ENDBRANCH   5   6
BRANCH   5  10
HETATM   10  C   UNL     1     -42.621  56.208 -58.843  1.00  0.00     0.103 C 
BRANCH  10  11
HETATM   11  C   UNL     1     -43.644  55.452 -59.620  1.00  0.00     0.053 A 
HETATM   12  N   UNL     1     -44.157  55.985 -60.786  1.00  0.00    -0.247 NA
HETATM   13  C   UNL     1     -45.037  55.103 -61.211  1.00  0.00     0.207 A 
HETATM   14  N   UNL     1     -45.113  54.024 -60.374  1.00  0.00    -0.359 N 
HETATM   15  H   UNL     1     -45.723  53.223 -60.489  1.00  0.00     0.166 HD
HETATM   16  C   UNL     1     -44.224  54.235 -59.353  1.00  0.00     0.116 A 
ENDBRANCH  10  11
ENDBRANCH   5  10
ENDBRANCH   2   5
BRANCH   1  17
HETATM   17  C   UNL     1     -41.437  55.090 -55.037  1.00  0.00     0.035 A 
HETATM   18  C   UNL     1     -41.409  55.670 -53.770  1.00  0.00     0.030 A 
HETATM   19  C   UNL     1     -40.948  54.942 -52.667  1.00  0.00     0.014 A 
HETATM   20  C   UNL     1     -40.508  53.620 -52.807  1.00  0.00    -0.026 A 
HETATM   21  C   UNL     1     -40.041  52.882 -51.707  1.00  0.00     0.012 A 
HETATM   22  C   UNL     1     -40.536  53.019 -54.084  1.00  0.00    -0.024 A 
HETATM   23  C   UNL     1     -39.607  51.566 -51.866  1.00  0.00     0.001 A 
HETATM   24  C   UNL     1     -39.636  50.970 -53.124  1.00  0.00     0.001 A 
HETATM   25  C   UNL     1     -40.097  51.692 -54.227  1.00  0.00     0.012 A 
HETATM   26  C   UNL     1     -41.001  53.765 -55.184  1.00  0.00     0.042 A 
ENDBRANCH   1  17
TORSDOF 5
ENDMDL
MODEL 2
REMARK VINA RESULT:      -7.8      1.490      1.872
REMARK  5 active torsions:
REMARK  status: ('A' for Active; 'I' for Inactive)
REMARK    1  A    between atoms: C_9  and  N_10 
REMARK       I    between atoms: N_10  and  C_11 
REMARK    2  A    between atoms: C_11  and  C_12 
REMARK    3  A    between atoms: C_12  and  N_13 
REMARK    4  A    between atoms: C_12  and  C_17 
REMARK    5  A    between atoms: C_17  and  C_18 
ROOT
HETATM    1  N   UNL     1     -41.256  55.104 -55.503  1.00  0.00    -0.325 N 
HETATM    2  C   UNL     1     -42.507  55.637 -55.741  1.00  0.00     0.253 C 
HETATM    3  O   UNL     1     -43.535  55.450 -55.091  1.00  0.00    -0.271 OA
HETATM    4  H   UNL     1     -40.487  55.365 -56.110  1.00  0.00     0.169 HD
ENDROOT
BRANCH   2   5
HETATM    5  C   UNL     1     -42.590  56.576 -56.952  1.00  0.00     0.280 C 
BRANCH   5   6
HETATM    6  N   UNL     1     -43.464  57.758 -56.597  1.00  0.00    -0.066 N 
HETATM    7  H   UNL     1     -43.262  58.540 -57.255  1.00  0.00     0.275 HD
HETATM    8  H   UNL     1     -44.456  57.499 -56.684  1.00  0.00     0.275 HD
HETATM    9  H   UNL     1     -43.318  58.076 -55.635  1.00  0.00     0.275 HD
ENDBRANCH   5   6
BRANCH   5  10
HETATM   10  C   UNL     1     -43.171  55.841 -58.167  1.00  0.00     0.103 C 
BRANCH  10  11
HETATM   11  C   UNL     1     -43.857  56.766 -59.113  1.00  0.00     0.053 A 
HETATM   12  N   UNL     1     -45.188  57.082 -58.927  1.00  0.00    -0.247 NA
HETATM   13  C   UNL     1     -45.495  57.885 -59.924  1.00  0.00     0.207 A 
HETATM   14  N   UNL     1     -44.423  58.103 -60.744  1.00  0.00    -0.359 N 
HETATM   15  H   UNL     1     -44.418  58.678 -61.579  1.00  0.00     0.166 HD
HETATM   16  C   UNL     1     -43.367  57.395 -60.234  1.00  0.00     0.116 A 
ENDBRANCH  10  11
ENDBRANCH   5  10
ENDBRANCH   2   5
BRANCH   1  17
HETATM   17  C   UNL     1     -40.893  54.229 -54.453  1.00  0.00     0.035 A 
HETATM   18  C   UNL     1     -40.781  54.613 -53.117  1.00  0.00     0.030 A 
HETATM   19  C   UNL     1     -40.404  53.683 -52.141  1.00  0.00     0.014 A 
HETATM   20  C   UNL     1     -40.134  52.351 -52.478  1.00  0.00    -0.026 A 
HETATM   21  C   UNL     1     -39.752  51.412 -51.507  1.00  0.00     0.012 A 
HETATM   22  C   UNL     1     -40.248  51.948 -53.826  1.00  0.00    -0.024 A 
HETATM   23  C   UNL     1     -39.487  50.089 -51.861  1.00  0.00     0.001 A 
HETATM   24  C   UNL     1     -39.601  49.688 -53.189  1.00  0.00     0.001 A 
HETATM   25  C   UNL     1     -39.979  50.611 -54.166  1.00  0.00     0.012 A 
HETATM   26  C   UNL     1     -40.627  52.895 -54.796  1.00  0.00     0.042 A 
ENDBRANCH   1  17
TORSDOF 5
ENDMDL
MODEL 3
REMARK VINA RESULT:      -7.7      4.095      6.029
REMARK  5 active torsions:
REMARK  status: ('A' for Active; 'I' for Inactive)
REMARK    1  A    between atoms: C_9  and  N_10 
REMARK       I    between atoms: N_10  and  C_11 
REMARK    2  A    between atoms: C_11  and  C_12 
REMARK    3  A    between atoms: C_12  and  N_13 
REMARK    4  A    between atoms: C_12  and  C_17 
REMARK    5  A    between atoms: C_17  and  C_18 
ROOT
HETATM    1  N   UNL     1     -41.059  55.714 -53.023  1.00  0.00    -0.325 N 
HETATM    2  C   UNL     1     -42.333  56.244 -53.064  1.00  0.00     0.253 C 
HETATM    3  O   UNL     1     -43.387  55.680 -52.769  1.00  0.00    -0.271 OA
HETATM    4  H   UNL     1     -40.273  56.304 -53.273  1.00  0.00     0.169 HD
ENDROOT
BRANCH   2   5
HETATM    5  C   UNL     1     -42.411  57.707 -53.521  1.00  0.00     0.280 C 
BRANCH   5   6
HETATM    6  N   UNL     1     -42.918  57.750 -54.945  1.00  0.00    -0.066 N 
HETATM    7  H   UNL     1     -43.575  56.957 -55.097  1.00  0.00     0.275 HD
HETATM    8  H   UNL     1     -43.420  58.634 -55.111  1.00  0.00     0.275 HD
HETATM    9  H   UNL     1     -42.159  57.701 -55.630  1.00  0.00     0.275 HD
ENDBRANCH   5   6
BRANCH   5  10
HETATM   10  C   UNL     1     -41.032  58.373 -53.435  1.00  0.00     0.103 C 
BRANCH  10  11
HETATM   11  C   UNL     1     -40.782  58.987 -52.100  1.00  0.00     0.053 A 
HETATM   12  N   UNL     1     -39.487  59.220 -51.679  1.00  0.00    -0.247 NA
HETATM   13  C   UNL     1     -39.604  59.736 -50.473  1.00  0.00     0.207 A 
HETATM   14  N   UNL     1     -40.914  59.850 -50.099  1.00  0.00    -0.359 N 
HETATM   15  H   UNL     1     -41.251  60.211 -49.214  1.00  0.00     0.166 HD
HETATM   16  C   UNL     1     -41.678  59.376 -51.133  1.00  0.00     0.116 A 
ENDBRANCH  10  11
ENDBRANCH   5  10
ENDBRANCH   2   5
BRANCH   1  17
HETATM   17  C   UNL     1     -40.697  54.406 -52.627  1.00  0.00     0.035 A 
HETATM   18  C   UNL     1     -40.428  54.033 -51.311  1.00  0.00     0.030 A 
HETATM   19  C   UNL     1     -40.064  52.717 -51.007  1.00  0.00     0.014 A 
HETATM   20  C   UNL     1     -39.964  51.744 -52.010  1.00  0.00    -0.026 A 
HETATM   21  C   UNL     1     -39.597  50.421 -51.715  1.00  0.00     0.012 A 
HETATM   22  C   UNL     1     -40.238  52.107 -53.346  1.00  0.00    -0.024 A 
HETATM   23  C   UNL     1     -39.503  49.466 -52.728  1.00  0.00     0.001 A 
HETATM   24  C   UNL     1     -39.775  49.821 -54.046  1.00  0.00     0.001 A 
HETATM   25  C   UNL     1     -40.141  51.133 -54.354  1.00  0.00     0.012 A 
HETATM   26  C   UNL     1     -40.601  53.436 -53.636  1.00  0.00     0.042 A 
ENDBRANCH   1  17
TORSDOF 5
ENDMDL
MODEL 4
REMARK VINA RESULT:      -7.6      2.435      3.537
REMARK  5 active torsions:
REMARK  status: ('A' for Active; 'I' for Inactive)
REMARK    1  A    between atoms: C_9  and  N_10 
REMARK       I    between atoms: N_10  and  C_11 
REMARK    2  A    between atoms: C_11  and  C_12 
REMARK    3  A    between atoms: C_12  and  N_13 
REMARK    4  A    between atoms: C_12  and  C_17 
REMARK    5  A    between atoms: C_17  and  C_18 
ROOT
HETATM    1  N   UNL     1     -41.223  55.744 -52.792  1.00  0.00    -0.325 N 
HETATM    2  C   UNL     1     -42.507  56.242 -52.705  1.00  0.00     0.253 C 
HETATM    3  O   UNL     1     -43.520  55.640 -52.349  1.00  0.00    -0.271 OA
HETATM    4  H   UNL     1     -40.473  56.364 -53.080  1.00  0.00     0.169 HD
ENDROOT
BRANCH   2   5
HETATM    5  C   UNL     1     -42.656  57.719 -53.090  1.00  0.00     0.280 C 
BRANCH   5   6
HETATM    6  N   UNL     1     -44.127  58.055 -53.193  1.00  0.00    -0.066 N 
HETATM    7  H   UNL     1     -44.580  57.886 -52.271  1.00  0.00     0.275 HD
HETATM    8  H   UNL     1     -44.243  59.046 -53.444  1.00  0.00     0.275 HD
HETATM    9  H   UNL     1     -44.602  57.503 -53.913  1.00  0.00     0.275 HD
ENDBRANCH   5   6
BRANCH   5  10
HETATM   10  C   UNL     1     -41.960  58.002 -54.428  1.00  0.00     0.103 C 
BRANCH  10  11
HETATM   11  C   UNL     1     -42.770  57.548 -55.594  1.00  0.00     0.053 A 
HETATM   12  N   UNL     1     -43.732  58.380 -56.132  1.00  0.00    -0.247 NA
HETATM   13  C   UNL     1     -44.276  57.690 -57.113  1.00  0.00     0.207 A 
HETATM   14  N   UNL     1     -43.706  56.453 -57.235  1.00  0.00    -0.359 N 
HETATM   15  H   UNL     1     -43.962  55.743 -57.912  1.00  0.00     0.166 HD
HETATM   16  C   UNL     1     -42.739  56.351 -56.270  1.00  0.00     0.116 A 
ENDBRANCH  10  11
ENDBRANCH   5  10
ENDBRANCH   2   5
BRANCH   1  17
HETATM   17  C   UNL     1     -40.799  54.430 -52.483  1.00  0.00     0.035 A 
HETATM   18  C   UNL     1     -40.444  54.003 -51.205  1.00  0.00     0.030 A 
HETATM   19  C   UNL     1     -40.024  52.686 -50.989  1.00  0.00     0.014 A 
HETATM   20  C   UNL     1     -39.952  51.768 -52.044  1.00  0.00    -0.026 A 
HETATM   21  C   UNL     1     -39.530  50.444 -51.838  1.00  0.00     0.012 A 
HETATM   22  C   UNL     1     -40.313  52.186 -53.342  1.00  0.00    -0.024 A 
HETATM   23  C   UNL     1     -39.464  49.544 -52.902  1.00  0.00     0.001 A 
HETATM   24  C   UNL     1     -39.822  49.954 -54.183  1.00  0.00     0.001 A 
HETATM   25  C   UNL     1     -40.244  51.267 -54.403  1.00  0.00     0.012 A 
HETATM   26  C   UNL     1     -40.732  53.515 -53.544  1.00  0.00     0.042 A 
ENDBRANCH   1  17
TORSDOF 5
ENDMDL
MODEL 5
REMARK VINA RESULT:      -7.6      4.199      5.830
REMARK  5 active torsions:
REMARK  status: ('A' for Active; 'I' for Inactive)
REMARK    1  A    between atoms: C_9  and  N_10 
REMARK       I    between atoms: N_10  and  C_11 
REMARK    2  A    between atoms: C_11  and  C_12 
REMARK    3  A    between atoms: C_12  and  N_13 
REMARK    4  A    between atoms: C_12  and  C_17 
REMARK    5  A    between atoms: C_17  and  C_18 
ROOT
HETATM    1  N   UNL     1     -40.908  55.599 -53.464  1.00  0.00    -0.325 N 
HETATM    2  C   UNL     1     -42.029  56.217 -53.978  1.00  0.00     0.253 C 
HETATM    3  O   UNL     1     -42.957  55.691 -54.593  1.00  0.00    -0.271 OA
HETATM    4  H   UNL     1     -40.230  56.155 -52.954  1.00  0.00     0.169 HD
ENDROOT
BRANCH   2   5
HETATM    5  C   UNL     1     -42.106  57.729 -53.729  1.00  0.00     0.280 C 
BRANCH   5   6
HETATM    6  N   UNL     1     -40.703  58.279 -53.610  1.00  0.00    -0.066 N 
HETATM    7  H   UNL     1     -40.739  59.318 -53.668  1.00  0.00     0.275 HD
HETATM    8  H   UNL     1     -40.297  58.011 -52.703  1.00  0.00     0.275 HD
HETATM    9  H   UNL     1     -40.080  57.918 -54.338  1.00  0.00     0.275 HD
ENDBRANCH   5   6
BRANCH   5  10
HETATM   10  C   UNL     1     -42.895  58.025 -52.447  1.00  0.00     0.103 C 
BRANCH  10  11
HETATM   11  C   UNL     1     -42.553  57.085 -51.341  1.00  0.00     0.053 A 
HETATM   12  N   UNL     1     -41.314  57.154 -50.736  1.00  0.00    -0.247 NA
HETATM   13  C   UNL     1     -41.317  56.193 -49.835  1.00  0.00     0.207 A 
HETATM   14  N   UNL     1     -42.501  55.511 -49.830  1.00  0.00    -0.359 N 
HETATM   15  H   UNL     1     -42.735  54.727 -49.230  1.00  0.00     0.166 HD
HETATM   16  C   UNL     1     -43.302  56.074 -50.788  1.00  0.00     0.116 A 
ENDBRANCH  10  11
ENDBRANCH   5  10
ENDBRANCH   2   5
BRANCH   1  17
HETATM   17  C   UNL     1     -40.591  54.222 -53.532  1.00  0.00     0.035 A 
HETATM   18  C   UNL     1     -40.444  53.511 -54.722  1.00  0.00     0.030 A 
HETATM   19  C   UNL     1     -40.140  52.145 -54.699  1.00  0.00     0.014 A 
HETATM   20  C   UNL     1     -39.974  51.462 -53.487  1.00  0.00    -0.026 A 
HETATM   21  C   UNL     1     -39.672  50.091 -53.453  1.00  0.00     0.012 A 
HETATM   22  C   UNL     1     -40.115  52.172 -52.275  1.00  0.00    -0.024 A 
HETATM   23  C   UNL     1     -39.509  49.428 -52.237  1.00  0.00     0.001 A 
HETATM   24  C   UNL     1     -39.645  50.126 -51.040  1.00  0.00     0.001 A 
HETATM   25  C   UNL     1     -39.946  51.489 -51.058  1.00  0.00     0.012 A 
HETATM   26  C   UNL     1     -40.422  53.545 -52.315  1.00  0.00     0.042 A 
ENDBRANCH   1  17
TORSDOF 5
ENDMDL
MODEL 6
REMARK VINA RESULT:      -7.4      4.121      5.241
REMARK  5 active torsions:
REMARK  status: ('A' for Active; 'I' for Inactive)
REMARK    1  A    between atoms: C_9  and  N_10 
REMARK       I    between atoms: N_10  and  C_11 
REMARK    2  A    between atoms: C_11  and  C_12 
REMARK    3  A    between atoms: C_12  and  N_13 
REMARK    4  A    between atoms: C_12  and  C_17 
REMARK    5  A    between atoms: C_17  and  C_18 
ROOT
HETATM    1  N   UNL     1     -41.242  55.869 -52.389  1.00  0.00    -0.325 N 
HETATM    2  C   UNL     1     -42.480  56.247 -51.909  1.00  0.00     0.253 C 
HETATM    3  O   UNL     1     -43.488  55.548 -51.811  1.00  0.00    -0.271 OA
HETATM    4  H   UNL     1     -40.487  56.547 -52.389  1.00  0.00     0.169 HD
ENDROOT
BRANCH   2   5
HETATM    5  C   UNL     1     -42.574  57.704 -51.439  1.00  0.00     0.280 C 
BRANCH   5   6
HETATM    6  N   UNL     1     -43.889  58.286 -51.908  1.00  0.00    -0.066 N 
HETATM    7  H   UNL     1     -43.831  58.479 -52.930  1.00  0.00     0.275 HD
HETATM    8  H   UNL     1     -44.650  57.614 -51.739  1.00  0.00     0.275 HD
HETATM    9  H   UNL     1     -44.132  59.148 -51.411  1.00  0.00     0.275 HD
ENDBRANCH   5   6
BRANCH   5  10
HETATM   10  C   UNL     1     -41.408  58.529 -51.998  1.00  0.00     0.103 C 
BRANCH  10  11
HETATM   11  C   UNL     1     -41.760  59.217 -53.272  1.00  0.00     0.053 A 
HETATM   12  N   UNL     1     -41.760  58.512 -54.460  1.00  0.00    -0.247 NA
HETATM   13  C   UNL     1     -42.083  59.393 -55.384  1.00  0.00     0.207 A 
HETATM   14  N   UNL     1     -42.294  60.633 -54.847  1.00  0.00    -0.359 N 
HETATM   15  H   UNL     1     -42.545  61.470 -55.360  1.00  0.00     0.166 HD
HETATM   16  C   UNL     1     -42.093  60.532 -53.495  1.00  0.00     0.116 A 
ENDBRANCH  10  11
ENDBRANCH   5  10
ENDBRANCH   2   5
BRANCH   1  17
HETATM   17  C   UNL     1     -40.870  54.591 -52.867  1.00  0.00     0.035 A 
HETATM   18  C   UNL     1     -40.810  54.248 -54.217  1.00  0.00     0.030 A 
HETATM   19  C   UNL     1     -40.443  52.954 -54.604  1.00  0.00     0.014 A 
HETATM   20  C   UNL     1     -40.126  51.978 -53.651  1.00  0.00    -0.026 A 
HETATM   21  C   UNL     1     -39.759  50.676 -54.029  1.00  0.00     0.012 A 
HETATM   22  C   UNL     1     -40.177  52.314 -52.282  1.00  0.00    -0.024 A 
HETATM   23  C   UNL     1     -39.446  49.716 -53.066  1.00  0.00     0.001 A 
HETATM   24  C   UNL     1     -39.494  50.046 -51.715  1.00  0.00     0.001 A 
HETATM   25  C   UNL     1     -39.857  51.336 -51.324  1.00  0.00     0.012 A 
HETATM   26  C   UNL     1     -40.550  53.619 -51.908  1.00  0.00     0.042 A 
ENDBRANCH   1  17
TORSDOF 5
ENDMDL
MODEL 7
REMARK VINA RESULT:      -7.4      4.881      6.766
REMARK  5 active torsions:
REMARK  status: ('A' for Active; 'I' for Inactive)
REMARK    1  A    between atoms: C_9  and  N_10 
REMARK       I    between atoms: N_10  and  C_11 
REMARK    2  A    between atoms: C_11  and  C_12 
REMARK    3  A    between atoms: C_12  and  N_13 
REMARK    4  A    between atoms: C_12  and  C_17 
REMARK    5  A    between atoms: C_17  and  C_18 
ROOT
HETATM    1  N   UNL     1     -41.086  55.682 -51.818  1.00  0.00    -0.325 N 
HETATM    2  C   UNL     1     -42.103  56.562 -52.130  1.00  0.00     0.253 C 
HETATM    3  O   UNL     1     -42.922  56.463 -53.043  1.00  0.00    -0.271 OA
HETATM    4  H   UNL     1     -40.495  55.878 -51.017  1.00  0.00     0.169 HD
ENDROOT
BRANCH   2   5
HETATM    5  C   UNL     1     -42.205  57.785 -51.210  1.00  0.00     0.280 C 
BRANCH   5   6
HETATM    6  N   UNL     1     -43.663  58.054 -50.912  1.00  0.00    -0.066 N 
HETATM    7  H   UNL     1     -43.928  57.558 -50.035  1.00  0.00     0.275 HD
HETATM    8  H   UNL     1     -43.814  59.064 -50.781  1.00  0.00     0.275 HD
HETATM    9  H   UNL     1     -44.278  57.753 -51.673  1.00  0.00     0.275 HD
ENDBRANCH   5   6
BRANCH   5  10
HETATM   10  C   UNL     1     -41.571  59.015 -51.872  1.00  0.00     0.103 C 
BRANCH  10  11
HETATM   11  C   UNL     1     -40.177  59.256 -51.401  1.00  0.00     0.053 A 
HETATM   12  N   UNL     1     -39.956  59.817 -50.159  1.00  0.00    -0.247 NA
HETATM   13  C   UNL     1     -38.647  59.919 -50.055  1.00  0.00     0.207 A 
HETATM   14  N   UNL     1     -38.014  59.447 -51.171  1.00  0.00    -0.359 N 
HETATM   15  H   UNL     1     -37.012  59.429 -51.326  1.00  0.00     0.166 HD
HETATM   16  C   UNL     1     -38.983  59.017 -52.040  1.00  0.00     0.116 A 
ENDBRANCH  10  11
ENDBRANCH   5  10
ENDBRANCH   2   5
BRANCH   1  17
HETATM   17  C   UNL     1     -40.775  54.473 -52.483  1.00  0.00     0.035 A 
HETATM   18  C   UNL     1     -40.792  54.315 -53.868  1.00  0.00     0.030 A 
HETATM   19  C   UNL     1     -40.482  53.079 -54.444  1.00  0.00     0.014 A 
HETATM   20  C   UNL     1     -40.145  51.975 -53.650  1.00  0.00    -0.026 A 
HETATM   21  C   UNL     1     -39.834  50.729 -54.219  1.00  0.00     0.012 A 
HETATM   22  C   UNL     1     -40.119  52.123 -52.247  1.00  0.00    -0.024 A 
HETATM   23  C   UNL     1     -39.501  49.641 -53.412  1.00  0.00     0.001 A 
HETATM   24  C   UNL     1     -39.472  49.785 -52.027  1.00  0.00     0.001 A 
HETATM   25  C   UNL     1     -39.779  51.018 -51.448  1.00  0.00     0.012 A 
HETATM   26  C   UNL     1     -40.435  53.373 -51.682  1.00  0.00     0.042 A 
ENDBRANCH   1  17
TORSDOF 5
ENDMDL
MODEL 8
REMARK VINA RESULT:      -7.4      2.685      4.502
REMARK  5 active torsions:
REMARK  status: ('A' for Active; 'I' for Inactive)
REMARK    1  A    between atoms: C_9  and  N_10 
REMARK       I    between atoms: N_10  and  C_11 
REMARK    2  A    between atoms: C_11  and  C_12 
REMARK    3  A    between atoms: C_12  and  N_13 
REMARK    4  A    between atoms: C_12  and  C_17 
REMARK    5  A    between atoms: C_17  and  C_18 
ROOT
HETATM    1  N   UNL     1     -41.804  55.464 -54.441  1.00  0.00    -0.325 N 
HETATM    2  C   UNL     1     -43.140  55.666 -54.723  1.00  0.00     0.253 C 
HETATM    3  O   UNL     1     -44.090  54.962 -54.381  1.00  0.00    -0.271 OA
HETATM    4  H   UNL     1     -41.124  56.143 -54.768  1.00  0.00     0.169 HD
ENDROOT
BRANCH   2   5
HETATM    5  C   UNL     1     -43.444  56.924 -55.546  1.00  0.00     0.280 C 
BRANCH   5   6
HETATM    6  N   UNL     1     -43.972  56.508 -56.901  1.00  0.00    -0.066 N 
HETATM    7  H   UNL     1     -43.182  56.159 -57.482  1.00  0.00     0.275 HD
HETATM    8  H   UNL     1     -44.663  55.752 -56.791  1.00  0.00     0.275 HD
HETATM    9  H   UNL     1     -44.441  57.276 -57.389  1.00  0.00     0.275 HD
ENDBRANCH   5   6
BRANCH   5  10
HETATM   10  C   UNL     1     -42.181  57.777 -55.717  1.00  0.00     0.103 C 
BRANCH  10  11
HETATM   11  C   UNL     1     -42.032  58.790 -54.633  1.00  0.00     0.053 A 
HETATM   12  N   UNL     1     -41.293  58.491 -53.506  1.00  0.00    -0.247 NA
HETATM   13  C   UNL     1     -41.374  59.563 -52.745  1.00  0.00     0.207 A 
HETATM   14  N   UNL     1     -42.129  60.540 -53.331  1.00  0.00    -0.359 N 
HETATM   15  H   UNL     1     -42.340  61.450 -52.935  1.00  0.00     0.166 HD
HETATM   16  C   UNL     1     -42.554  60.059 -54.541  1.00  0.00     0.116 A 
ENDBRANCH  10  11
ENDBRANCH   5  10
ENDBRANCH   2   5
BRANCH   1  17
HETATM   17  C   UNL     1     -41.245  54.403 -53.690  1.00  0.00     0.035 A 
HETATM   18  C   UNL     1     -40.908  54.491 -52.341  1.00  0.00     0.030 A 
HETATM   19  C   UNL     1     -40.348  53.394 -51.677  1.00  0.00     0.014 A 
HETATM   20  C   UNL     1     -40.116  52.186 -52.346  1.00  0.00    -0.026 A 
HETATM   21  C   UNL     1     -39.552  51.080 -51.689  1.00  0.00     0.012 A 
HETATM   22  C   UNL     1     -40.457  52.082 -53.711  1.00  0.00    -0.024 A 
HETATM   23  C   UNL     1     -39.328  49.884 -52.372  1.00  0.00     0.001 A 
HETATM   24  C   UNL     1     -39.666  49.778 -53.718  1.00  0.00     0.001 A 
HETATM   25  C   UNL     1     -40.227  50.870 -54.384  1.00  0.00     0.012 A 
HETATM   26  C   UNL     1     -41.018  53.194 -54.366  1.00  0.00     0.042 A 
ENDBRANCH   1  17
TORSDOF 5
ENDMDL
MODEL 9
REMARK VINA RESULT:      -7.3      4.035      6.051
REMARK  5 active torsions:
REMARK  status: ('A' for Active; 'I' for Inactive)
REMARK    1  A    between atoms: C_9  and  N_10 
REMARK       I    between atoms: N_10  and  C_11 
REMARK    2  A    between atoms: C_11  and  C_12 
REMARK    3  A    between atoms: C_12  and  N_13 
REMARK    4  A    between atoms: C_12  and  C_17 
REMARK    5  A    between atoms: C_17  and  C_18 
ROOT
HETATM    1  N   UNL     1     -41.038  55.649 -53.328  1.00  0.00    -0.325 N 
HETATM    2  C   UNL     1     -42.281  56.185 -53.601  1.00  0.00     0.253 C 
HETATM    3  O   UNL     1     -43.301  55.577 -53.925  1.00  0.00    -0.271 OA
HETATM    4  H   UNL     1     -40.287  56.269 -53.046  1.00  0.00     0.169 HD
ENDROOT
BRANCH   2   5
HETATM    5  C   UNL     1     -42.372  57.709 -53.463  1.00  0.00     0.280 C 
BRANCH   5   6
HETATM    6  N   UNL     1     -42.155  58.339 -54.821  1.00  0.00    -0.066 N 
HETATM    7  H   UNL     1     -42.540  59.307 -54.813  1.00  0.00     0.275 HD
HETATM    8  H   UNL     1     -41.148  58.383 -55.030  1.00  0.00     0.275 HD
HETATM    9  H   UNL     1     -42.596  57.802 -55.574  1.00  0.00     0.275 HD
ENDBRANCH   5   6
BRANCH   5  10
HETATM   10  C   UNL     1     -41.321  58.227 -52.473  1.00  0.00     0.103 C 
BRANCH  10  11
HETATM   11  C   UNL     1     -41.801  59.412 -51.706  1.00  0.00     0.053 A 
HETATM   12  N   UNL     1     -42.587  60.363 -52.326  1.00  0.00    -0.247 NA
HETATM   13  C   UNL     1     -42.818  61.274 -51.404  1.00  0.00     0.207 A 
HETATM   14  N   UNL     1     -42.219  60.953 -50.217  1.00  0.00    -0.359 N 
HETATM   15  H   UNL     1     -42.250  61.503 -49.366  1.00  0.00     0.166 HD
HETATM   16  C   UNL     1     -41.567  59.761 -50.397  1.00  0.00     0.116 A 
ENDBRANCH  10  11
ENDBRANCH   5  10
ENDBRANCH   2   5
BRANCH   1  17
HETATM   17  C   UNL     1     -40.678  54.281 -53.359  1.00  0.00     0.035 A 
HETATM   18  C   UNL     1     -40.440  53.561 -54.529  1.00  0.00     0.030 A 
HETATM   19  C   UNL     1     -40.098  52.206 -54.470  1.00  0.00     0.014 A 
HETATM   20  C   UNL     1     -39.984  51.542 -53.242  1.00  0.00    -0.026 A 
HETATM   21  C   UNL     1     -39.644  50.181 -53.173  1.00  0.00     0.012 A 
HETATM   22  C   UNL     1     -40.216  52.261 -52.050  1.00  0.00    -0.024 A 
HETATM   23  C   UNL     1     -39.534  49.537 -51.940  1.00  0.00     0.001 A 
HETATM   24  C   UNL     1     -39.761  50.244 -50.763  1.00  0.00     0.001 A 
HETATM   25  C   UNL     1     -40.100  51.597 -50.817  1.00  0.00     0.012 A 
HETATM   26  C   UNL     1     -40.561  53.623 -52.126  1.00  0.00     0.042 A 
ENDBRANCH   1  17
TORSDOF 5
ENDMDL
MODEL 10
REMARK VINA RESULT:      -7.2      3.941      5.168
REMARK  5 active torsions:
REMARK  status: ('A' for Active; 'I' for Inactive)
REMARK    1  A    between atoms: C_9  and  N_10 
REMARK       I    between atoms: N_10  and  C_11 
REMARK    2  A    between atoms: C_11  and  C_12 
REMARK    3  A    between atoms: C_12  and  N_13 
REMARK    4  A    between atoms: C_12  and  C_17 
REMARK    5  A    between atoms: C_17  and  C_18 
ROOT
HETATM    1  N   UNL     1     -42.117  56.423 -52.295  1.00  0.00    -0.325 N 
HETATM    2  C   UNL     1     -41.530  57.667 -52.405  1.00  0.00     0.253 C 
HETATM    3  O   UNL     1     -40.489  57.952 -52.995  1.00  0.00    -0.271 OA
HETATM    4  H   UNL     1     -42.996  56.336 -51.796  1.00  0.00     0.169 HD
ENDROOT
BRANCH   2   5
HETATM    5  C   UNL     1     -42.293  58.805 -51.715  1.00  0.00     0.280 C 
BRANCH   5   6
HETATM    6  N   UNL     1     -41.726  59.006 -50.328  1.00  0.00    -0.066 N 
HETATM    7  H   UNL     1     -41.848  58.129 -49.780  1.00  0.00     0.275 HD
HETATM    8  H   UNL     1     -40.721  59.223 -50.388  1.00  0.00     0.275 HD
HETATM    9  H   UNL     1     -42.173  59.783 -49.833  1.00  0.00     0.275 HD
ENDBRANCH   5   6
BRANCH   5  10
HETATM   10  C   UNL     1     -43.789  58.478 -51.627  1.00  0.00     0.103 C 
BRANCH  10  11
HETATM   11  C   UNL     1     -44.496  58.704 -52.920  1.00  0.00     0.053 A 
HETATM   12  N   UNL     1     -44.603  57.677 -53.837  1.00  0.00    -0.247 NA
HETATM   13  C   UNL     1     -45.246  58.195 -54.862  1.00  0.00     0.207 A 
HETATM   14  N   UNL     1     -45.562  59.508 -54.648  1.00  0.00    -0.359 N 
HETATM   15  H   UNL     1     -46.049  60.118 -55.295  1.00  0.00     0.166 HD
HETATM   16  C   UNL     1     -45.088  59.845 -53.407  1.00  0.00     0.116 A 
ENDBRANCH  10  11
ENDBRANCH   5  10
ENDBRANCH   2   5
BRANCH   1  17
HETATM   17  C   UNL     1     -41.643  55.209 -52.845  1.00  0.00     0.035 A 
HETATM   18  C   UNL     1     -41.753  54.863 -54.190  1.00  0.00     0.030 A 
HETATM   19  C   UNL     1     -41.266  53.634 -54.649  1.00  0.00     0.014 A 
HETATM   20  C   UNL     1     -40.656  52.726 -53.774  1.00  0.00    -0.026 A 
HETATM   21  C   UNL     1     -40.167  51.489 -54.224  1.00  0.00     0.012 A 
HETATM   22  C   UNL     1     -40.534  53.066 -52.410  1.00  0.00    -0.024 A 
HETATM   23  C   UNL     1     -39.562  50.598 -53.337  1.00  0.00     0.001 A 
HETATM   24  C   UNL     1     -39.438  50.932 -51.992  1.00  0.00     0.001 A 
HETATM   25  C   UNL     1     -39.921  52.158 -51.530  1.00  0.00     0.012 A 
HETATM   26  C   UNL     1     -41.030  54.305 -51.963  1.00  0.00     0.042 A 
ENDBRANCH   1  17
TORSDOF 5
ENDMDL
