MODEL 1
REMARK VINA RESULT:      -7.9      0.000      0.000
REMARK  6 active torsions:
REMARK  status: ('A' for Active; 'I' for Inactive)
REMARK    1  A    between atoms: C_2  and  N_3 
REMARK    2  A    between atoms: C_2  and  C_16 
REMARK    3  A    between atoms: N_3  and  C_6 
REMARK    4  A    between atoms: C_16  and  C_17 
REMARK       I    between atoms: C_17  and  N_18 
REMARK    5  A    between atoms: N_18  and  C_19 
REMARK    6  A    between atoms: C_21  and  O_22 
ROOT
HETATM    1  C   UNL     1     -44.253  57.190 -51.450  1.00  0.00     0.040 C 
HETATM    2  C   UNL     1     -43.510  56.664 -52.676  1.00  0.00     0.191 C 
ENDROOT
BRANCH   2   3
HETATM    3  N   UNL     1     -42.902  55.292 -52.396  1.00  0.00    -0.063 N 
HETATM    4  H   UNL     1     -43.545  54.831 -51.740  1.00  0.00     0.278 HD
HETATM    5  H   UNL     1     -43.001  54.739 -53.259  1.00  0.00     0.278 HD
BRANCH   3   6
HETATM    6  C   UNL     1     -41.495  55.047 -51.861  1.00  0.00     0.221 C 
HETATM    7  C   UNL     1     -40.837  53.792 -52.391  1.00  0.00    -0.011 A 
HETATM    8  C   UNL     1     -40.307  52.804 -51.544  1.00  0.00     0.009 A 
HETATM    9  C   UNL     1     -40.710  53.613 -53.786  1.00  0.00     0.011 A 
HETATM   10  C   UNL     1     -39.766  51.630 -52.085  1.00  0.00     0.019 A 
HETATM   11  S   UNL     1     -40.262  52.984 -49.775  1.00  0.00    -0.129 SA
HETATM   12  C   UNL     1     -39.698  51.449 -53.465  1.00  0.00     0.001 A 
HETATM   13  C   UNL     1     -40.155  52.447 -54.316  1.00  0.00     0.001 A 
HETATM   14  C   UNL     1     -40.204  54.791 -49.683  1.00  0.00     0.082 C 
HETATM   15  C   UNL     1     -41.457  55.326 -50.351  1.00  0.00     0.048 C 
ENDBRANCH   3   6
ENDBRANCH   2   3
BRANCH   2  16
HETATM   16  C   UNL     1     -44.355  56.697 -53.950  1.00  0.00     0.135 C 
BRANCH  16  17
HETATM   17  C   UNL     1     -43.489  56.593 -55.191  1.00  0.00     0.224 C 
HETATM   18  N   UNL     1     -44.115  57.115 -56.305  1.00  0.00    -0.327 N 
HETATM   19  H   UNL     1     -45.037  57.519 -56.182  1.00  0.00     0.169 HD
HETATM   20  O   UNL     1     -42.389  56.056 -55.135  1.00  0.00    -0.273 OA
BRANCH  18  21
HETATM   21  C   UNL     1     -43.613  57.182 -57.625  1.00  0.00     0.037 A 
HETATM   22  C   UNL     1     -44.099  56.417 -58.690  1.00  0.00     0.066 A 
HETATM   23  C   UNL     1     -43.540  56.544 -59.967  1.00  0.00     0.070 A 
HETATM   24  C   UNL     1     -42.485  57.435 -60.171  1.00  0.00     0.037 A 
HETATM   25  C   UNL     1     -41.995  58.203 -59.119  1.00  0.00     0.005 A 
HETATM   26  C   UNL     1     -42.559  58.078 -57.851  1.00  0.00     0.029 A 
BRANCH  23  27
HETATM   27  O   UNL     1     -43.926  55.859 -61.086  1.00  0.00    -0.356 OA
HETATM   28  C   UNL     1     -45.047  54.994 -60.965  1.00  0.00     0.210 C 
ENDBRANCH  23  27
ENDBRANCH  18  21
ENDBRANCH  16  17
ENDBRANCH   2  16
TORSDOF 6
ENDMDL
MODEL 2
REMARK VINA RESULT:      -7.7      1.120      1.716
REMARK  6 active torsions:
REMARK  status: ('A' for Active; 'I' for Inactive)
REMARK    1  A    between atoms: C_2  and  N_3 
REMARK    2  A    between atoms: C_2  and  C_16 
REMARK    3  A    between atoms: N_3  and  C_6 
REMARK    4  A    between atoms: C_16  and  C_17 
REMARK       I    between atoms: C_17  and  N_18 
REMARK    5  A    between atoms: N_18  and  C_19 
REMARK    6  A    between atoms: C_21  and  O_22 
ROOT
HETATM    1  C   UNL     1     -44.343  57.415 -51.477  1.00  0.00     0.040 C 
HETATM    2  C   UNL     1     -43.526  56.850 -52.637  1.00  0.00     0.191 C 
ENDROOT
BRANCH   2   3
HETATM    3  N   UNL     1     -42.986  55.464 -52.296  1.00  0.00    -0.063 N 
HETATM    4  H   UNL     1     -43.624  55.083 -51.585  1.00  0.00     0.278 HD
HETATM    5  H   UNL     1     -43.156  54.866 -53.117  1.00  0.00     0.278 HD
BRANCH   3   6
HETATM    6  C   UNL     1     -41.573  55.167 -51.805  1.00  0.00     0.221 C 
HETATM    7  C   UNL     1     -40.905  54.000 -52.499  1.00  0.00    -0.011 A 
HETATM    8  C   UNL     1     -40.358  52.915 -51.792  1.00  0.00     0.009 A 
HETATM    9  C   UNL     1     -40.786  54.007 -53.906  1.00  0.00     0.011 A 
HETATM   10  C   UNL     1     -39.809  51.829 -52.485  1.00  0.00     0.019 A 
HETATM   11  S   UNL     1     -40.303  52.863 -50.015  1.00  0.00    -0.129 SA
HETATM   12  C   UNL     1     -39.748  51.831 -53.877  1.00  0.00     0.001 A 
HETATM   13  C   UNL     1     -40.222  52.927 -54.587  1.00  0.00     0.001 A 
HETATM   14  C   UNL     1     -40.264  54.643 -49.686  1.00  0.00     0.082 C 
HETATM   15  C   UNL     1     -41.527  55.245 -50.272  1.00  0.00     0.048 C 
ENDBRANCH   3   6
ENDBRANCH   2   3
BRANCH   2  16
HETATM   16  C   UNL     1     -44.269  56.893 -53.972  1.00  0.00     0.135 C 
BRANCH  16  17
HETATM   17  C   UNL     1     -43.305  57.001 -55.138  1.00  0.00     0.224 C 
HETATM   18  N   UNL     1     -43.960  57.015 -56.353  1.00  0.00    -0.327 N 
HETATM   19  H   UNL     1     -44.973  56.979 -56.343  1.00  0.00     0.169 HD
HETATM   20  O   UNL     1     -42.095  57.027 -54.941  1.00  0.00    -0.273 OA
BRANCH  18  21
HETATM   21  C   UNL     1     -43.386  57.101 -57.642  1.00  0.00     0.037 A 
HETATM   22  C   UNL     1     -42.978  58.297 -58.242  1.00  0.00     0.066 A 
HETATM   23  C   UNL     1     -42.421  58.292 -59.526  1.00  0.00     0.070 A 
HETATM   24  C   UNL     1     -42.281  57.084 -60.211  1.00  0.00     0.037 A 
HETATM   25  C   UNL     1     -42.680  55.888 -59.622  1.00  0.00     0.005 A 
HETATM   26  C   UNL     1     -43.228  55.897 -58.341  1.00  0.00     0.029 A 
BRANCH  23  27
HETATM   27  O   UNL     1     -41.983  59.387 -60.218  1.00  0.00    -0.356 OA
HETATM   28  C   UNL     1     -42.968  60.303 -60.678  1.00  0.00     0.210 C 
ENDBRANCH  23  27
ENDBRANCH  18  21
ENDBRANCH  16  17
ENDBRANCH   2  16
TORSDOF 6
ENDMDL
MODEL 3
REMARK VINA RESULT:      -7.6      3.313      5.656
REMARK  6 active torsions:
REMARK  status: ('A' for Active; 'I' for Inactive)
REMARK    1  A    between atoms: C_2  and  N_3 
REMARK    2  A    between atoms: C_2  and  C_16 
REMARK    3  A    between atoms: N_3  and  C_6 
REMARK    4  A    between atoms: C_16  and  C_17 
REMARK       I    between atoms: C_17  and  N_18 
REMARK    5  A    between atoms: N_18  and  C_19 
REMARK    6  A    between atoms: C_21  and  O_22 
ROOT
HETATM    1  C   UNL     1     -40.227  54.654 -55.093  1.00  0.00     0.040 C 
HETATM    2  C   UNL     1     -41.697  54.469 -54.724  1.00  0.00     0.191 C 
ENDROOT
BRANCH   2   3
HETATM    3  N   UNL     1     -41.838  53.944 -53.298  1.00  0.00    -0.063 N 
HETATM    4  H   UNL     1     -42.543  54.542 -52.849  1.00  0.00     0.278 HD
HETATM    5  H   UNL     1     -42.305  53.028 -53.360  1.00  0.00     0.278 HD
BRANCH   3   6
HETATM    6  C   UNL     1     -40.696  53.802 -52.297  1.00  0.00     0.221 C 
HETATM    7  C   UNL     1     -40.286  52.373 -52.018  1.00  0.00    -0.011 A 
HETATM    8  C   UNL     1     -40.229  51.844 -50.717  1.00  0.00     0.009 A 
HETATM    9  C   UNL     1     -39.906  51.540 -53.093  1.00  0.00     0.011 A 
HETATM   10  C   UNL     1     -39.906  50.496 -50.519  1.00  0.00     0.019 A 
HETATM   11  S   UNL     1     -40.531  52.833 -49.270  1.00  0.00    -0.129 SA
HETATM   12  C   UNL     1     -39.585  49.676 -51.599  1.00  0.00     0.001 A 
HETATM   13  C   UNL     1     -39.569  50.201 -52.885  1.00  0.00     0.001 A 
HETATM   14  C   UNL     1     -40.028  54.444 -49.926  1.00  0.00     0.082 C 
HETATM   15  C   UNL     1     -40.921  54.755 -51.113  1.00  0.00     0.048 C 
ENDBRANCH   3   6
ENDBRANCH   2   3
BRANCH   2  16
HETATM   16  C   UNL     1     -42.545  55.713 -54.991  1.00  0.00     0.135 C 
BRANCH  16  17
HETATM   17  C   UNL     1     -42.797  56.495 -53.716  1.00  0.00     0.224 C 
HETATM   18  N   UNL     1     -41.876  57.509 -53.539  1.00  0.00    -0.327 N 
HETATM   19  H   UNL     1     -41.172  57.637 -54.257  1.00  0.00     0.169 HD
HETATM   20  O   UNL     1     -43.709  56.175 -52.963  1.00  0.00    -0.273 OA
BRANCH  18  21
HETATM   21  C   UNL     1     -41.801  58.429 -52.468  1.00  0.00     0.037 A 
HETATM   22  C   UNL     1     -42.767  59.406 -52.203  1.00  0.00     0.066 A 
HETATM   23  C   UNL     1     -42.612  60.280 -51.122  1.00  0.00     0.070 A 
HETATM   24  C   UNL     1     -41.481  60.178 -50.310  1.00  0.00     0.037 A 
HETATM   25  C   UNL     1     -40.516  59.208 -50.562  1.00  0.00     0.005 A 
HETATM   26  C   UNL     1     -40.677  58.335 -51.636  1.00  0.00     0.029 A 
BRANCH  23  27
HETATM   27  O   UNL     1     -43.481  61.272 -50.757  1.00  0.00    -0.356 OA
HETATM   28  C   UNL     1     -44.711  60.873 -50.166  1.00  0.00     0.210 C 
ENDBRANCH  23  27
ENDBRANCH  18  21
ENDBRANCH  16  17
ENDBRANCH   2  16
TORSDOF 6
ENDMDL
MODEL 4
REMARK VINA RESULT:      -7.5      1.544      2.183
REMARK  6 active torsions:
REMARK  status: ('A' for Active; 'I' for Inactive)
REMARK    1  A    between atoms: C_2  and  N_3 
REMARK    2  A    between atoms: C_2  and  C_16 
REMARK    3  A    between atoms: N_3  and  C_6 
REMARK    4  A    between atoms: C_16  and  C_17 
REMARK       I    between atoms: C_17  and  N_18 
REMARK    5  A    between atoms: N_18  and  C_19 
REMARK    6  A    between atoms: C_21  and  O_22 
ROOT
HETATM    1  C   UNL     1     -40.137  54.107 -55.243  1.00  0.00     0.040 C 
HETATM    2  C   UNL     1     -41.453  54.580 -54.629  1.00  0.00     0.191 C 
ENDROOT
BRANCH   2   3
HETATM    3  N   UNL     1     -41.664  53.958 -53.251  1.00  0.00    -0.063 N 
HETATM    4  H   UNL     1     -42.454  54.468 -52.833  1.00  0.00     0.278 HD
HETATM    5  H   UNL     1     -42.042  53.013 -53.403  1.00  0.00     0.278 HD
BRANCH   3   6
HETATM    6  C   UNL     1     -40.601  53.850 -52.163  1.00  0.00     0.221 C 
HETATM    7  C   UNL     1     -40.259  52.432 -51.765  1.00  0.00    -0.011 A 
HETATM    8  C   UNL     1     -40.311  51.989 -50.432  1.00  0.00     0.009 A 
HETATM    9  C   UNL     1     -39.832  51.519 -52.754  1.00  0.00     0.011 A 
HETATM   10  C   UNL     1     -40.047  50.648 -50.125  1.00  0.00     0.019 A 
HETATM   11  S   UNL     1     -40.679  53.081 -49.076  1.00  0.00    -0.129 SA
HETATM   12  C   UNL     1     -39.679  49.750 -51.124  1.00  0.00     0.001 A 
HETATM   13  C   UNL     1     -39.556  50.188 -52.436  1.00  0.00     0.001 A 
HETATM   14  C   UNL     1     -40.079  54.629 -49.797  1.00  0.00     0.082 C 
HETATM   15  C   UNL     1     -40.876  54.886 -51.062  1.00  0.00     0.048 C 
ENDBRANCH   3   6
ENDBRANCH   2   3
BRANCH   2  16
HETATM   16  C   UNL     1     -41.605  56.101 -54.631  1.00  0.00     0.135 C 
BRANCH  16  17
HETATM   17  C   UNL     1     -42.615  56.555 -55.666  1.00  0.00     0.224 C 
HETATM   18  N   UNL     1     -42.034  56.764 -56.901  1.00  0.00    -0.327 N 
HETATM   19  H   UNL     1     -41.041  56.578 -56.993  1.00  0.00     0.169 HD
HETATM   20  O   UNL     1     -43.787  56.731 -55.353  1.00  0.00    -0.273 OA
BRANCH  18  21
HETATM   21  C   UNL     1     -42.666  57.192 -58.091  1.00  0.00     0.037 A 
HETATM   22  C   UNL     1     -43.532  56.397 -58.850  1.00  0.00     0.066 A 
HETATM   23  C   UNL     1     -44.112  56.900 -60.020  1.00  0.00     0.070 A 
HETATM   24  C   UNL     1     -43.817  58.201 -60.431  1.00  0.00     0.037 A 
HETATM   25  C   UNL     1     -42.960  59.001 -59.682  1.00  0.00     0.005 A 
HETATM   26  C   UNL     1     -42.389  58.499 -58.514  1.00  0.00     0.029 A 
BRANCH  23  27
HETATM   27  O   UNL     1     -44.973  56.229 -60.844  1.00  0.00    -0.356 OA
HETATM   28  C   UNL     1     -44.921  54.808 -60.820  1.00  0.00     0.210 C 
ENDBRANCH  23  27
ENDBRANCH  18  21
ENDBRANCH  16  17
ENDBRANCH   2  16
TORSDOF 6
ENDMDL
MODEL 5
REMARK VINA RESULT:      -7.4      3.190      5.588
REMARK  6 active torsions:
REMARK  status: ('A' for Active; 'I' for Inactive)
REMARK    1  A    between atoms: C_2  and  N_3 
REMARK    2  A    between atoms: C_2  and  C_16 
REMARK    3  A    between atoms: N_3  and  C_6 
REMARK    4  A    between atoms: C_16  and  C_17 
REMARK       I    between atoms: C_17  and  N_18 
REMARK    5  A    between atoms: N_18  and  C_19 
REMARK    6  A    between atoms: C_21  and  O_22 
ROOT
HETATM    1  C   UNL     1     -43.376  54.106 -55.504  1.00  0.00     0.040 C 
HETATM    2  C   UNL     1     -43.345  55.121 -54.363  1.00  0.00     0.191 C 
ENDROOT
BRANCH   2   3
HETATM    3  N   UNL     1     -42.982  54.444 -53.044  1.00  0.00    -0.063 N 
HETATM    4  H   UNL     1     -43.654  54.802 -52.353  1.00  0.00     0.278 HD
HETATM    5  H   UNL     1     -43.239  53.451 -53.136  1.00  0.00     0.278 HD
BRANCH   3   6
HETATM    6  C   UNL     1     -41.613  54.496 -52.376  1.00  0.00     0.221 C 
HETATM    7  C   UNL     1     -40.812  53.218 -52.495  1.00  0.00    -0.011 A 
HETATM    8  C   UNL     1     -40.279  52.554 -51.377  1.00  0.00     0.009 A 
HETATM    9  C   UNL     1     -40.550  52.683 -53.776  1.00  0.00     0.011 A 
HETATM   10  C   UNL     1     -39.601  51.339 -51.537  1.00  0.00     0.019 A 
HETATM   11  S   UNL     1     -40.404  53.209 -49.728  1.00  0.00    -0.129 SA
HETATM   12  C   UNL     1     -39.398  50.801 -52.807  1.00  0.00     0.001 A 
HETATM   13  C   UNL     1     -39.859  51.480 -53.927  1.00  0.00     0.001 A 
HETATM   14  C   UNL     1     -40.500  54.970 -50.136  1.00  0.00     0.082 C 
HETATM   15  C   UNL     1     -41.729  55.174 -51.002  1.00  0.00     0.048 C 
ENDBRANCH   3   6
ENDBRANCH   2   3
BRANCH   2  16
HETATM   16  C   UNL     1     -42.477  56.342 -54.668  1.00  0.00     0.135 C 
BRANCH  16  17
HETATM   17  C   UNL     1     -42.815  57.503 -53.753  1.00  0.00     0.224 C 
HETATM   18  N   UNL     1     -44.176  57.628 -53.553  1.00  0.00    -0.327 N 
HETATM   19  H   UNL     1     -44.781  56.947 -53.998  1.00  0.00     0.169 HD
HETATM   20  O   UNL     1     -41.927  58.225 -53.315  1.00  0.00    -0.273 OA
BRANCH  18  21
HETATM   21  C   UNL     1     -44.848  58.592 -52.769  1.00  0.00     0.037 A 
HETATM   22  C   UNL     1     -45.075  58.467 -51.394  1.00  0.00     0.066 A 
HETATM   23  C   UNL     1     -45.755  59.471 -50.694  1.00  0.00     0.070 A 
HETATM   24  C   UNL     1     -46.212  60.598 -51.377  1.00  0.00     0.037 A 
HETATM   25  C   UNL     1     -45.989  60.735 -52.744  1.00  0.00     0.005 A 
HETATM   26  C   UNL     1     -45.306  59.736 -53.436  1.00  0.00     0.029 A 
BRANCH  23  27
HETATM   27  O   UNL     1     -46.036  59.468 -49.355  1.00  0.00    -0.356 OA
HETATM   28  C   UNL     1     -45.608  60.593 -48.599  1.00  0.00     0.210 C 
ENDBRANCH  23  27
ENDBRANCH  18  21
ENDBRANCH  16  17
ENDBRANCH   2  16
TORSDOF 6
ENDMDL
MODEL 6
REMARK VINA RESULT:      -7.3      1.889      2.789
REMARK  6 active torsions:
REMARK  status: ('A' for Active; 'I' for Inactive)
REMARK    1  A    between atoms: C_2  and  N_3 
REMARK    2  A    between atoms: C_2  and  C_16 
REMARK    3  A    between atoms: N_3  and  C_6 
REMARK    4  A    between atoms: C_16  and  C_17 
REMARK       I    between atoms: C_17  and  N_18 
REMARK    5  A    between atoms: N_18  and  C_19 
REMARK    6  A    between atoms: C_21  and  O_22 
ROOT
HETATM    1  C   UNL     1     -43.267  53.987 -55.580  1.00  0.00     0.040 C 
HETATM    2  C   UNL     1     -43.041  55.103 -54.562  1.00  0.00     0.191 C 
ENDROOT
BRANCH   2   3
HETATM    3  N   UNL     1     -42.804  54.527 -53.168  1.00  0.00    -0.063 N 
HETATM    4  H   UNL     1     -43.466  55.015 -52.550  1.00  0.00     0.278 HD
HETATM    5  H   UNL     1     -43.155  53.560 -53.180  1.00  0.00     0.278 HD
BRANCH   3   6
HETATM    6  C   UNL     1     -41.466  54.514 -52.438  1.00  0.00     0.221 C 
HETATM    7  C   UNL     1     -40.733  53.192 -52.505  1.00  0.00    -0.011 A 
HETATM    8  C   UNL     1     -40.290  52.517 -51.354  1.00  0.00     0.009 A 
HETATM    9  C   UNL     1     -40.444  52.624 -53.764  1.00  0.00     0.011 A 
HETATM   10  C   UNL     1     -39.674  51.264 -51.467  1.00  0.00     0.019 A 
HETATM   11  S   UNL     1     -40.453  53.203 -49.721  1.00  0.00    -0.129 SA
HETATM   12  C   UNL     1     -39.445  50.695 -52.719  1.00  0.00     0.001 A 
HETATM   13  C   UNL     1     -39.815  51.382 -53.868  1.00  0.00     0.001 A 
HETATM   14  C   UNL     1     -40.431  54.960 -50.156  1.00  0.00     0.082 C 
HETATM   15  C   UNL     1     -41.606  55.219 -51.081  1.00  0.00     0.048 C 
ENDBRANCH   3   6
ENDBRANCH   2   3
BRANCH   2  16
HETATM   16  C   UNL     1     -41.963  56.098 -54.991  1.00  0.00     0.135 C 
BRANCH  16  17
HETATM   17  C   UNL     1     -42.526  57.158 -55.918  1.00  0.00     0.224 C 
HETATM   18  N   UNL     1     -42.113  56.979 -57.223  1.00  0.00    -0.327 N 
HETATM   19  H   UNL     1     -41.523  56.179 -57.425  1.00  0.00     0.169 HD
HETATM   20  O   UNL     1     -43.226  58.060 -55.474  1.00  0.00    -0.273 OA
BRANCH  18  21
HETATM   21  C   UNL     1     -42.436  57.773 -58.347  1.00  0.00     0.037 A 
HETATM   22  C   UNL     1     -41.837  59.004 -58.637  1.00  0.00     0.066 A 
HETATM   23  C   UNL     1     -42.220  59.729 -59.771  1.00  0.00     0.070 A 
HETATM   24  C   UNL     1     -43.211  59.219 -60.612  1.00  0.00     0.037 A 
HETATM   25  C   UNL     1     -43.811  57.994 -60.335  1.00  0.00     0.005 A 
HETATM   26  C   UNL     1     -43.422  57.273 -59.208  1.00  0.00     0.029 A 
BRANCH  23  27
HETATM   27  O   UNL     1     -41.712  60.936 -60.164  1.00  0.00    -0.356 OA
HETATM   28  C   UNL     1     -41.118  61.750 -59.161  1.00  0.00     0.210 C 
ENDBRANCH  23  27
ENDBRANCH  18  21
ENDBRANCH  16  17
ENDBRANCH   2  16
TORSDOF 6
ENDMDL
MODEL 7
REMARK VINA RESULT:      -7.3      2.908      7.907
REMARK  6 active torsions:
REMARK  status: ('A' for Active; 'I' for Inactive)
REMARK    1  A    between atoms: C_2  and  N_3 
REMARK    2  A    between atoms: C_2  and  C_16 
REMARK    3  A    between atoms: N_3  and  C_6 
REMARK    4  A    between atoms: C_16  and  C_17 
REMARK       I    between atoms: C_17  and  N_18 
REMARK    5  A    between atoms: N_18  and  C_19 
REMARK    6  A    between atoms: C_21  and  O_22 
ROOT
HETATM    1  C   UNL     1     -44.705  59.535 -55.118  1.00  0.00     0.040 C 
HETATM    2  C   UNL     1     -45.078  58.064 -54.948  1.00  0.00     0.191 C 
ENDROOT
BRANCH   2   3
HETATM    3  N   UNL     1     -44.537  57.229 -56.105  1.00  0.00    -0.063 N 
HETATM    4  H   UNL     1     -43.735  56.711 -55.723  1.00  0.00     0.278 HD
HETATM    5  H   UNL     1     -45.231  56.492 -56.293  1.00  0.00     0.278 HD
BRANCH   3   6
HETATM    6  C   UNL     1     -44.088  57.781 -57.453  1.00  0.00     0.221 C 
HETATM    7  C   UNL     1     -44.835  57.214 -58.640  1.00  0.00    -0.011 A 
HETATM    8  C   UNL     1     -44.178  56.623 -59.732  1.00  0.00     0.009 A 
HETATM    9  C   UNL     1     -46.243  57.310 -58.681  1.00  0.00     0.011 A 
HETATM   10  C   UNL     1     -44.920  56.054 -60.775  1.00  0.00     0.019 A 
HETATM   11  S   UNL     1     -42.405  56.582 -59.873  1.00  0.00    -0.129 SA
HETATM   12  C   UNL     1     -46.312  56.112 -60.771  1.00  0.00     0.001 A 
HETATM   13  C   UNL     1     -46.973  56.754 -59.733  1.00  0.00     0.001 A 
HETATM   14  C   UNL     1     -42.017  58.062 -58.906  1.00  0.00     0.082 C 
HETATM   15  C   UNL     1     -42.554  57.847 -57.503  1.00  0.00     0.048 C 
ENDBRANCH   3   6
ENDBRANCH   2   3
BRANCH   2  16
HETATM   16  C   UNL     1     -44.702  57.504 -53.576  1.00  0.00     0.135 C 
BRANCH  16  17
HETATM   17  C   UNL     1     -43.355  56.808 -53.613  1.00  0.00     0.224 C 
HETATM   18  N   UNL     1     -43.448  55.479 -53.250  1.00  0.00    -0.327 N 
HETATM   19  H   UNL     1     -44.367  55.114 -53.030  1.00  0.00     0.169 HD
HETATM   20  O   UNL     1     -42.343  57.434 -53.903  1.00  0.00    -0.273 OA
BRANCH  18  21
HETATM   21  C   UNL     1     -42.401  54.533 -53.167  1.00  0.00     0.037 A 
HETATM   22  C   UNL     1     -41.637  54.305 -52.017  1.00  0.00     0.066 A 
HETATM   23  C   UNL     1     -40.614  53.349 -52.024  1.00  0.00     0.070 A 
HETATM   24  C   UNL     1     -40.355  52.627 -53.190  1.00  0.00     0.037 A 
HETATM   25  C   UNL     1     -41.111  52.843 -54.338  1.00  0.00     0.005 A 
HETATM   26  C   UNL     1     -42.132  53.791 -54.325  1.00  0.00     0.029 A 
BRANCH  23  27
HETATM   27  O   UNL     1     -39.802  53.033 -50.970  1.00  0.00    -0.356 OA
HETATM   28  C   UNL     1     -40.410  52.928 -49.689  1.00  0.00     0.210 C 
ENDBRANCH  23  27
ENDBRANCH  18  21
ENDBRANCH  16  17
ENDBRANCH   2  16
TORSDOF 6
ENDMDL
MODEL 8
REMARK VINA RESULT:      -7.3      3.469      7.040
REMARK  6 active torsions:
REMARK  status: ('A' for Active; 'I' for Inactive)
REMARK    1  A    between atoms: C_2  and  N_3 
REMARK    2  A    between atoms: C_2  and  C_16 
REMARK    3  A    between atoms: N_3  and  C_6 
REMARK    4  A    between atoms: C_16  and  C_17 
REMARK       I    between atoms: C_17  and  N_18 
REMARK    5  A    between atoms: N_18  and  C_19 
REMARK    6  A    between atoms: C_21  and  O_22 
ROOT
HETATM    1  C   UNL     1     -44.237  57.568 -53.372  1.00  0.00     0.040 C 
HETATM    2  C   UNL     1     -43.569  57.513 -54.744  1.00  0.00     0.191 C 
ENDROOT
BRANCH   2   3
HETATM    3  N   UNL     1     -42.214  58.216 -54.718  1.00  0.00    -0.063 N 
HETATM    4  H   UNL     1     -41.578  57.576 -54.224  1.00  0.00     0.278 HD
HETATM    5  H   UNL     1     -41.856  58.212 -55.683  1.00  0.00     0.278 HD
BRANCH   3   6
HETATM    6  C   UNL     1     -41.955  59.605 -54.144  1.00  0.00     0.221 C 
HETATM    7  C   UNL     1     -41.562  59.612 -52.683  1.00  0.00    -0.011 A 
HETATM    8  C   UNL     1     -42.242  60.381 -51.723  1.00  0.00     0.009 A 
HETATM    9  C   UNL     1     -40.448  58.853 -52.263  1.00  0.00     0.011 A 
HETATM   10  C   UNL     1     -41.879  60.302 -50.373  1.00  0.00     0.019 A 
HETATM   11  S   UNL     1     -43.559  61.498 -52.151  1.00  0.00    -0.129 SA
HETATM   12  C   UNL     1     -40.809  59.505 -49.970  1.00  0.00     0.001 A 
HETATM   13  C   UNL     1     -40.083  58.793 -50.916  1.00  0.00     0.001 A 
HETATM   14  C   UNL     1     -43.056  61.880 -53.848  1.00  0.00     0.082 C 
HETATM   15  C   UNL     1     -43.041  60.578 -54.627  1.00  0.00     0.048 C 
ENDBRANCH   3   6
ENDBRANCH   2   3
BRANCH   2  16
HETATM   16  C   UNL     1     -43.500  56.100 -55.323  1.00  0.00     0.135 C 
BRANCH  16  17
HETATM   17  C   UNL     1     -42.226  55.392 -54.904  1.00  0.00     0.224 C 
HETATM   18  N   UNL     1     -42.453  54.460 -53.910  1.00  0.00    -0.327 N 
HETATM   19  H   UNL     1     -43.407  54.332 -53.594  1.00  0.00     0.169 HD
HETATM   20  O   UNL     1     -41.153  55.698 -55.410  1.00  0.00    -0.273 OA
BRANCH  18  21
HETATM   21  C   UNL     1     -41.504  53.623 -53.279  1.00  0.00     0.037 A 
HETATM   22  C   UNL     1     -40.822  52.585 -53.923  1.00  0.00     0.066 A 
HETATM   23  C   UNL     1     -39.899  51.801 -53.220  1.00  0.00     0.070 A 
HETATM   24  C   UNL     1     -39.668  52.056 -51.868  1.00  0.00     0.037 A 
HETATM   25  C   UNL     1     -40.339  53.088 -51.219  1.00  0.00     0.005 A 
HETATM   26  C   UNL     1     -41.252  53.871 -51.923  1.00  0.00     0.029 A 
BRANCH  23  27
HETATM   27  O   UNL     1     -39.169  50.764 -53.732  1.00  0.00    -0.356 OA
HETATM   28  C   UNL     1     -39.863  49.810 -54.526  1.00  0.00     0.210 C 
ENDBRANCH  23  27
ENDBRANCH  18  21
ENDBRANCH  16  17
ENDBRANCH   2  16
TORSDOF 6
ENDMDL
MODEL 9
REMARK VINA RESULT:      -7.1      1.851      2.819
REMARK  6 active torsions:
REMARK  status: ('A' for Active; 'I' for Inactive)
REMARK    1  A    between atoms: C_2  and  N_3 
REMARK    2  A    between atoms: C_2  and  C_16 
REMARK    3  A    between atoms: N_3  and  C_6 
REMARK    4  A    between atoms: C_16  and  C_17 
REMARK       I    between atoms: C_17  and  N_18 
REMARK    5  A    between atoms: N_18  and  C_19 
REMARK    6  A    between atoms: C_21  and  O_22 
ROOT
HETATM    1  C   UNL     1     -40.874  58.235 -52.160  1.00  0.00     0.040 C 
HETATM    2  C   UNL     1     -41.931  57.804 -53.174  1.00  0.00     0.191 C 
ENDROOT
BRANCH   2   3
HETATM    3  N   UNL     1     -42.919  56.824 -52.547  1.00  0.00    -0.063 N 
HETATM    4  H   UNL     1     -43.030  57.127 -51.570  1.00  0.00     0.278 HD
HETATM    5  H   UNL     1     -43.840  57.018 -52.965  1.00  0.00     0.278 HD
BRANCH   3   6
HETATM    6  C   UNL     1     -42.750  55.309 -52.508  1.00  0.00     0.221 C 
HETATM    7  C   UNL     1     -41.802  54.815 -51.437  1.00  0.00    -0.011 A 
HETATM    8  C   UNL     1     -40.711  53.978 -51.724  1.00  0.00     0.009 A 
HETATM    9  C   UNL     1     -42.035  55.170 -50.090  1.00  0.00     0.011 A 
HETATM   10  C   UNL     1     -39.826  53.602 -50.706  1.00  0.00     0.019 A 
HETATM   11  S   UNL     1     -40.403  53.333 -53.353  1.00  0.00    -0.129 SA
HETATM   12  C   UNL     1     -40.043  54.007 -49.390  1.00  0.00     0.001 A 
HETATM   13  C   UNL     1     -41.156  54.777 -49.079  1.00  0.00     0.001 A 
HETATM   14  C   UNL     1     -42.103  53.334 -53.976  1.00  0.00     0.082 C 
HETATM   15  C   UNL     1     -42.606  54.765 -53.937  1.00  0.00     0.048 C 
ENDBRANCH   3   6
ENDBRANCH   2   3
BRANCH   2  16
HETATM   16  C   UNL     1     -42.614  58.983 -53.867  1.00  0.00     0.135 C 
BRANCH  16  17
HETATM   17  C   UNL     1     -43.223  58.569 -55.193  1.00  0.00     0.224 C 
HETATM   18  N   UNL     1     -42.309  57.928 -56.006  1.00  0.00    -0.327 N 
HETATM   19  H   UNL     1     -41.374  57.784 -55.641  1.00  0.00     0.169 HD
HETATM   20  O   UNL     1     -44.388  58.844 -55.453  1.00  0.00    -0.273 OA
BRANCH  18  21
HETATM   21  C   UNL     1     -42.522  57.412 -57.304  1.00  0.00     0.037 A 
HETATM   22  C   UNL     1     -43.228  56.235 -57.576  1.00  0.00     0.066 A 
HETATM   23  C   UNL     1     -43.389  55.794 -58.894  1.00  0.00     0.070 A 
HETATM   24  C   UNL     1     -42.832  56.531 -59.940  1.00  0.00     0.037 A 
HETATM   25  C   UNL     1     -42.131  57.705 -59.682  1.00  0.00     0.005 A 
HETATM   26  C   UNL     1     -41.978  58.144 -58.368  1.00  0.00     0.029 A 
BRANCH  23  27
HETATM   27  O   UNL     1     -44.057  54.667 -59.290  1.00  0.00    -0.356 OA
HETATM   28  C   UNL     1     -44.901  54.778 -60.428  1.00  0.00     0.210 C 
ENDBRANCH  23  27
ENDBRANCH  18  21
ENDBRANCH  16  17
ENDBRANCH   2  16
TORSDOF 6
ENDMDL
MODEL 10
REMARK VINA RESULT:      -6.9      3.432      8.623
REMARK  6 active torsions:
REMARK  status: ('A' for Active; 'I' for Inactive)
REMARK    1  A    between atoms: C_2  and  N_3 
REMARK    2  A    between atoms: C_2  and  C_16 
REMARK    3  A    between atoms: N_3  and  C_6 
REMARK    4  A    between atoms: C_16  and  C_17 
REMARK       I    between atoms: C_17  and  N_18 
REMARK    5  A    between atoms: N_18  and  C_19 
REMARK    6  A    between atoms: C_21  and  O_22 
ROOT
HETATM    1  C   UNL     1     -44.176  57.456 -55.940  1.00  0.00     0.040 C 
HETATM    2  C   UNL     1     -42.979  56.507 -55.947  1.00  0.00     0.191 C 
ENDROOT
BRANCH   2   3
HETATM    3  N   UNL     1     -42.177  56.653 -57.236  1.00  0.00    -0.063 N 
HETATM    4  H   UNL     1     -41.806  57.612 -57.227  1.00  0.00     0.278 HD
HETATM    5  H   UNL     1     -41.335  56.069 -57.134  1.00  0.00     0.278 HD
BRANCH   3   6
HETATM    6  C   UNL     1     -42.721  56.419 -58.642  1.00  0.00     0.221 C 
HETATM    7  C   UNL     1     -43.088  57.684 -59.387  1.00  0.00    -0.011 A 
HETATM    8  C   UNL     1     -44.358  57.883 -59.954  1.00  0.00     0.009 A 
HETATM    9  C   UNL     1     -42.115  58.693 -59.558  1.00  0.00     0.011 A 
HETATM   10  C   UNL     1     -44.667  59.099 -60.577  1.00  0.00     0.019 A 
HETATM   11  S   UNL     1     -45.617  56.627 -59.944  1.00  0.00    -0.129 SA
HETATM   12  C   UNL     1     -43.708  60.104 -60.690  1.00  0.00     0.001 A 
HETATM   13  C   UNL     1     -42.428  59.895 -60.195  1.00  0.00     0.001 A 
HETATM   14  C   UNL     1     -44.549  55.165 -59.892  1.00  0.00     0.082 C 
HETATM   15  C   UNL     1     -43.717  55.250 -58.626  1.00  0.00     0.048 C 
ENDBRANCH   3   6
ENDBRANCH   2   3
BRANCH   2  16
HETATM   16  C   UNL     1     -42.118  56.618 -54.688  1.00  0.00     0.135 C 
BRANCH  16  17
HETATM   17  C   UNL     1     -42.047  55.296 -53.949  1.00  0.00     0.224 C 
HETATM   18  N   UNL     1     -40.922  54.570 -54.290  1.00  0.00    -0.327 N 
HETATM   19  H   UNL     1     -40.276  54.987 -54.951  1.00  0.00     0.169 HD
HETATM   20  O   UNL     1     -42.945  54.965 -53.183  1.00  0.00    -0.273 OA
BRANCH  18  21
HETATM   21  C   UNL     1     -40.535  53.300 -53.806  1.00  0.00     0.037 A 
HETATM   22  C   UNL     1     -40.340  53.002 -52.453  1.00  0.00     0.066 A 
HETATM   23  C   UNL     1     -39.952  51.716 -52.060  1.00  0.00     0.070 A 
HETATM   24  C   UNL     1     -39.752  50.731 -53.028  1.00  0.00     0.037 A 
HETATM   25  C   UNL     1     -39.947  51.015 -54.376  1.00  0.00     0.005 A 
HETATM   26  C   UNL     1     -40.340  52.295 -54.763  1.00  0.00     0.029 A 
BRANCH  23  27
HETATM   27  O   UNL     1     -39.732  51.299 -50.776  1.00  0.00    -0.356 OA
HETATM   28  C   UNL     1     -39.739  49.897 -50.537  1.00  0.00     0.210 C 
ENDBRANCH  23  27
ENDBRANCH  18  21
ENDBRANCH  16  17
ENDBRANCH   2  16
TORSDOF 6
ENDMDL
