MODEL 1
REMARK VINA RESULT:      -8.9      0.000      0.000
REMARK  4 active torsions:
REMARK  status: ('A' for Active; 'I' for Inactive)
REMARK    1  A    between atoms: C_3  and  C_4 
REMARK       I    between atoms: C_4  and  N_5 
REMARK    2  A    between atoms: N_5  and  N_6 
REMARK    3  A    between atoms: C_7  and  C_8 
REMARK    4  A    between atoms: C_23  and  C_24 
ROOT
HETATM    1  C   UNL     1     -42.732  55.970 -56.292  1.00  0.00     0.290 C 
HETATM    2  N   UNL     1     -41.678  55.084 -56.123  1.00  0.00    -0.242 N 
HETATM    3  O   UNL     1     -43.591  56.200 -55.444  1.00  0.00    -0.264 OA
HETATM    4  H   UNL     1     -41.045  54.930 -56.895  1.00  0.00     0.192 HD
ENDROOT
BRANCH   1   5
HETATM    5  C   UNL     1     -42.752  56.671 -57.558  1.00  0.00     0.127 A 
HETATM    6  C   UNL     1     -42.957  57.986 -57.965  1.00  0.00     0.003 A 
HETATM    7  C   UNL     1     -43.166  59.200 -57.129  1.00  0.00     0.053 C 
HETATM    8  C   UNL     1     -42.878  57.944 -59.400  1.00  0.00     0.095 A 
HETATM    9  N   UNL     1     -42.563  56.713 -59.824  1.00  0.00    -0.173 NA
HETATM   10  N   UNL     1     -42.469  55.987 -58.709  1.00  0.00    -0.272 N 
HETATM   11  H   UNL     1     -42.219  55.005 -58.782  1.00  0.00     0.189 HD
BRANCH   8  12
HETATM   12  C   UNL     1     -43.067  59.030 -60.363  1.00  0.00    -0.005 A 
HETATM   13  C   UNL     1     -44.350  59.467 -60.718  1.00  0.00     0.014 A 
HETATM   14  C   UNL     1     -44.516  60.506 -61.637  1.00  0.00     0.001 A 
HETATM   15  C   UNL     1     -43.401  61.111 -62.217  1.00  0.00     0.000 A 
HETATM   16  C   UNL     1     -42.121  60.675 -61.883  1.00  0.00     0.001 A 
HETATM   17  C   UNL     1     -41.954  59.637 -60.963  1.00  0.00     0.014 A 
ENDBRANCH   8  12
ENDBRANCH   1   5
BRANCH   2  18
HETATM   18  N   UNL     1     -41.480  54.202 -55.089  1.00  0.00    -0.183 NA
HETATM   19  C   UNL     1     -40.576  54.444 -54.195  1.00  0.00     0.153 C 
BRANCH  19  20
HETATM   20  C   UNL     1     -40.411  53.534 -53.072  1.00  0.00     0.018 A 
HETATM   21  C   UNL     1     -40.091  52.137 -53.165  1.00  0.00     0.004 A 
HETATM   22  C   UNL     1     -40.017  51.634 -51.867  1.00  0.00     0.043 A 
HETATM   23  C   UNL     1     -39.854  51.250 -54.238  1.00  0.00     0.014 A 
HETATM   24  C   UNL     1     -39.721  50.296 -51.584  1.00  0.00     0.030 A 
HETATM   25  N   UNL     1     -40.281  52.679 -51.015  1.00  0.00    -0.358 N 
HETATM   26  C   UNL     1     -39.492  49.440 -52.665  1.00  0.00     0.002 A 
HETATM   27  C   UNL     1     -39.558  49.907 -53.974  1.00  0.00     0.001 A 
HETATM   28  H   UNL     1     -40.292  52.600 -50.007  1.00  0.00     0.166 HD
HETATM   29  C   UNL     1     -40.520  53.833 -51.719  1.00  0.00     0.018 A 
HETATM   30  C   UNL     1     -40.824  55.108 -51.016  1.00  0.00     0.069 C 
ENDBRANCH  19  20
ENDBRANCH   2  18
TORSDOF 4
ENDMDL
MODEL 2
REMARK VINA RESULT:      -8.9      2.635      3.216
REMARK  4 active torsions:
REMARK  status: ('A' for Active; 'I' for Inactive)
REMARK    1  A    between atoms: C_3  and  C_4 
REMARK       I    between atoms: C_4  and  N_5 
REMARK    2  A    between atoms: N_5  and  N_6 
REMARK    3  A    between atoms: C_7  and  C_8 
REMARK    4  A    between atoms: C_23  and  C_24 
ROOT
HETATM    1  C   UNL     1     -43.185  56.754 -57.132  1.00  0.00     0.290 C 
HETATM    2  N   UNL     1     -43.252  55.580 -56.397  1.00  0.00    -0.242 N 
HETATM    3  O   UNL     1     -42.201  57.488 -57.184  1.00  0.00    -0.264 OA
HETATM    4  H   UNL     1     -44.120  55.065 -56.383  1.00  0.00     0.192 HD
ENDROOT
BRANCH   1   5
HETATM    5  C   UNL     1     -44.370  57.069 -57.900  1.00  0.00     0.127 A 
HETATM    6  C   UNL     1     -44.783  56.883 -59.216  1.00  0.00     0.003 A 
HETATM    7  C   UNL     1     -44.088  56.165 -60.319  1.00  0.00     0.053 C 
HETATM    8  C   UNL     1     -46.079  57.501 -59.286  1.00  0.00     0.095 A 
HETATM    9  N   UNL     1     -46.459  57.951 -58.083  1.00  0.00    -0.173 NA
HETATM   10  N   UNL     1     -45.437  57.658 -57.277  1.00  0.00    -0.272 N 
HETATM   11  H   UNL     1     -45.506  57.895 -56.291  1.00  0.00     0.189 HD
BRANCH   8  12
HETATM   12  C   UNL     1     -46.963  57.652 -60.443  1.00  0.00    -0.005 A 
HETATM   13  C   UNL     1     -47.502  56.532 -61.092  1.00  0.00     0.014 A 
HETATM   14  C   UNL     1     -48.346  56.690 -62.195  1.00  0.00     0.001 A 
HETATM   15  C   UNL     1     -48.651  57.967 -62.664  1.00  0.00     0.000 A 
HETATM   16  C   UNL     1     -48.110  59.087 -62.036  1.00  0.00     0.001 A 
HETATM   17  C   UNL     1     -47.267  58.930 -60.933  1.00  0.00     0.014 A 
ENDBRANCH   8  12
ENDBRANCH   1   5
BRANCH   2  18
HETATM   18  N   UNL     1     -42.337  55.104 -55.490  1.00  0.00    -0.183 NA
HETATM   19  C   UNL     1     -42.722  54.745 -54.307  1.00  0.00     0.153 C 
BRANCH  19  20
HETATM   20  C   UNL     1     -41.757  54.189 -53.372  1.00  0.00     0.018 A 
HETATM   21  C   UNL     1     -41.071  52.936 -53.523  1.00  0.00     0.004 A 
HETATM   22  C   UNL     1     -40.234  52.778 -52.419  1.00  0.00     0.043 A 
HETATM   23  C   UNL     1     -41.082  51.917 -54.501  1.00  0.00     0.014 A 
HETATM   24  C   UNL     1     -39.411  51.660 -52.239  1.00  0.00     0.030 A 
HETATM   25  N   UNL     1     -40.401  53.888 -51.625  1.00  0.00    -0.358 N 
HETATM   26  C   UNL     1     -39.443  50.667 -53.222  1.00  0.00     0.002 A 
HETATM   27  C   UNL     1     -40.266  50.791 -54.337  1.00  0.00     0.001 A 
HETATM   28  H   UNL     1     -39.912  54.041 -50.754  1.00  0.00     0.166 HD
HETATM   29  C   UNL     1     -41.313  54.751 -52.181  1.00  0.00     0.018 A 
HETATM   30  C   UNL     1     -41.659  56.033 -51.510  1.00  0.00     0.069 C 
ENDBRANCH  19  20
ENDBRANCH   2  18
TORSDOF 4
ENDMDL
MODEL 3
REMARK VINA RESULT:      -8.7      2.113      3.537
REMARK  4 active torsions:
REMARK  status: ('A' for Active; 'I' for Inactive)
REMARK    1  A    between atoms: C_3  and  C_4 
REMARK       I    between atoms: C_4  and  N_5 
REMARK    2  A    between atoms: N_5  and  N_6 
REMARK    3  A    between atoms: C_7  and  C_8 
REMARK    4  A    between atoms: C_23  and  C_24 
ROOT
HETATM    1  C   UNL     1     -42.425  56.537 -56.446  1.00  0.00     0.290 C 
HETATM    2  N   UNL     1     -41.965  55.255 -56.183  1.00  0.00    -0.242 N 
HETATM    3  O   UNL     1     -42.147  57.527 -55.776  1.00  0.00    -0.264 OA
HETATM    4  H   UNL     1     -42.284  54.495 -56.768  1.00  0.00     0.192 HD
ENDROOT
BRANCH   1   5
HETATM    5  C   UNL     1     -43.257  56.664 -57.624  1.00  0.00     0.127 A 
HETATM    6  C   UNL     1     -44.467  57.282 -57.927  1.00  0.00     0.003 A 
HETATM    7  C   UNL     1     -45.314  58.147 -57.062  1.00  0.00     0.053 C 
HETATM    8  C   UNL     1     -44.717  56.947 -59.303  1.00  0.00     0.095 A 
HETATM    9  N   UNL     1     -43.695  56.251 -59.818  1.00  0.00    -0.173 NA
HETATM   10  N   UNL     1     -42.833  56.121 -58.807  1.00  0.00    -0.272 N 
HETATM   11  H   UNL     1     -41.958  55.632 -58.968  1.00  0.00     0.189 HD
BRANCH   8  12
HETATM   12  C   UNL     1     -45.873  57.286 -60.135  1.00  0.00    -0.005 A 
HETATM   13  C   UNL     1     -46.229  58.621 -60.368  1.00  0.00     0.014 A 
HETATM   14  C   UNL     1     -47.334  58.931 -61.165  1.00  0.00     0.001 A 
HETATM   15  C   UNL     1     -48.098  57.910 -61.728  1.00  0.00     0.000 A 
HETATM   16  C   UNL     1     -47.762  56.578 -61.491  1.00  0.00     0.001 A 
HETATM   17  C   UNL     1     -46.657  56.268 -60.695  1.00  0.00     0.014 A 
ENDBRANCH   8  12
ENDBRANCH   1   5
BRANCH   2  18
HETATM   18  N   UNL     1     -41.272  54.822 -55.080  1.00  0.00    -0.183 NA
HETATM   19  C   UNL     1     -41.827  54.002 -54.246  1.00  0.00     0.153 C 
BRANCH  19  20
HETATM   20  C   UNL     1     -41.067  53.503 -53.110  1.00  0.00     0.018 A 
HETATM   21  C   UNL     1     -41.069  54.066 -51.789  1.00  0.00     0.004 A 
HETATM   22  C   UNL     1     -40.218  53.292 -51.000  1.00  0.00     0.043 A 
HETATM   23  C   UNL     1     -41.719  55.166 -51.186  1.00  0.00     0.014 A 
HETATM   24  C   UNL     1     -39.983  53.557 -49.646  1.00  0.00     0.030 A 
HETATM   25  N   UNL     1     -39.717  52.298 -51.805  1.00  0.00    -0.358 N 
HETATM   26  C   UNL     1     -40.639  54.652 -49.076  1.00  0.00     0.002 A 
HETATM   27  C   UNL     1     -41.495  55.447 -49.833  1.00  0.00     0.001 A 
HETATM   28  H   UNL     1     -39.072  51.586 -51.491  1.00  0.00     0.166 HD
HETATM   29  C   UNL     1     -40.215  52.405 -53.079  1.00  0.00     0.018 A 
HETATM   30  C   UNL     1     -39.824  51.435 -54.137  1.00  0.00     0.069 C 
ENDBRANCH  19  20
ENDBRANCH   2  18
TORSDOF 4
ENDMDL
MODEL 4
REMARK VINA RESULT:      -8.5      6.401     10.573
REMARK  4 active torsions:
REMARK  status: ('A' for Active; 'I' for Inactive)
REMARK    1  A    between atoms: C_3  and  C_4 
REMARK       I    between atoms: C_4  and  N_5 
REMARK    2  A    between atoms: N_5  and  N_6 
REMARK    3  A    between atoms: C_7  and  C_8 
REMARK    4  A    between atoms: C_23  and  C_24 
ROOT
HETATM    1  C   UNL     1     -43.999  57.690 -52.149  1.00  0.00     0.290 C 
HETATM    2  N   UNL     1     -43.634  58.510 -51.090  1.00  0.00    -0.242 N 
HETATM    3  O   UNL     1     -44.771  58.014 -53.046  1.00  0.00    -0.264 OA
HETATM    4  H   UNL     1     -43.024  58.138 -50.376  1.00  0.00     0.192 HD
ENDROOT
BRANCH   1   5
HETATM    5  C   UNL     1     -43.367  56.388 -52.166  1.00  0.00     0.127 A 
HETATM    6  C   UNL     1     -42.206  55.851 -52.714  1.00  0.00     0.003 A 
HETATM    7  C   UNL     1     -41.121  56.543 -53.460  1.00  0.00     0.053 C 
HETATM    8  C   UNL     1     -42.243  54.457 -52.363  1.00  0.00     0.095 A 
HETATM    9  N   UNL     1     -43.302  54.189 -51.587  1.00  0.00    -0.173 NA
HETATM   10  N   UNL     1     -43.935  55.358 -51.466  1.00  0.00    -0.272 N 
HETATM   11  H   UNL     1     -44.775  55.404 -50.897  1.00  0.00     0.189 HD
BRANCH   8  12
HETATM   12  C   UNL     1     -41.301  53.395 -52.719  1.00  0.00    -0.005 A 
HETATM   13  C   UNL     1     -41.278  52.852 -54.010  1.00  0.00     0.014 A 
HETATM   14  C   UNL     1     -40.372  51.839 -54.338  1.00  0.00     0.001 A 
HETATM   15  C   UNL     1     -39.489  51.354 -53.374  1.00  0.00     0.000 A 
HETATM   16  C   UNL     1     -39.513  51.876 -52.082  1.00  0.00     0.001 A 
HETATM   17  C   UNL     1     -40.418  52.889 -51.755  1.00  0.00     0.014 A 
ENDBRANCH   8  12
ENDBRANCH   1   5
BRANCH   2  18
HETATM   18  N   UNL     1     -44.163  59.732 -50.755  1.00  0.00    -0.183 NA
HETATM   19  C   UNL     1     -45.253  59.799 -50.060  1.00  0.00     0.153 C 
BRANCH  19  20
HETATM   20  C   UNL     1     -45.775  61.097 -49.660  1.00  0.00     0.018 A 
HETATM   21  C   UNL     1     -45.662  61.678 -48.351  1.00  0.00     0.004 A 
HETATM   22  C   UNL     1     -46.285  62.925 -48.389  1.00  0.00     0.043 A 
HETATM   23  C   UNL     1     -45.082  61.260 -47.133  1.00  0.00     0.014 A 
HETATM   24  C   UNL     1     -46.361  63.773 -47.279  1.00  0.00     0.030 A 
HETATM   25  N   UNL     1     -46.760  63.099 -49.667  1.00  0.00    -0.358 N 
HETATM   26  C   UNL     1     -45.780  63.333 -46.086  1.00  0.00     0.002 A 
HETATM   27  C   UNL     1     -45.150  62.094 -46.011  1.00  0.00     0.001 A 
HETATM   28  H   UNL     1     -47.256  63.922 -49.980  1.00  0.00     0.166 HD
HETATM   29  C   UNL     1     -46.464  62.010 -50.449  1.00  0.00     0.018 A 
HETATM   30  C   UNL     1     -46.868  61.964 -51.879  1.00  0.00     0.069 C 
ENDBRANCH  19  20
ENDBRANCH   2  18
TORSDOF 4
ENDMDL
MODEL 5
REMARK VINA RESULT:      -8.3      6.250      8.719
REMARK  4 active torsions:
REMARK  status: ('A' for Active; 'I' for Inactive)
REMARK    1  A    between atoms: C_3  and  C_4 
REMARK       I    between atoms: C_4  and  N_5 
REMARK    2  A    between atoms: N_5  and  N_6 
REMARK    3  A    between atoms: C_7  and  C_8 
REMARK    4  A    between atoms: C_23  and  C_24 
ROOT
HETATM    1  C   UNL     1     -43.806  58.728 -51.595  1.00  0.00     0.290 C 
HETATM    2  N   UNL     1     -43.117  57.622 -51.119  1.00  0.00    -0.242 N 
HETATM    3  O   UNL     1     -44.028  58.953 -52.782  1.00  0.00    -0.264 OA
HETATM    4  H   UNL     1     -42.948  57.546 -50.126  1.00  0.00     0.192 HD
ENDROOT
BRANCH   1   5
HETATM    5  C   UNL     1     -44.307  59.627 -50.577  1.00  0.00     0.127 A 
HETATM    6  C   UNL     1     -43.886  60.829 -50.015  1.00  0.00     0.003 A 
HETATM    7  C   UNL     1     -42.714  61.670 -50.382  1.00  0.00     0.053 C 
HETATM    8  C   UNL     1     -44.868  61.129 -49.009  1.00  0.00     0.095 A 
HETATM    9  N   UNL     1     -45.855  60.223 -49.020  1.00  0.00    -0.173 NA
HETATM   10  N   UNL     1     -45.508  59.360 -49.978  1.00  0.00    -0.272 N 
HETATM   11  H   UNL     1     -46.126  58.580 -50.182  1.00  0.00     0.189 HD
BRANCH   8  12
HETATM   12  C   UNL     1     -44.906  62.249 -48.068  1.00  0.00    -0.005 A 
HETATM   13  C   UNL     1     -45.155  62.041 -46.705  1.00  0.00     0.014 A 
HETATM   14  C   UNL     1     -45.187  63.119 -45.817  1.00  0.00     0.001 A 
HETATM   15  C   UNL     1     -44.980  64.416 -46.285  1.00  0.00     0.000 A 
HETATM   16  C   UNL     1     -44.746  64.637 -47.641  1.00  0.00     0.001 A 
HETATM   17  C   UNL     1     -44.713  63.559 -48.529  1.00  0.00     0.014 A 
ENDBRANCH   8  12
ENDBRANCH   1   5
BRANCH   2  18
HETATM   18  N   UNL     1     -42.432  56.682 -51.849  1.00  0.00    -0.183 NA
HETATM   19  C   UNL     1     -43.013  55.577 -52.191  1.00  0.00     0.153 C 
BRANCH  19  20
HETATM   20  C   UNL     1     -42.299  54.611 -53.013  1.00  0.00     0.018 A 
HETATM   21  C   UNL     1     -41.362  53.633 -52.534  1.00  0.00     0.004 A 
HETATM   22  C   UNL     1     -40.913  52.906 -53.635  1.00  0.00     0.043 A 
HETATM   23  C   UNL     1     -40.854  53.296 -51.260  1.00  0.00     0.014 A 
HETATM   24  C   UNL     1     -39.985  51.863 -53.532  1.00  0.00     0.030 A 
HETATM   25  N   UNL     1     -41.547  53.417 -54.741  1.00  0.00    -0.358 N 
HETATM   26  C   UNL     1     -39.498  51.551 -52.259  1.00  0.00     0.002 A 
HETATM   27  C   UNL     1     -39.924  52.257 -51.138  1.00  0.00     0.001 A 
HETATM   28  H   UNL     1     -41.411  53.074 -55.682  1.00  0.00     0.166 HD
HETATM   29  C   UNL     1     -42.387  54.444 -54.390  1.00  0.00     0.018 A 
HETATM   30  C   UNL     1     -43.195  55.157 -55.416  1.00  0.00     0.069 C 
ENDBRANCH  19  20
ENDBRANCH   2  18
TORSDOF 4
ENDMDL
MODEL 6
REMARK VINA RESULT:      -8.3      2.049     10.249
REMARK  4 active torsions:
REMARK  status: ('A' for Active; 'I' for Inactive)
REMARK    1  A    between atoms: C_3  and  C_4 
REMARK       I    between atoms: C_4  and  N_5 
REMARK    2  A    between atoms: N_5  and  N_6 
REMARK    3  A    between atoms: C_7  and  C_8 
REMARK    4  A    between atoms: C_23  and  C_24 
ROOT
HETATM    1  C   UNL     1     -42.250  56.332 -55.367  1.00  0.00     0.290 C 
HETATM    2  N   UNL     1     -42.260  56.570 -56.734  1.00  0.00    -0.242 N 
HETATM    3  O   UNL     1     -42.804  57.042 -54.533  1.00  0.00    -0.264 OA
HETATM    4  H   UNL     1     -41.738  55.952 -57.338  1.00  0.00     0.192 HD
ENDROOT
BRANCH   1   5
HETATM    5  C   UNL     1     -41.555  55.131 -54.956  1.00  0.00     0.127 A 
HETATM    6  C   UNL     1     -41.703  54.194 -53.937  1.00  0.00     0.003 A 
HETATM    7  C   UNL     1     -42.772  54.098 -52.907  1.00  0.00     0.053 C 
HETATM    8  C   UNL     1     -40.606  53.282 -54.114  1.00  0.00     0.095 A 
HETATM    9  N   UNL     1     -39.899  53.592 -55.209  1.00  0.00    -0.173 NA
HETATM   10  N   UNL     1     -40.501  54.677 -55.701  1.00  0.00    -0.272 N 
HETATM   11  H   UNL     1     -40.142  55.092 -56.556  1.00  0.00     0.189 HD
BRANCH   8  12
HETATM   12  C   UNL     1     -40.233  52.125 -53.298  1.00  0.00    -0.005 A 
HETATM   13  C   UNL     1     -40.070  50.857 -53.872  1.00  0.00     0.014 A 
HETATM   14  C   UNL     1     -39.713  49.762 -53.082  1.00  0.00     0.001 A 
HETATM   15  C   UNL     1     -39.524  49.922 -51.710  1.00  0.00     0.000 A 
HETATM   16  C   UNL     1     -39.697  51.175 -51.125  1.00  0.00     0.001 A 
HETATM   17  C   UNL     1     -40.054  52.271 -51.915  1.00  0.00     0.014 A 
ENDBRANCH   8  12
ENDBRANCH   1   5
BRANCH   2  18
HETATM   18  N   UNL     1     -42.728  57.683 -57.389  1.00  0.00    -0.183 NA
HETATM   19  C   UNL     1     -41.983  58.284 -58.261  1.00  0.00     0.153 C 
BRANCH  19  20
HETATM   20  C   UNL     1     -42.507  59.428 -58.991  1.00  0.00     0.018 A 
HETATM   21  C   UNL     1     -41.952  60.752 -58.984  1.00  0.00     0.004 A 
HETATM   22  C   UNL     1     -42.744  61.545 -59.814  1.00  0.00     0.043 A 
HETATM   23  C   UNL     1     -40.844  61.353 -58.347  1.00  0.00     0.014 A 
HETATM   24  C   UNL     1     -42.488  62.902 -60.041  1.00  0.00     0.030 A 
HETATM   25  N   UNL     1     -43.741  60.740 -60.308  1.00  0.00    -0.358 N 
HETATM   26  C   UNL     1     -41.386  63.471 -59.398  1.00  0.00     0.002 A 
HETATM   27  C   UNL     1     -40.574  62.710 -58.562  1.00  0.00     0.001 A 
HETATM   28  H   UNL     1     -44.462  61.055 -60.943  1.00  0.00     0.166 HD
HETATM   29  C   UNL     1     -43.618  59.460 -59.826  1.00  0.00     0.018 A 
HETATM   30  C   UNL     1     -44.579  58.397 -60.225  1.00  0.00     0.069 C 
ENDBRANCH  19  20
ENDBRANCH   2  18
TORSDOF 4
ENDMDL
MODEL 7
REMARK VINA RESULT:      -8.2      0.975      2.614
REMARK  4 active torsions:
REMARK  status: ('A' for Active; 'I' for Inactive)
REMARK    1  A    between atoms: C_3  and  C_4 
REMARK       I    between atoms: C_4  and  N_5 
REMARK    2  A    between atoms: N_5  and  N_6 
REMARK    3  A    between atoms: C_7  and  C_8 
REMARK    4  A    between atoms: C_23  and  C_24 
ROOT
HETATM    1  C   UNL     1     -42.476  56.222 -55.919  1.00  0.00     0.290 C 
HETATM    2  N   UNL     1     -41.171  56.043 -55.482  1.00  0.00    -0.242 N 
HETATM    3  O   UNL     1     -43.475  55.950 -55.259  1.00  0.00    -0.264 OA
HETATM    4  H   UNL     1     -40.414  56.257 -56.115  1.00  0.00     0.192 HD
ENDROOT
BRANCH   1   5
HETATM    5  C   UNL     1     -42.610  56.805 -57.237  1.00  0.00     0.127 A 
HETATM    6  C   UNL     1     -42.681  58.096 -57.752  1.00  0.00     0.003 A 
HETATM    7  C   UNL     1     -42.552  59.394 -57.036  1.00  0.00     0.053 C 
HETATM    8  C   UNL     1     -42.861  57.919 -59.167  1.00  0.00     0.095 A 
HETATM    9  N   UNL     1     -42.816  56.620 -59.495  1.00  0.00    -0.173 NA
HETATM   10  N   UNL     1     -42.640  55.987 -58.334  1.00  0.00    -0.272 N 
HETATM   11  H   UNL     1     -42.559  54.974 -58.335  1.00  0.00     0.189 HD
BRANCH   8  12
HETATM   12  C   UNL     1     -43.047  58.935 -60.204  1.00  0.00    -0.005 A 
HETATM   13  C   UNL     1     -44.330  59.334 -60.603  1.00  0.00     0.014 A 
HETATM   14  C   UNL     1     -44.494  60.307 -61.593  1.00  0.00     0.001 A 
HETATM   15  C   UNL     1     -43.378  60.881 -62.199  1.00  0.00     0.000 A 
HETATM   16  C   UNL     1     -42.098  60.482 -61.822  1.00  0.00     0.001 A 
HETATM   17  C   UNL     1     -41.933  59.510 -60.831  1.00  0.00     0.014 A 
ENDBRANCH   8  12
ENDBRANCH   1   5
BRANCH   2  18
HETATM   18  N   UNL     1     -40.748  55.404 -54.343  1.00  0.00    -0.183 NA
HETATM   19  C   UNL     1     -41.303  54.293 -53.978  1.00  0.00     0.153 C 
BRANCH  19  20
HETATM   20  C   UNL     1     -40.811  53.593 -52.801  1.00  0.00     0.018 A 
HETATM   21  C   UNL     1     -40.900  54.064 -51.448  1.00  0.00     0.004 A 
HETATM   22  C   UNL     1     -40.320  53.099 -50.627  1.00  0.00     0.043 A 
HETATM   23  C   UNL     1     -41.424  55.227 -50.841  1.00  0.00     0.014 A 
HETATM   24  C   UNL     1     -40.234  53.232 -49.236  1.00  0.00     0.030 A 
HETATM   25  N   UNL     1     -39.894  52.079 -51.443  1.00  0.00    -0.358 N 
HETATM   26  C   UNL     1     -40.760  54.393 -48.662  1.00  0.00     0.002 A 
HETATM   27  C   UNL     1     -41.346  55.379 -49.451  1.00  0.00     0.001 A 
HETATM   28  H   UNL     1     -39.436  51.241 -51.112  1.00  0.00     0.166 HD
HETATM   29  C   UNL     1     -40.180  52.355 -52.757  1.00  0.00     0.018 A 
HETATM   30  C   UNL     1     -39.822  51.395 -53.835  1.00  0.00     0.069 C 
ENDBRANCH  19  20
ENDBRANCH   2  18
TORSDOF 4
ENDMDL
MODEL 8
REMARK VINA RESULT:      -8.2      1.905     10.120
REMARK  4 active torsions:
REMARK  status: ('A' for Active; 'I' for Inactive)
REMARK    1  A    between atoms: C_3  and  C_4 
REMARK       I    between atoms: C_4  and  N_5 
REMARK    2  A    between atoms: N_5  and  N_6 
REMARK    3  A    between atoms: C_7  and  C_8 
REMARK    4  A    between atoms: C_23  and  C_24 
ROOT
HETATM    1  C   UNL     1     -43.717  56.866 -55.016  1.00  0.00     0.290 C 
HETATM    2  N   UNL     1     -43.780  56.635 -56.382  1.00  0.00    -0.242 N 
HETATM    3  O   UNL     1     -44.136  57.879 -54.461  1.00  0.00    -0.264 OA
HETATM    4  H   UNL     1     -43.369  55.789 -56.751  1.00  0.00     0.192 HD
ENDROOT
BRANCH   1   5
HETATM    5  C   UNL     1     -43.141  55.793 -54.234  1.00  0.00     0.127 A 
HETATM    6  C   UNL     1     -41.917  55.131 -54.201  1.00  0.00     0.003 A 
HETATM    7  C   UNL     1     -40.686  55.408 -54.990  1.00  0.00     0.053 C 
HETATM    8  C   UNL     1     -42.070  54.125 -53.185  1.00  0.00     0.095 A 
HETATM    9  N   UNL     1     -43.265  54.227 -52.589  1.00  0.00    -0.173 NA
HETATM   10  N   UNL     1     -43.867  55.241 -53.214  1.00  0.00    -0.272 N 
HETATM   11  H   UNL     1     -44.798  55.518 -52.916  1.00  0.00     0.189 HD
BRANCH   8  12
HETATM   12  C   UNL     1     -41.116  53.102 -52.756  1.00  0.00    -0.005 A 
HETATM   13  C   UNL     1     -40.546  52.212 -53.676  1.00  0.00     0.014 A 
HETATM   14  C   UNL     1     -39.636  51.240 -53.254  1.00  0.00     0.001 A 
HETATM   15  C   UNL     1     -39.294  51.143 -51.905  1.00  0.00     0.000 A 
HETATM   16  C   UNL     1     -39.865  52.012 -50.978  1.00  0.00     0.001 A 
HETATM   17  C   UNL     1     -40.775  52.985 -51.401  1.00  0.00     0.014 A 
ENDBRANCH   8  12
ENDBRANCH   1   5
BRANCH   2  18
HETATM   18  N   UNL     1     -44.156  57.516 -57.367  1.00  0.00    -0.183 NA
HETATM   19  C   UNL     1     -43.975  57.213 -58.612  1.00  0.00     0.153 C 
BRANCH  19  20
HETATM   20  C   UNL     1     -44.427  58.126 -59.650  1.00  0.00     0.018 A 
HETATM   21  C   UNL     1     -43.624  59.129 -60.292  1.00  0.00     0.004 A 
HETATM   22  C   UNL     1     -44.429  59.779 -61.226  1.00  0.00     0.043 A 
HETATM   23  C   UNL     1     -42.280  59.545 -60.167  1.00  0.00     0.014 A 
HETATM   24  C   UNL     1     -43.966  60.820 -62.039  1.00  0.00     0.030 A 
HETATM   25  N   UNL     1     -45.673  59.200 -61.158  1.00  0.00    -0.358 N 
HETATM   26  C   UNL     1     -42.632  61.212 -61.893  1.00  0.00     0.002 A 
HETATM   27  C   UNL     1     -41.799  60.585 -60.970  1.00  0.00     0.001 A 
HETATM   28  H   UNL     1     -46.459  59.475 -61.731  1.00  0.00     0.166 HD
HETATM   29  C   UNL     1     -45.694  58.201 -60.216  1.00  0.00     0.018 A 
HETATM   30  C   UNL     1     -46.932  57.416 -59.962  1.00  0.00     0.069 C 
ENDBRANCH  19  20
ENDBRANCH   2  18
TORSDOF 4
ENDMDL
MODEL 9
REMARK VINA RESULT:      -8.1      6.088      7.934
REMARK  4 active torsions:
REMARK  status: ('A' for Active; 'I' for Inactive)
REMARK    1  A    between atoms: C_3  and  C_4 
REMARK       I    between atoms: C_4  and  N_5 
REMARK    2  A    between atoms: N_5  and  N_6 
REMARK    3  A    between atoms: C_7  and  C_8 
REMARK    4  A    between atoms: C_23  and  C_24 
ROOT
HETATM    1  C   UNL     1     -42.466  59.056 -51.381  1.00  0.00     0.290 C 
HETATM    2  N   UNL     1     -42.442  57.904 -50.609  1.00  0.00    -0.242 N 
HETATM    3  O   UNL     1     -41.856  59.198 -52.438  1.00  0.00    -0.264 OA
HETATM    4  H   UNL     1     -42.944  57.897 -49.732  1.00  0.00     0.192 HD
ENDROOT
BRANCH   1   5
HETATM    5  C   UNL     1     -43.311  60.118 -50.879  1.00  0.00     0.127 A 
HETATM    6  C   UNL     1     -44.668  60.268 -50.609  1.00  0.00     0.003 A 
HETATM    7  C   UNL     1     -45.753  59.253 -50.695  1.00  0.00     0.053 C 
HETATM    8  C   UNL     1     -44.808  61.630 -50.170  1.00  0.00     0.095 A 
HETATM    9  N   UNL     1     -43.614  62.232 -50.097  1.00  0.00    -0.173 NA
HETATM   10  N   UNL     1     -42.744  61.304 -50.498  1.00  0.00    -0.272 N 
HETATM   11  H   UNL     1     -41.754  61.532 -50.511  1.00  0.00     0.189 HD
BRANCH   8  12
HETATM   12  C   UNL     1     -46.025  62.355 -49.800  1.00  0.00    -0.005 A 
HETATM   13  C   UNL     1     -46.459  62.406 -48.469  1.00  0.00     0.014 A 
HETATM   14  C   UNL     1     -47.622  63.103 -48.129  1.00  0.00     0.001 A 
HETATM   15  C   UNL     1     -48.365  63.746 -49.118  1.00  0.00     0.000 A 
HETATM   16  C   UNL     1     -47.951  63.689 -50.448  1.00  0.00     0.001 A 
HETATM   17  C   UNL     1     -46.788  62.994 -50.788  1.00  0.00     0.014 A 
ENDBRANCH   8  12
ENDBRANCH   1   5
BRANCH   2  18
HETATM   18  N   UNL     1     -41.643  56.799 -50.773  1.00  0.00    -0.183 NA
HETATM   19  C   UNL     1     -42.135  55.613 -50.614  1.00  0.00     0.153 C 
BRANCH  19  20
HETATM   20  C   UNL     1     -41.296  54.447 -50.845  1.00  0.00     0.018 A 
HETATM   21  C   UNL     1     -41.100  53.793 -52.109  1.00  0.00     0.004 A 
HETATM   22  C   UNL     1     -40.224  52.729 -51.901  1.00  0.00     0.043 A 
HETATM   23  C   UNL     1     -41.587  54.010 -53.417  1.00  0.00     0.014 A 
HETATM   24  C   UNL     1     -39.809  51.871 -52.927  1.00  0.00     0.030 A 
HETATM   25  N   UNL     1     -39.897  52.731 -50.567  1.00  0.00    -0.358 N 
HETATM   26  C   UNL     1     -40.308  52.108 -54.211  1.00  0.00     0.002 A 
HETATM   27  C   UNL     1     -41.185  53.161 -54.456  1.00  0.00     0.001 A 
HETATM   28  H   UNL     1     -39.271  52.065 -50.135  1.00  0.00     0.166 HD
HETATM   29  C   UNL     1     -40.531  53.757 -49.912  1.00  0.00     0.018 A 
HETATM   30  C   UNL     1     -40.331  53.974 -48.454  1.00  0.00     0.069 C 
ENDBRANCH  19  20
ENDBRANCH   2  18
TORSDOF 4
ENDMDL
MODEL 10
REMARK VINA RESULT:      -7.9     15.511     18.718
REMARK  4 active torsions:
REMARK  status: ('A' for Active; 'I' for Inactive)
REMARK    1  A    between atoms: C_3  and  C_4 
REMARK       I    between atoms: C_4  and  N_5 
REMARK    2  A    between atoms: N_5  and  N_6 
REMARK    3  A    between atoms: C_7  and  C_8 
REMARK    4  A    between atoms: C_23  and  C_24 
ROOT
HETATM    1  C   UNL     1     -37.406  41.203 -58.018  1.00  0.00     0.290 C 
HETATM    2  N   UNL     1     -38.009  40.042 -58.483  1.00  0.00    -0.242 N 
HETATM    3  O   UNL     1     -37.197  42.200 -58.703  1.00  0.00    -0.264 OA
HETATM    4  H   UNL     1     -38.100  39.258 -57.853  1.00  0.00     0.192 HD
ENDROOT
BRANCH   1   5
HETATM    5  C   UNL     1     -37.053  41.195 -56.615  1.00  0.00     0.127 A 
HETATM    6  C   UNL     1     -35.872  41.290 -55.884  1.00  0.00     0.003 A 
HETATM    7  C   UNL     1     -34.488  41.525 -56.376  1.00  0.00     0.053 C 
HETATM    8  C   UNL     1     -36.277  41.158 -54.511  1.00  0.00     0.095 A 
HETATM    9  N   UNL     1     -37.611  41.077 -54.413  1.00  0.00    -0.173 NA
HETATM   10  N   UNL     1     -38.045  41.128 -55.674  1.00  0.00    -0.272 N 
HETATM   11  H   UNL     1     -39.045  41.098 -55.850  1.00  0.00     0.189 HD
BRANCH   8  12
HETATM   12  C   UNL     1     -35.445  41.133 -53.307  1.00  0.00    -0.005 A 
HETATM   13  C   UNL     1     -35.394  42.233 -52.440  1.00  0.00     0.014 A 
HETATM   14  C   UNL     1     -34.597  42.195 -51.293  1.00  0.00     0.001 A 
HETATM   15  C   UNL     1     -33.837  41.062 -51.008  1.00  0.00     0.000 A 
HETATM   16  C   UNL     1     -33.868  39.968 -51.870  1.00  0.00     0.001 A 
HETATM   17  C   UNL     1     -34.665  40.005 -53.017  1.00  0.00     0.014 A 
ENDBRANCH   8  12
ENDBRANCH   1   5
BRANCH   2  18
HETATM   18  N   UNL     1     -38.331  39.725 -59.779  1.00  0.00    -0.183 NA
HETATM   19  C   UNL     1     -38.663  38.512 -60.087  1.00  0.00     0.153 C 
BRANCH  19  20
HETATM   20  C   UNL     1     -39.057  38.196 -61.451  1.00  0.00     0.018 A 
HETATM   21  C   UNL     1     -40.391  37.892 -61.888  1.00  0.00     0.004 A 
HETATM   22  C   UNL     1     -40.341  37.656 -63.261  1.00  0.00     0.043 A 
HETATM   23  C   UNL     1     -41.643  37.798 -61.241  1.00  0.00     0.014 A 
HETATM   24  C   UNL     1     -41.471  37.331 -64.021  1.00  0.00     0.030 A 
HETATM   25  N   UNL     1     -39.031  37.809 -63.649  1.00  0.00    -0.358 N 
HETATM   26  C   UNL     1     -42.696  37.243 -63.355  1.00  0.00     0.002 A 
HETATM   27  C   UNL     1     -42.784  37.472 -61.985  1.00  0.00     0.001 A 
HETATM   28  H   UNL     1     -38.704  37.698 -64.598  1.00  0.00     0.166 HD
HETATM   29  C   UNL     1     -38.241  38.135 -62.574  1.00  0.00     0.018 A 
HETATM   30  C   UNL     1     -36.780  38.360 -62.741  1.00  0.00     0.069 C 
ENDBRANCH  19  20
ENDBRANCH   2  18
TORSDOF 4
ENDMDL
