MODEL 1
REMARK VINA RESULT:      -7.9      0.000      0.000
REMARK  2 active torsions:
REMARK  status: ('A' for Active; 'I' for Inactive)
REMARK    1  A    between atoms: C_3  and  C_4 
REMARK    2  A    between atoms: C_19  and  O_20 
ROOT
HETATM    1  C   UNL     1     -42.731  56.326 -53.038  1.00  0.00     0.137 C 
HETATM    2  N   UNL     1     -41.369  55.904 -52.627  1.00  0.00    -0.278 NA
HETATM    3  C   UNL     1     -40.930  54.622 -53.011  1.00  0.00     0.036 A 
HETATM    4  C   UNL     1     -40.711  54.265 -54.361  1.00  0.00     0.053 A 
HETATM    5  N   UNL     1     -41.002  55.128 -55.448  1.00  0.00    -0.356 N 
HETATM    6  C   UNL     1     -42.159  55.874 -55.517  1.00  0.00     0.041 A 
HETATM    7  C   UNL     1     -42.920  56.336 -54.512  1.00  0.00     0.056 A 
HETATM    8  C   UNL     1     -44.150  56.858 -55.132  1.00  0.00     0.251 A 
HETATM    9  O   UNL     1     -45.161  57.211 -54.556  1.00  0.00    -0.268 OA
HETATM   10  N   UNL     1     -43.985  56.811 -56.491  1.00  0.00    -0.351 N 
HETATM   11  C   UNL     1     -42.755  56.198 -56.861  1.00  0.00     0.180 A 
HETATM   12  C   UNL     1     -40.618  53.692 -52.003  1.00  0.00     0.026 A 
HETATM   13  C   UNL     1     -40.118  52.427 -52.314  1.00  0.00     0.002 A 
HETATM   14  C   UNL     1     -39.899  52.077 -53.640  1.00  0.00     0.002 A 
HETATM   15  C   UNL     1     -40.187  52.991 -54.654  1.00  0.00     0.031 A 
HETATM   16  H   UNL     1     -41.308  55.998 -51.613  1.00  0.00     0.128 HD
HETATM   17  H   UNL     1     -40.690  54.760 -56.341  1.00  0.00     0.166 HD
HETATM   18  H   UNL     1     -44.728  57.086 -57.118  1.00  0.00     0.163 HD
ENDROOT
BRANCH   1  19
HETATM   19  C   UNL     1     -42.911  57.718 -52.432  1.00  0.00    -0.002 A 
HETATM   20  C   UNL     1     -41.914  58.694 -52.612  1.00  0.00     0.012 A 
HETATM   21  C   UNL     1     -42.038  59.958 -52.028  1.00  0.00     0.001 A 
HETATM   22  C   UNL     1     -43.155  60.264 -51.252  1.00  0.00     0.003 A 
HETATM   23  C   UNL     1     -44.154  59.313 -51.066  1.00  0.00     0.037 A 
HETATM   24  C   UNL     1     -44.035  58.059 -51.658  1.00  0.00     0.073 A 
BRANCH  24  25
HETATM   25  O   UNL     1     -45.074  57.186 -51.470  1.00  0.00    -0.360 OA
HETATM   26  H   UNL     1     -45.715  57.621 -50.864  1.00  0.00     0.217 HD
ENDBRANCH  24  25
ENDBRANCH   1  19
TORSDOF 2
ENDMDL
MODEL 2
REMARK VINA RESULT:      -7.8      1.178      1.304
REMARK  2 active torsions:
REMARK  status: ('A' for Active; 'I' for Inactive)
REMARK    1  A    between atoms: C_3  and  C_4 
REMARK    2  A    between atoms: C_19  and  O_20 
ROOT
HETATM    1  C   UNL     1     -41.950  55.576 -52.813  1.00  0.00     0.137 C 
HETATM    2  N   UNL     1     -40.596  55.018 -52.574  1.00  0.00    -0.278 NA
HETATM    3  C   UNL     1     -40.390  53.649 -52.834  1.00  0.00     0.036 A 
HETATM    4  C   UNL     1     -40.464  53.102 -54.135  1.00  0.00     0.053 A 
HETATM    5  N   UNL     1     -40.843  53.857 -55.274  1.00  0.00    -0.356 N 
HETATM    6  C   UNL     1     -41.896  54.747 -55.260  1.00  0.00     0.041 A 
HETATM    7  C   UNL     1     -42.401  55.432 -54.222  1.00  0.00     0.056 A 
HETATM    8  C   UNL     1     -43.652  56.045 -54.701  1.00  0.00     0.251 A 
HETATM    9  O   UNL     1     -44.492  56.606 -54.025  1.00  0.00    -0.268 OA
HETATM   10  N   UNL     1     -43.743  55.809 -56.047  1.00  0.00    -0.351 N 
HETATM   11  C   UNL     1     -42.683  54.986 -56.521  1.00  0.00     0.180 A 
HETATM   12  C   UNL     1     -40.014  52.814 -51.766  1.00  0.00     0.026 A 
HETATM   13  C   UNL     1     -39.732  51.462 -51.967  1.00  0.00     0.002 A 
HETATM   14  C   UNL     1     -39.801  50.925 -53.246  1.00  0.00     0.002 A 
HETATM   15  C   UNL     1     -40.158  51.740 -54.322  1.00  0.00     0.031 A 
HETATM   16  H   UNL     1     -40.341  55.225 -51.608  1.00  0.00     0.128 HD
HETATM   17  H   UNL     1     -40.743  53.343 -56.143  1.00  0.00     0.166 HD
HETATM   18  H   UNL     1     -44.549  56.108 -56.578  1.00  0.00     0.163 HD
ENDROOT
BRANCH   1  19
HETATM   19  C   UNL     1     -41.849  57.043 -52.394  1.00  0.00    -0.002 A 
HETATM   20  C   UNL     1     -40.946  57.898 -53.050  1.00  0.00     0.012 A 
HETATM   21  C   UNL     1     -40.806  59.230 -52.653  1.00  0.00     0.001 A 
HETATM   22  C   UNL     1     -41.561  59.728 -51.593  1.00  0.00     0.003 A 
HETATM   23  C   UNL     1     -42.465  58.898 -50.934  1.00  0.00     0.037 A 
HETATM   24  C   UNL     1     -42.611  57.575 -51.339  1.00  0.00     0.073 A 
BRANCH  24  25
HETATM   25  O   UNL     1     -43.549  56.827 -50.676  1.00  0.00    -0.360 OA
HETATM   26  H   UNL     1     -43.967  57.411 -50.004  1.00  0.00     0.217 HD
ENDBRANCH  24  25
ENDBRANCH   1  19
TORSDOF 2
ENDMDL
MODEL 3
REMARK VINA RESULT:      -7.8      1.971      3.755
REMARK  2 active torsions:
REMARK  status: ('A' for Active; 'I' for Inactive)
REMARK    1  A    between atoms: C_3  and  C_4 
REMARK    2  A    between atoms: C_19  and  O_20 
ROOT
HETATM    1  C   UNL     1     -41.599  55.965 -54.163  1.00  0.00     0.137 C 
HETATM    2  N   UNL     1     -42.042  54.551 -54.077  1.00  0.00    -0.278 NA
HETATM    3  C   UNL     1     -41.165  53.619 -53.486  1.00  0.00     0.036 A 
HETATM    4  C   UNL     1     -40.813  53.668 -52.117  1.00  0.00     0.053 A 
HETATM    5  N   UNL     1     -41.232  54.705 -51.246  1.00  0.00    -0.356 N 
HETATM    6  C   UNL     1     -41.214  56.034 -51.608  1.00  0.00     0.041 A 
HETATM    7  C   UNL     1     -41.315  56.570 -52.835  1.00  0.00     0.056 A 
HETATM    8  C   UNL     1     -41.002  58.002 -52.688  1.00  0.00     0.251 A 
HETATM    9  O   UNL     1     -40.820  58.803 -53.585  1.00  0.00    -0.268 OA
HETATM   10  N   UNL     1     -40.877  58.266 -51.350  1.00  0.00    -0.351 N 
HETATM   11  C   UNL     1     -40.987  57.088 -50.558  1.00  0.00     0.180 A 
HETATM   12  C   UNL     1     -40.692  52.553 -54.272  1.00  0.00     0.026 A 
HETATM   13  C   UNL     1     -39.873  51.561 -53.731  1.00  0.00     0.002 A 
HETATM   14  C   UNL     1     -39.531  51.606 -52.386  1.00  0.00     0.002 A 
HETATM   15  C   UNL     1     -40.002  52.647 -51.585  1.00  0.00     0.031 A 
HETATM   16  H   UNL     1     -42.283  54.244 -55.020  1.00  0.00     0.128 HD
HETATM   17  H   UNL     1     -40.981  54.534 -50.277  1.00  0.00     0.166 HD
HETATM   18  H   UNL     1     -40.621  59.186 -51.019  1.00  0.00     0.163 HD
ENDROOT
BRANCH   1  19
HETATM   19  C   UNL     1     -42.736  56.688 -54.886  1.00  0.00    -0.002 A 
HETATM   20  C   UNL     1     -42.490  57.322 -56.117  1.00  0.00     0.012 A 
HETATM   21  C   UNL     1     -43.504  58.026 -56.773  1.00  0.00     0.001 A 
HETATM   22  C   UNL     1     -44.775  58.113 -56.208  1.00  0.00     0.003 A 
HETATM   23  C   UNL     1     -45.039  57.488 -54.992  1.00  0.00     0.037 A 
HETATM   24  C   UNL     1     -44.031  56.776 -54.347  1.00  0.00     0.073 A 
BRANCH  24  25
HETATM   25  O   UNL     1     -44.371  56.150 -53.177  1.00  0.00    -0.360 OA
HETATM   26  H   UNL     1     -45.299  56.400 -52.969  1.00  0.00     0.217 HD
ENDBRANCH  24  25
ENDBRANCH   1  19
TORSDOF 2
ENDMDL
MODEL 4
REMARK VINA RESULT:      -7.4      3.233      6.000
REMARK  2 active torsions:
REMARK  status: ('A' for Active; 'I' for Inactive)
REMARK    1  A    between atoms: C_3  and  C_4 
REMARK    2  A    between atoms: C_19  and  O_20 
ROOT
HETATM    1  C   UNL     1     -43.014  56.155 -58.131  1.00  0.00     0.137 C 
HETATM    2  N   UNL     1     -43.511  55.582 -56.855  1.00  0.00    -0.278 NA
HETATM    3  C   UNL     1     -42.614  55.512 -55.770  1.00  0.00     0.036 A 
HETATM    4  C   UNL     1     -42.094  56.663 -55.136  1.00  0.00     0.053 A 
HETATM    5  N   UNL     1     -42.352  57.981 -55.590  1.00  0.00    -0.356 N 
HETATM    6  C   UNL     1     -42.315  58.330 -56.923  1.00  0.00     0.041 A 
HETATM    7  C   UNL     1     -42.540  57.557 -57.997  1.00  0.00     0.056 A 
HETATM    8  C   UNL     1     -42.143  58.355 -59.171  1.00  0.00     0.251 A 
HETATM    9  O   UNL     1     -42.034  57.960 -60.316  1.00  0.00    -0.268 OA
HETATM   10  N   UNL     1     -41.841  59.617 -58.733  1.00  0.00    -0.351 N 
HETATM   11  C   UNL     1     -41.910  59.725 -57.316  1.00  0.00     0.180 A 
HETATM   12  C   UNL     1     -42.293  54.245 -55.249  1.00  0.00     0.026 A 
HETATM   13  C   UNL     1     -41.463  54.108 -54.136  1.00  0.00     0.002 A 
HETATM   14  C   UNL     1     -40.955  55.239 -53.510  1.00  0.00     0.002 A 
HETATM   15  C   UNL     1     -41.274  56.506 -54.002  1.00  0.00     0.031 A 
HETATM   16  H   UNL     1     -43.881  54.653 -57.055  1.00  0.00     0.128 HD
HETATM   17  H   UNL     1     -41.992  58.694 -54.963  1.00  0.00     0.166 HD
HETATM   18  H   UNL     1     -41.503  60.325 -59.370  1.00  0.00     0.163 HD
ENDROOT
BRANCH   1  19
HETATM   19  C   UNL     1     -44.195  56.042 -59.096  1.00  0.00    -0.002 A 
HETATM   20  C   UNL     1     -44.090  55.229 -60.239  1.00  0.00     0.012 A 
HETATM   21  C   UNL     1     -45.141  55.148 -61.157  1.00  0.00     0.001 A 
HETATM   22  C   UNL     1     -46.309  55.880 -60.951  1.00  0.00     0.003 A 
HETATM   23  C   UNL     1     -46.434  56.687 -59.823  1.00  0.00     0.037 A 
HETATM   24  C   UNL     1     -45.391  56.757 -58.904  1.00  0.00     0.073 A 
BRANCH  24  25
HETATM   25  O   UNL     1     -45.597  57.535 -57.795  1.00  0.00    -0.360 OA
HETATM   26  H   UNL     1     -44.713  57.790 -57.448  1.00  0.00     0.217 HD
ENDBRANCH  24  25
ENDBRANCH   1  19
TORSDOF 2
ENDMDL
MODEL 5
REMARK VINA RESULT:      -7.3      1.765      5.306
REMARK  2 active torsions:
REMARK  status: ('A' for Active; 'I' for Inactive)
REMARK    1  A    between atoms: C_3  and  C_4 
REMARK    2  A    between atoms: C_19  and  O_20 
ROOT
HETATM    1  C   UNL     1     -41.574  56.648 -53.641  1.00  0.00     0.137 C 
HETATM    2  N   UNL     1     -41.498  56.801 -52.167  1.00  0.00    -0.278 NA
HETATM    3  C   UNL     1     -41.765  58.072 -51.620  1.00  0.00     0.036 A 
HETATM    4  C   UNL     1     -43.041  58.677 -51.689  1.00  0.00     0.053 A 
HETATM    5  N   UNL     1     -44.133  58.107 -52.391  1.00  0.00    -0.356 N 
HETATM    6  C   UNL     1     -44.000  57.541 -53.641  1.00  0.00     0.041 A 
HETATM    7  C   UNL     1     -42.915  56.974 -54.194  1.00  0.00     0.056 A 
HETATM    8  C   UNL     1     -43.243  56.751 -55.612  1.00  0.00     0.251 A 
HETATM    9  O   UNL     1     -42.475  56.412 -56.492  1.00  0.00    -0.268 OA
HETATM   10  N   UNL     1     -44.565  57.064 -55.789  1.00  0.00    -0.351 N 
HETATM   11  C   UNL     1     -45.156  57.585 -54.604  1.00  0.00     0.180 A 
HETATM   12  C   UNL     1     -40.742  58.721 -50.905  1.00  0.00     0.026 A 
HETATM   13  C   UNL     1     -40.961  59.951 -50.284  1.00  0.00     0.002 A 
HETATM   14  C   UNL     1     -42.215  60.544 -50.348  1.00  0.00     0.002 A 
HETATM   15  C   UNL     1     -43.248  59.909 -51.039  1.00  0.00     0.031 A 
HETATM   16  H   UNL     1     -40.573  56.488 -51.870  1.00  0.00     0.128 HD
HETATM   17  H   UNL     1     -45.001  58.613 -52.254  1.00  0.00     0.166 HD
HETATM   18  H   UNL     1     -44.995  57.023 -56.702  1.00  0.00     0.163 HD
ENDROOT
BRANCH   1  19
HETATM   19  C   UNL     1     -41.189  55.192 -53.905  1.00  0.00    -0.002 A 
HETATM   20  C   UNL     1     -40.179  54.894 -54.838  1.00  0.00     0.012 A 
HETATM   21  C   UNL     1     -39.842  53.568 -55.126  1.00  0.00     0.001 A 
HETATM   22  C   UNL     1     -40.511  52.522 -54.494  1.00  0.00     0.003 A 
HETATM   23  C   UNL     1     -41.510  52.798 -53.564  1.00  0.00     0.037 A 
HETATM   24  C   UNL     1     -41.835  54.118 -53.268  1.00  0.00     0.073 A 
BRANCH  24  25
HETATM   25  O   UNL     1     -42.797  54.318 -52.312  1.00  0.00    -0.360 OA
HETATM   26  H   UNL     1     -42.338  54.384 -51.445  1.00  0.00     0.217 HD
ENDBRANCH  24  25
ENDBRANCH   1  19
TORSDOF 2
ENDMDL
MODEL 6
REMARK VINA RESULT:      -7.2     15.699     17.873
REMARK  2 active torsions:
REMARK  status: ('A' for Active; 'I' for Inactive)
REMARK    1  A    between atoms: C_3  and  C_4 
REMARK    2  A    between atoms: C_19  and  O_20 
ROOT
HETATM    1  C   UNL     1     -34.922  39.966 -53.245  1.00  0.00     0.137 C 
HETATM    2  N   UNL     1     -34.524  41.139 -54.063  1.00  0.00    -0.278 NA
HETATM    3  C   UNL     1     -35.293  41.440 -55.204  1.00  0.00     0.036 A 
HETATM    4  C   UNL     1     -36.640  41.861 -55.125  1.00  0.00     0.053 A 
HETATM    5  N   UNL     1     -37.362  41.927 -53.906  1.00  0.00    -0.356 N 
HETATM    6  C   UNL     1     -37.299  40.937 -52.950  1.00  0.00     0.041 A 
HETATM    7  C   UNL     1     -36.301  40.075 -52.700  1.00  0.00     0.056 A 
HETATM    8  C   UNL     1     -36.837  39.087 -51.748  1.00  0.00     0.251 A 
HETATM    9  O   UNL     1     -36.306  38.049 -51.400  1.00  0.00    -0.268 OA
HETATM   10  N   UNL     1     -38.085  39.506 -51.370  1.00  0.00    -0.351 N 
HETATM   11  C   UNL     1     -38.494  40.674 -52.073  1.00  0.00     0.180 A 
HETATM   12  C   UNL     1     -34.667  41.399 -56.463  1.00  0.00     0.026 A 
HETATM   13  C   UNL     1     -35.354  41.748 -57.626  1.00  0.00     0.002 A 
HETATM   14  C   UNL     1     -36.676  42.166 -57.548  1.00  0.00     0.002 A 
HETATM   15  C   UNL     1     -37.311  42.229 -56.307  1.00  0.00     0.031 A 
HETATM   16  H   UNL     1     -33.548  41.013 -54.331  1.00  0.00     0.128 HD
HETATM   17  H   UNL     1     -38.279  42.349 -54.010  1.00  0.00     0.166 HD
HETATM   18  H   UNL     1     -38.657  38.953 -50.747  1.00  0.00     0.163 HD
ENDROOT
BRANCH   1  19
HETATM   19  C   UNL     1     -33.875  39.889 -52.134  1.00  0.00    -0.002 A 
HETATM   20  C   UNL     1     -33.029  38.769 -52.045  1.00  0.00     0.012 A 
HETATM   21  C   UNL     1     -32.096  38.659 -51.011  1.00  0.00     0.001 A 
HETATM   22  C   UNL     1     -31.996  39.660 -50.047  1.00  0.00     0.003 A 
HETATM   23  C   UNL     1     -32.822  40.779 -50.120  1.00  0.00     0.037 A 
HETATM   24  C   UNL     1     -33.742  40.893 -51.158  1.00  0.00     0.073 A 
BRANCH  24  25
HETATM   25  O   UNL     1     -34.492  42.040 -51.195  1.00  0.00    -0.360 OA
HETATM   26  H   UNL     1     -34.313  42.533 -50.363  1.00  0.00     0.217 HD
ENDBRANCH  24  25
ENDBRANCH   1  19
TORSDOF 2
ENDMDL
MODEL 7
REMARK VINA RESULT:      -7.2     16.588     18.173
REMARK  2 active torsions:
REMARK  status: ('A' for Active; 'I' for Inactive)
REMARK    1  A    between atoms: C_3  and  C_4 
REMARK    2  A    between atoms: C_19  and  O_20 
ROOT
HETATM    1  C   UNL     1     -35.632  39.979 -55.642  1.00  0.00     0.137 C 
HETATM    2  N   UNL     1     -35.872  41.027 -54.619  1.00  0.00    -0.278 NA
HETATM    3  C   UNL     1     -35.303  40.847 -53.343  1.00  0.00     0.036 A 
HETATM    4  C   UNL     1     -33.907  40.851 -53.125  1.00  0.00     0.053 A 
HETATM    5  N   UNL     1     -32.958  40.942 -54.175  1.00  0.00    -0.356 N 
HETATM    6  C   UNL     1     -33.077  40.230 -55.349  1.00  0.00     0.041 A 
HETATM    7  C   UNL     1     -34.191  39.776 -55.944  1.00  0.00     0.056 A 
HETATM    8  C   UNL     1     -33.746  38.886 -57.031  1.00  0.00     0.251 A 
HETATM    9  O   UNL     1     -34.444  38.148 -57.699  1.00  0.00    -0.268 OA
HETATM   10  N   UNL     1     -32.382  38.978 -57.113  1.00  0.00    -0.351 N 
HETATM   11  C   UNL     1     -31.838  39.803 -56.088  1.00  0.00     0.180 A 
HETATM   12  C   UNL     1     -36.164  40.743 -52.235  1.00  0.00     0.026 A 
HETATM   13  C   UNL     1     -35.665  40.628 -50.937  1.00  0.00     0.002 A 
HETATM   14  C   UNL     1     -34.293  40.636 -50.722  1.00  0.00     0.002 A 
HETATM   15  C   UNL     1     -33.422  40.754 -51.806  1.00  0.00     0.031 A 
HETATM   16  H   UNL     1     -36.881  41.149 -54.531  1.00  0.00     0.128 HD
HETATM   17  H   UNL     1     -32.004  41.038 -53.841  1.00  0.00     0.166 HD
HETATM   18  H   UNL     1     -31.857  38.416 -57.768  1.00  0.00     0.163 HD
ENDROOT
BRANCH   1  19
HETATM   19  C   UNL     1     -36.412  40.446 -56.872  1.00  0.00    -0.002 A 
HETATM   20  C   UNL     1     -37.481  39.672 -57.359  1.00  0.00     0.012 A 
HETATM   21  C   UNL     1     -38.177  40.058 -58.507  1.00  0.00     0.001 A 
HETATM   22  C   UNL     1     -37.815  41.217 -59.190  1.00  0.00     0.003 A 
HETATM   23  C   UNL     1     -36.762  41.999 -58.722  1.00  0.00     0.037 A 
HETATM   24  C   UNL     1     -36.078  41.620 -57.570  1.00  0.00     0.073 A 
BRANCH  24  25
HETATM   25  O   UNL     1     -35.082  42.457 -57.140  1.00  0.00    -0.360 OA
HETATM   26  H   UNL     1     -35.498  43.325 -56.934  1.00  0.00     0.217 HD
ENDBRANCH  24  25
ENDBRANCH   1  19
TORSDOF 2
ENDMDL
MODEL 8
REMARK VINA RESULT:      -7.1      2.375      3.917
REMARK  2 active torsions:
REMARK  status: ('A' for Active; 'I' for Inactive)
REMARK    1  A    between atoms: C_3  and  C_4 
REMARK    2  A    between atoms: C_19  and  O_20 
ROOT
HETATM    1  C   UNL     1     -41.540  56.645 -53.222  1.00  0.00     0.137 C 
HETATM    2  N   UNL     1     -41.982  55.410 -53.918  1.00  0.00    -0.278 NA
HETATM    3  C   UNL     1     -41.200  54.249 -53.761  1.00  0.00     0.036 A 
HETATM    4  C   UNL     1     -41.061  53.586 -52.521  1.00  0.00     0.053 A 
HETATM    5  N   UNL     1     -41.613  54.080 -51.312  1.00  0.00    -0.356 N 
HETATM    6  C   UNL     1     -41.548  55.409 -50.952  1.00  0.00     0.041 A 
HETATM    7  C   UNL     1     -41.464  56.489 -51.746  1.00  0.00     0.056 A 
HETATM    8  C   UNL     1     -41.185  57.632 -50.860  1.00  0.00     0.251 A 
HETATM    9  O   UNL     1     -40.874  58.757 -51.200  1.00  0.00    -0.268 OA
HETATM   10  N   UNL     1     -41.267  57.187 -49.567  1.00  0.00    -0.351 N 
HETATM   11  C   UNL     1     -41.490  55.783 -49.496  1.00  0.00     0.180 A 
HETATM   12  C   UNL     1     -40.607  53.683 -54.905  1.00  0.00     0.026 A 
HETATM   13  C   UNL     1     -39.875  52.498 -54.830  1.00  0.00     0.002 A 
HETATM   14  C   UNL     1     -39.741  51.844 -53.612  1.00  0.00     0.002 A 
HETATM   15  C   UNL     1     -40.335  52.381 -52.469  1.00  0.00     0.031 A 
HETATM   16  H   UNL     1     -42.076  55.630 -54.910  1.00  0.00     0.128 HD
HETATM   17  H   UNL     1     -41.512  53.433 -50.536  1.00  0.00     0.166 HD
HETATM   18  H   UNL     1     -41.070  57.801 -48.789  1.00  0.00     0.163 HD
ENDROOT
BRANCH   1  19
HETATM   19  C   UNL     1     -42.557  57.711 -53.630  1.00  0.00    -0.002 A 
HETATM   20  C   UNL     1     -43.930  57.406 -53.626  1.00  0.00     0.012 A 
HETATM   21  C   UNL     1     -44.873  58.352 -54.038  1.00  0.00     0.001 A 
HETATM   22  C   UNL     1     -44.460  59.612 -54.467  1.00  0.00     0.003 A 
HETATM   23  C   UNL     1     -43.105  59.934 -54.475  1.00  0.00     0.037 A 
HETATM   24  C   UNL     1     -42.169  58.995 -54.051  1.00  0.00     0.073 A 
BRANCH  24  25
HETATM   25  O   UNL     1     -40.858  59.392 -54.043  1.00  0.00    -0.360 OA
HETATM   26  H   UNL     1     -40.830  60.320 -54.370  1.00  0.00     0.217 HD
ENDBRANCH  24  25
ENDBRANCH   1  19
TORSDOF 2
ENDMDL
MODEL 9
REMARK VINA RESULT:      -7.0      2.151      3.666
REMARK  2 active torsions:
REMARK  status: ('A' for Active; 'I' for Inactive)
REMARK    1  A    between atoms: C_3  and  C_4 
REMARK    2  A    between atoms: C_19  and  O_20 
ROOT
HETATM    1  C   UNL     1     -43.334  57.935 -53.061  1.00  0.00     0.137 C 
HETATM    2  N   UNL     1     -43.845  56.544 -52.963  1.00  0.00    -0.278 NA
HETATM    3  C   UNL     1     -42.978  55.495 -53.327  1.00  0.00     0.036 A 
HETATM    4  C   UNL     1     -41.803  55.192 -52.602  1.00  0.00     0.053 A 
HETATM    5  N   UNL     1     -41.345  55.969 -51.508  1.00  0.00    -0.356 N 
HETATM    6  C   UNL     1     -41.341  57.347 -51.523  1.00  0.00     0.041 A 
HETATM    7  C   UNL     1     -42.138  58.179 -52.213  1.00  0.00     0.056 A 
HETATM    8  C   UNL     1     -41.563  59.526 -52.056  1.00  0.00     0.251 A 
HETATM    9  O   UNL     1     -41.888  60.531 -52.658  1.00  0.00    -0.268 OA
HETATM   10  N   UNL     1     -40.535  59.438 -51.154  1.00  0.00    -0.351 N 
HETATM   11  C   UNL     1     -40.294  58.096 -50.746  1.00  0.00     0.180 A 
HETATM   12  C   UNL     1     -43.344  54.668 -54.405  1.00  0.00     0.026 A 
HETATM   13  C   UNL     1     -42.563  53.573 -54.776  1.00  0.00     0.002 A 
HETATM   14  C   UNL     1     -41.411  53.272 -54.061  1.00  0.00     0.002 A 
HETATM   15  C   UNL     1     -41.039  54.071 -52.979  1.00  0.00     0.031 A 
HETATM   16  H   UNL     1     -44.701  56.489 -53.515  1.00  0.00     0.128 HD
HETATM   17  H   UNL     1     -40.548  55.555 -51.034  1.00  0.00     0.166 HD
HETATM   18  H   UNL     1     -39.969  60.243 -50.926  1.00  0.00     0.163 HD
ENDROOT
BRANCH   1  19
HETATM   19  C   UNL     1     -44.513  58.816 -52.650  1.00  0.00    -0.002 A 
HETATM   20  C   UNL     1     -44.964  59.830 -53.514  1.00  0.00     0.012 A 
HETATM   21  C   UNL     1     -46.012  60.675 -53.138  1.00  0.00     0.001 A 
HETATM   22  C   UNL     1     -46.621  60.525 -51.893  1.00  0.00     0.003 A 
HETATM   23  C   UNL     1     -46.192  59.524 -51.026  1.00  0.00     0.037 A 
HETATM   24  C   UNL     1     -45.157  58.675 -51.408  1.00  0.00     0.073 A 
BRANCH  24  25
HETATM   25  O   UNL     1     -44.814  57.685 -50.525  1.00  0.00    -0.360 OA
HETATM   26  H   UNL     1     -44.854  58.071 -49.621  1.00  0.00     0.217 HD
ENDBRANCH  24  25
ENDBRANCH   1  19
TORSDOF 2
ENDMDL
MODEL 10
REMARK VINA RESULT:      -6.9      1.714      2.348
REMARK  2 active torsions:
REMARK  status: ('A' for Active; 'I' for Inactive)
REMARK    1  A    between atoms: C_3  and  C_4 
REMARK    2  A    between atoms: C_19  and  O_20 
ROOT
HETATM    1  C   UNL     1     -42.764  56.637 -52.147  1.00  0.00     0.137 C 
HETATM    2  N   UNL     1     -41.490  56.443 -51.411  1.00  0.00    -0.278 NA
HETATM    3  C   UNL     1     -41.118  55.127 -51.071  1.00  0.00     0.036 A 
HETATM    4  C   UNL     1     -40.789  54.154 -52.043  1.00  0.00     0.053 A 
HETATM    5  N   UNL     1     -40.896  54.384 -53.437  1.00  0.00    -0.356 N 
HETATM    6  C   UNL     1     -41.975  55.024 -54.006  1.00  0.00     0.041 A 
HETATM    7  C   UNL     1     -42.797  55.932 -53.455  1.00  0.00     0.056 A 
HETATM    8  C   UNL     1     -43.910  56.111 -54.403  1.00  0.00     0.251 A 
HETATM    9  O   UNL     1     -44.945  56.719 -54.204  1.00  0.00    -0.268 OA
HETATM   10  N   UNL     1     -43.609  55.405 -55.538  1.00  0.00    -0.351 N 
HETATM   11  C   UNL     1     -42.401  54.665 -55.404  1.00  0.00     0.180 A 
HETATM   12  C   UNL     1     -40.988  54.799 -49.710  1.00  0.00     0.026 A 
HETATM   13  C   UNL     1     -40.561  53.533 -49.306  1.00  0.00     0.002 A 
HETATM   14  C   UNL     1     -40.235  52.578 -50.260  1.00  0.00     0.002 A 
HETATM   15  C   UNL     1     -40.342  52.889 -51.616  1.00  0.00     0.031 A 
HETATM   16  H   UNL     1     -41.528  57.017 -50.569  1.00  0.00     0.128 HD
HETATM   17  H   UNL     1     -40.522  53.622 -53.995  1.00  0.00     0.166 HD
HETATM   18  H   UNL     1     -44.258  55.354 -56.310  1.00  0.00     0.163 HD
ENDROOT
BRANCH   1  19
HETATM   19  C   UNL     1     -42.894  58.151 -52.313  1.00  0.00    -0.002 A 
HETATM   20  C   UNL     1     -44.009  58.822 -51.778  1.00  0.00     0.012 A 
HETATM   21  C   UNL     1     -44.169  60.198 -51.958  1.00  0.00     0.001 A 
HETATM   22  C   UNL     1     -43.223  60.926 -52.678  1.00  0.00     0.003 A 
HETATM   23  C   UNL     1     -42.109  60.281 -53.211  1.00  0.00     0.037 A 
HETATM   24  C   UNL     1     -41.946  58.912 -53.021  1.00  0.00     0.073 A 
BRANCH  24  25
HETATM   25  O   UNL     1     -40.807  58.349 -53.534  1.00  0.00    -0.360 OA
HETATM   26  H   UNL     1     -40.070  58.566 -52.920  1.00  0.00     0.217 HD
ENDBRANCH  24  25
ENDBRANCH   1  19
TORSDOF 2
ENDMDL
