MODEL 1
REMARK VINA RESULT:      -8.9      0.000      0.000
REMARK  8 active torsions:
REMARK  status: ('A' for Active; 'I' for Inactive)
REMARK    1  A    between atoms: C_2  and  C_3 
REMARK    2  A    between atoms: C_3  and  C_4 
REMARK       I    between atoms: C_4  and  N_5 
REMARK    3  A    between atoms: N_8  and  C_9 
REMARK    4  A    between atoms: C_12  and  N_13 
REMARK    5  A    between atoms: N_13  and  C_14 
REMARK    6  A    between atoms: C_14  and  N_15 
REMARK       I    between atoms: N_15  and  C_16 
REMARK    7  A    between atoms: C_16  and  C_17 
REMARK    8  A    between atoms: C_19  and  C_20 
ROOT
HETATM    1  N   UNL     1     -42.219  60.496 -52.236  1.00  0.00    -0.333 N 
HETATM    2  H   UNL     1     -41.352  61.012 -52.085  1.00  0.00     0.168 HD
ENDROOT
BRANCH   1   3
HETATM    3  C   UNL     1     -42.524  60.162 -53.571  1.00  0.00     0.034 A 
HETATM    4  C   UNL     1     -43.601  60.722 -54.248  1.00  0.00     0.031 A 
HETATM    5  C   UNL     1     -43.923  60.300 -55.538  1.00  0.00     0.026 A 
HETATM    6  C   UNL     1     -43.201  59.288 -56.188  1.00  0.00     0.010 A 
HETATM    7  C   UNL     1     -42.046  58.826 -55.541  1.00  0.00     0.026 A 
HETATM    8  C   UNL     1     -41.701  59.267 -54.252  1.00  0.00     0.031 A 
BRANCH   6   9
HETATM    9  N   UNL     1     -43.664  58.806 -57.428  1.00  0.00    -0.280 NA
HETATM   10  C   UNL     1     -45.124  58.522 -57.404  1.00  0.00     0.115 C 
HETATM   11  C   UNL     1     -45.659  58.250 -58.818  1.00  0.00     0.140 C 
HETATM   12  N   UNL     1     -44.894  57.211 -59.513  1.00  0.00    -0.350 N 
HETATM   13  C   UNL     1     -45.413  56.319 -60.437  1.00  0.00     0.219 C 
HETATM   14  C   UNL     1     -43.442  57.433 -59.495  1.00  0.00     0.140 C 
HETATM   15  O   UNL     1     -44.684  55.626 -61.152  1.00  0.00    -0.273 OA
HETATM   16  C   UNL     1     -42.899  57.718 -58.081  1.00  0.00     0.115 C 
BRANCH  13  17
HETATM   17  C   UNL     1     -46.919  56.136 -60.526  1.00  0.00     0.103 C 
BRANCH  17  18
HETATM   18  C   UNL     1     -47.571  57.138 -61.480  1.00  0.00     0.005 C 
HETATM   19  C   UNL     1     -48.760  56.584 -62.248  1.00  0.00     0.005 C 
ENDBRANCH  17  18
ENDBRANCH  13  17
ENDBRANCH   6   9
ENDBRANCH   1   3
BRANCH   1  20
HETATM   20  C   UNL     1     -42.789  59.985 -51.094  1.00  0.00     0.179 C 
HETATM   21  S   UNL     1     -43.887  60.711 -50.054  1.00  0.00    -0.040 SA
BRANCH  20  22
HETATM   22  N   UNL     1     -42.433  58.701 -50.765  1.00  0.00    -0.298 N 
HETATM   23  C   UNL     1     -42.860  57.474 -51.257  1.00  0.00     0.281 C 
HETATM   24  O   UNL     1     -43.894  57.323 -51.902  1.00  0.00    -0.265 OA
HETATM   25  H   UNL     1     -41.618  58.655 -50.164  1.00  0.00     0.171 HD
BRANCH  23  26
HETATM   26  C   UNL     1     -41.960  56.408 -50.869  1.00  0.00     0.144 A 
HETATM   27  O   UNL     1     -41.751  55.401 -51.773  1.00  0.00    -0.304 OA
HETATM   28  C   UNL     1     -40.897  54.495 -51.218  1.00  0.00     0.086 A 
HETATM   29  C   UNL     1     -40.546  54.926 -49.952  1.00  0.00     0.041 A 
HETATM   30  C   UNL     1     -41.230  56.152 -49.728  1.00  0.00     0.046 A 
BRANCH  28  31
HETATM   31  C   UNL     1     -40.572  53.344 -52.058  1.00  0.00    -0.002 A 
HETATM   32  C   UNL     1     -39.831  52.268 -51.551  1.00  0.00     0.016 A 
HETATM   33  C   UNL     1     -39.513  51.170 -52.362  1.00  0.00     0.024 A 
HETATM   34  C   UNL     1     -39.938  51.138 -53.688  1.00  0.00     0.034 A 
HETATM   35 CL   UNL     1     -39.544  49.793 -54.684  1.00  0.00    -0.084 Cl
HETATM   36  C   UNL     1     -40.678  52.193 -54.211  1.00  0.00     0.024 A 
HETATM   37  C   UNL     1     -40.992  53.287 -53.399  1.00  0.00     0.016 A 
ENDBRANCH  28  31
ENDBRANCH  23  26
ENDBRANCH  20  22
ENDBRANCH   1  20
TORSDOF 8
ENDMDL
MODEL 2
REMARK VINA RESULT:      -8.4      4.871      9.553
REMARK  8 active torsions:
REMARK  status: ('A' for Active; 'I' for Inactive)
REMARK    1  A    between atoms: C_2  and  C_3 
REMARK    2  A    between atoms: C_3  and  C_4 
REMARK       I    between atoms: C_4  and  N_5 
REMARK    3  A    between atoms: N_8  and  C_9 
REMARK    4  A    between atoms: C_12  and  N_13 
REMARK    5  A    between atoms: N_13  and  C_14 
REMARK    6  A    between atoms: C_14  and  N_15 
REMARK       I    between atoms: N_15  and  C_16 
REMARK    7  A    between atoms: C_16  and  C_17 
REMARK    8  A    between atoms: C_19  and  C_20 
ROOT
HETATM    1  N   UNL     1     -45.114  59.488 -53.274  1.00  0.00    -0.333 N 
HETATM    2  H   UNL     1     -45.566  58.578 -53.364  1.00  0.00     0.168 HD
ENDROOT
BRANCH   1   3
HETATM    3  C   UNL     1     -45.459  60.249 -52.140  1.00  0.00     0.034 A 
HETATM    4  C   UNL     1     -46.184  61.432 -52.233  1.00  0.00     0.031 A 
HETATM    5  C   UNL     1     -46.429  62.203 -51.096  1.00  0.00     0.026 A 
HETATM    6  C   UNL     1     -45.940  61.837 -49.833  1.00  0.00     0.010 A 
HETATM    7  C   UNL     1     -45.321  60.582 -49.739  1.00  0.00     0.026 A 
HETATM    8  C   UNL     1     -45.095  59.787 -50.877  1.00  0.00     0.031 A 
BRANCH   6   9
HETATM    9  N   UNL     1     -46.096  62.729 -48.754  1.00  0.00    -0.280 NA
HETATM   10  C   UNL     1     -44.870  62.807 -47.916  1.00  0.00     0.115 C 
HETATM   11  C   UNL     1     -44.959  63.964 -46.909  1.00  0.00     0.140 C 
HETATM   12  N   UNL     1     -46.186  63.912 -46.108  1.00  0.00    -0.350 N 
HETATM   13  C   UNL     1     -46.304  64.340 -44.797  1.00  0.00     0.219 C 
HETATM   14  C   UNL     1     -47.410  63.767 -46.909  1.00  0.00     0.140 C 
HETATM   15  O   UNL     1     -47.404  64.483 -44.256  1.00  0.00    -0.273 OA
HETATM   16  C   UNL     1     -47.322  62.616 -47.930  1.00  0.00     0.115 C 
BRANCH  13  17
HETATM   17  C   UNL     1     -45.045  64.574 -43.977  1.00  0.00     0.103 C 
BRANCH  17  18
HETATM   18  C   UNL     1     -44.470  63.276 -43.411  1.00  0.00     0.005 C 
HETATM   19  C   UNL     1     -43.176  63.453 -42.634  1.00  0.00     0.005 C 
ENDBRANCH  17  18
ENDBRANCH  13  17
ENDBRANCH   6   9
ENDBRANCH   1   3
BRANCH   1  20
HETATM   20  C   UNL     1     -44.053  59.689 -54.126  1.00  0.00     0.179 C 
HETATM   21  S   UNL     1     -43.641  61.072 -54.982  1.00  0.00    -0.040 SA
BRANCH  20  22
HETATM   22  N   UNL     1     -43.200  58.625 -54.287  1.00  0.00    -0.298 N 
HETATM   23  C   UNL     1     -42.584  57.793 -53.362  1.00  0.00     0.281 C 
HETATM   24  O   UNL     1     -42.467  58.069 -52.171  1.00  0.00    -0.265 OA
HETATM   25  H   UNL     1     -43.130  58.313 -55.250  1.00  0.00     0.171 HD
BRANCH  23  26
HETATM   26  C   UNL     1     -42.062  56.598 -53.993  1.00  0.00     0.144 A 
HETATM   27  O   UNL     1     -41.622  55.594 -53.172  1.00  0.00    -0.304 OA
HETATM   28  C   UNL     1     -41.157  54.575 -53.949  1.00  0.00     0.086 A 
HETATM   29  C   UNL     1     -41.307  54.921 -55.279  1.00  0.00     0.041 A 
HETATM   30  C   UNL     1     -41.885  56.219 -55.307  1.00  0.00     0.046 A 
BRANCH  28  31
HETATM   31  C   UNL     1     -40.641  53.418 -53.221  1.00  0.00    -0.002 A 
HETATM   32  C   UNL     1     -40.201  52.275 -53.903  1.00  0.00     0.016 A 
HETATM   33  C   UNL     1     -39.716  51.163 -53.201  1.00  0.00     0.024 A 
HETATM   34  C   UNL     1     -39.663  51.187 -51.810  1.00  0.00     0.034 A 
HETATM   35 CL   UNL     1     -39.071  49.821 -50.949  1.00  0.00    -0.084 Cl
HETATM   36  C   UNL     1     -40.090  52.312 -51.113  1.00  0.00     0.024 A 
HETATM   37  C   UNL     1     -40.575  53.419 -51.816  1.00  0.00     0.016 A 
ENDBRANCH  28  31
ENDBRANCH  23  26
ENDBRANCH  20  22
ENDBRANCH   1  20
TORSDOF 8
ENDMDL
MODEL 3
REMARK VINA RESULT:      -8.2      2.122      3.058
REMARK  8 active torsions:
REMARK  status: ('A' for Active; 'I' for Inactive)
REMARK    1  A    between atoms: C_2  and  C_3 
REMARK    2  A    between atoms: C_3  and  C_4 
REMARK       I    between atoms: C_4  and  N_5 
REMARK    3  A    between atoms: N_8  and  C_9 
REMARK    4  A    between atoms: C_12  and  N_13 
REMARK    5  A    between atoms: N_13  and  C_14 
REMARK    6  A    between atoms: C_14  and  N_15 
REMARK       I    between atoms: N_15  and  C_16 
REMARK    7  A    between atoms: C_16  and  C_17 
REMARK    8  A    between atoms: C_19  and  C_20 
ROOT
HETATM    1  N   UNL     1     -43.912  57.928 -54.374  1.00  0.00    -0.333 N 
HETATM    2  H   UNL     1     -44.566  57.588 -53.669  1.00  0.00     0.168 HD
ENDROOT
BRANCH   1   3
HETATM    3  C   UNL     1     -44.405  58.031 -55.690  1.00  0.00     0.034 A 
HETATM    4  C   UNL     1     -45.487  58.842 -56.014  1.00  0.00     0.031 A 
HETATM    5  C   UNL     1     -46.002  58.849 -57.312  1.00  0.00     0.026 A 
HETATM    6  C   UNL     1     -45.475  58.032 -58.322  1.00  0.00     0.010 A 
HETATM    7  C   UNL     1     -44.309  57.318 -58.008  1.00  0.00     0.026 A 
HETATM    8  C   UNL     1     -43.769  57.327 -56.710  1.00  0.00     0.031 A 
BRANCH   6   9
HETATM    9  N   UNL     1     -46.129  57.977 -59.568  1.00  0.00    -0.280 NA
HETATM   10  C   UNL     1     -46.879  59.228 -59.858  1.00  0.00     0.115 C 
HETATM   11  C   UNL     1     -47.366  59.259 -61.315  1.00  0.00     0.140 C 
HETATM   12  N   UNL     1     -48.119  58.054 -61.676  1.00  0.00    -0.350 N 
HETATM   13  C   UNL     1     -49.165  58.006 -62.581  1.00  0.00     0.219 C 
HETATM   14  C   UNL     1     -47.428  56.801 -61.340  1.00  0.00     0.140 C 
HETATM   15  O   UNL     1     -49.604  56.936 -63.012  1.00  0.00    -0.273 OA
HETATM   16  C   UNL     1     -46.926  56.768 -59.883  1.00  0.00     0.115 C 
BRANCH  13  17
HETATM   17  C   UNL     1     -49.840  59.302 -63.003  1.00  0.00     0.103 C 
BRANCH  17  18
HETATM   18  C   UNL     1     -50.890  59.766 -61.995  1.00  0.00     0.005 C 
HETATM   19  C   UNL     1     -52.245  59.095 -62.152  1.00  0.00     0.005 C 
ENDBRANCH  17  18
ENDBRANCH  13  17
ENDBRANCH   6   9
ENDBRANCH   1   3
BRANCH   1  20
HETATM   20  C   UNL     1     -42.759  58.481 -53.867  1.00  0.00     0.179 C 
HETATM   21  S   UNL     1     -42.078  59.978 -54.198  1.00  0.00    -0.040 SA
BRANCH  20  22
HETATM   22  N   UNL     1     -42.079  57.719 -52.949  1.00  0.00    -0.298 N 
HETATM   23  C   UNL     1     -42.122  57.696 -51.561  1.00  0.00     0.281 C 
HETATM   24  O   UNL     1     -42.591  58.604 -50.880  1.00  0.00    -0.265 OA
HETATM   25  H   UNL     1     -41.569  56.950 -53.369  1.00  0.00     0.171 HD
BRANCH  23  26
HETATM   26  C   UNL     1     -41.503  56.497 -51.034  1.00  0.00     0.144 A 
HETATM   27  O   UNL     1     -41.263  55.474 -51.913  1.00  0.00    -0.304 OA
HETATM   28  C   UNL     1     -40.700  54.440 -51.227  1.00  0.00     0.086 A 
HETATM   29  C   UNL     1     -40.566  54.802 -49.900  1.00  0.00     0.041 A 
HETATM   30  C   UNL     1     -41.084  56.121 -49.776  1.00  0.00     0.046 A 
BRANCH  28  31
HETATM   31  C   UNL     1     -40.385  53.257 -52.025  1.00  0.00    -0.002 A 
HETATM   32  C   UNL     1     -39.783  52.134 -51.442  1.00  0.00     0.016 A 
HETATM   33  C   UNL     1     -39.473  51.005 -52.212  1.00  0.00     0.024 A 
HETATM   34  C   UNL     1     -39.766  50.989 -53.573  1.00  0.00     0.034 A 
HETATM   35 CL   UNL     1     -39.383  49.604 -54.518  1.00  0.00    -0.084 Cl
HETATM   36  C   UNL     1     -40.367  52.091 -54.172  1.00  0.00     0.024 A 
HETATM   37  C   UNL     1     -40.674  53.216 -53.401  1.00  0.00     0.016 A 
ENDBRANCH  28  31
ENDBRANCH  23  26
ENDBRANCH  20  22
ENDBRANCH   1  20
TORSDOF 8
ENDMDL
MODEL 4
REMARK VINA RESULT:      -7.9      3.491      4.468
REMARK  8 active torsions:
REMARK  status: ('A' for Active; 'I' for Inactive)
REMARK    1  A    between atoms: C_2  and  C_3 
REMARK    2  A    between atoms: C_3  and  C_4 
REMARK       I    between atoms: C_4  and  N_5 
REMARK    3  A    between atoms: N_8  and  C_9 
REMARK    4  A    between atoms: C_12  and  N_13 
REMARK    5  A    between atoms: N_13  and  C_14 
REMARK    6  A    between atoms: C_14  and  N_15 
REMARK       I    between atoms: N_15  and  C_16 
REMARK    7  A    between atoms: C_16  and  C_17 
REMARK    8  A    between atoms: C_19  and  C_20 
ROOT
HETATM    1  N   UNL     1     -44.828  57.876 -54.344  1.00  0.00    -0.333 N 
HETATM    2  H   UNL     1     -45.649  57.278 -54.436  1.00  0.00     0.168 HD
ENDROOT
BRANCH   1   3
HETATM    3  C   UNL     1     -44.216  58.291 -55.544  1.00  0.00     0.034 A 
HETATM    4  C   UNL     1     -42.860  58.106 -55.787  1.00  0.00     0.031 A 
HETATM    5  C   UNL     1     -42.275  58.610 -56.950  1.00  0.00     0.026 A 
HETATM    6  C   UNL     1     -43.013  59.336 -57.896  1.00  0.00     0.010 A 
HETATM    7  C   UNL     1     -44.399  59.403 -57.694  1.00  0.00     0.026 A 
HETATM    8  C   UNL     1     -44.999  58.873 -56.538  1.00  0.00     0.031 A 
BRANCH   6   9
HETATM    9  N   UNL     1     -42.337  59.942 -58.973  1.00  0.00    -0.280 NA
HETATM   10  C   UNL     1     -42.168  61.405 -58.771  1.00  0.00     0.115 C 
HETATM   11  C   UNL     1     -41.211  62.003 -59.814  1.00  0.00     0.140 C 
HETATM   12  N   UNL     1     -41.602  61.665 -61.186  1.00  0.00    -0.350 N 
HETATM   13  C   UNL     1     -41.405  62.471 -62.295  1.00  0.00     0.219 C 
HETATM   14  C   UNL     1     -41.840  60.231 -61.398  1.00  0.00     0.140 C 
HETATM   15  O   UNL     1     -41.544  62.042 -63.443  1.00  0.00    -0.273 OA
HETATM   16  C   UNL     1     -42.789  59.622 -60.347  1.00  0.00     0.115 C 
BRANCH  13  17
HETATM   17  C   UNL     1     -41.077  63.942 -62.094  1.00  0.00     0.103 C 
BRANCH  17  18
HETATM   18  C   UNL     1     -39.749  64.335 -62.742  1.00  0.00     0.005 C 
HETATM   19  C   UNL     1     -38.557  63.523 -62.262  1.00  0.00     0.005 C 
ENDBRANCH  17  18
ENDBRANCH  13  17
ENDBRANCH   6   9
ENDBRANCH   1   3
BRANCH   1  20
HETATM   20  C   UNL     1     -44.630  58.389 -53.083  1.00  0.00     0.179 C 
HETATM   21  S   UNL     1     -45.394  59.688 -52.347  1.00  0.00    -0.040 SA
BRANCH  20  22
HETATM   22  N   UNL     1     -43.699  57.742 -52.309  1.00  0.00    -0.298 N 
HETATM   23  C   UNL     1     -43.840  56.859 -51.247  1.00  0.00     0.281 C 
HETATM   24  O   UNL     1     -44.879  56.729 -50.604  1.00  0.00    -0.265 OA
HETATM   25  H   UNL     1     -42.756  57.816 -52.675  1.00  0.00     0.171 HD
BRANCH  23  26
HETATM   26  C   UNL     1     -42.600  56.162 -50.973  1.00  0.00     0.144 A 
HETATM   27  O   UNL     1     -42.301  55.080 -51.757  1.00  0.00    -0.304 OA
HETATM   28  C   UNL     1     -41.116  54.556 -51.332  1.00  0.00     0.086 A 
HETATM   29  C   UNL     1     -40.644  55.310 -50.275  1.00  0.00     0.041 A 
HETATM   30  C   UNL     1     -41.598  56.339 -50.043  1.00  0.00     0.046 A 
BRANCH  28  31
HETATM   31  C   UNL     1     -40.652  53.380 -52.067  1.00  0.00    -0.002 A 
HETATM   32  C   UNL     1     -39.821  52.431 -51.457  1.00  0.00     0.016 A 
HETATM   33  C   UNL     1     -39.370  51.311 -52.168  1.00  0.00     0.024 A 
HETATM   34  C   UNL     1     -39.750  51.129 -53.495  1.00  0.00     0.034 A 
HETATM   35 CL   UNL     1     -39.193  49.755 -54.367  1.00  0.00    -0.084 Cl
HETATM   36  C   UNL     1     -40.578  52.056 -54.119  1.00  0.00     0.024 A 
HETATM   37  C   UNL     1     -41.025  53.173 -53.408  1.00  0.00     0.016 A 
ENDBRANCH  28  31
ENDBRANCH  23  26
ENDBRANCH  20  22
ENDBRANCH   1  20
TORSDOF 8
ENDMDL
MODEL 5
REMARK VINA RESULT:      -7.7      4.502      6.943
REMARK  8 active torsions:
REMARK  status: ('A' for Active; 'I' for Inactive)
REMARK    1  A    between atoms: C_2  and  C_3 
REMARK    2  A    between atoms: C_3  and  C_4 
REMARK       I    between atoms: C_4  and  N_5 
REMARK    3  A    between atoms: N_8  and  C_9 
REMARK    4  A    between atoms: C_12  and  N_13 
REMARK    5  A    between atoms: N_13  and  C_14 
REMARK    6  A    between atoms: C_14  and  N_15 
REMARK       I    between atoms: N_15  and  C_16 
REMARK    7  A    between atoms: C_16  and  C_17 
REMARK    8  A    between atoms: C_19  and  C_20 
ROOT
HETATM    1  N   UNL     1     -40.556  52.822 -55.056  1.00  0.00    -0.333 N 
HETATM    2  H   UNL     1     -40.414  52.391 -55.970  1.00  0.00     0.168 HD
ENDROOT
BRANCH   1   3
HETATM    3  C   UNL     1     -41.169  54.090 -55.049  1.00  0.00     0.034 A 
HETATM    4  C   UNL     1     -42.489  54.278 -55.445  1.00  0.00     0.031 A 
HETATM    5  C   UNL     1     -43.032  55.561 -55.508  1.00  0.00     0.026 A 
HETATM    6  C   UNL     1     -42.276  56.702 -55.204  1.00  0.00     0.010 A 
HETATM    7  C   UNL     1     -40.990  56.484 -54.688  1.00  0.00     0.026 A 
HETATM    8  C   UNL     1     -40.445  55.191 -54.597  1.00  0.00     0.031 A 
BRANCH   6   9
HETATM    9  N   UNL     1     -42.837  57.975 -55.427  1.00  0.00    -0.280 NA
HETATM   10  C   UNL     1     -41.949  59.066 -54.945  1.00  0.00     0.115 C 
HETATM   11  C   UNL     1     -42.446  60.439 -55.423  1.00  0.00     0.140 C 
HETATM   12  N   UNL     1     -43.854  60.669 -55.088  1.00  0.00    -0.350 N 
HETATM   13  C   UNL     1     -44.415  61.900 -54.792  1.00  0.00     0.219 C 
HETATM   14  C   UNL     1     -44.746  59.575 -55.495  1.00  0.00     0.140 C 
HETATM   15  O   UNL     1     -45.637  62.064 -54.744  1.00  0.00    -0.273 OA
HETATM   16  C   UNL     1     -44.247  58.193 -55.028  1.00  0.00     0.115 C 
BRANCH  13  17
HETATM   17  C   UNL     1     -43.503  63.067 -54.448  1.00  0.00     0.103 C 
BRANCH  17  18
HETATM   18  C   UNL     1     -44.016  63.874 -53.256  1.00  0.00     0.005 C 
HETATM   19  C   UNL     1     -42.974  64.782 -52.623  1.00  0.00     0.005 C 
ENDBRANCH  17  18
ENDBRANCH  13  17
ENDBRANCH   6   9
ENDBRANCH   1   3
BRANCH   1  20
HETATM   20  C   UNL     1     -40.374  51.974 -53.989  1.00  0.00     0.179 C 
HETATM   21  S   UNL     1     -39.873  50.372 -53.993  1.00  0.00    -0.040 SA
BRANCH  20  22
HETATM   22  N   UNL     1     -40.612  52.508 -52.747  1.00  0.00    -0.298 N 
HETATM   23  C   UNL     1     -39.929  52.380 -51.545  1.00  0.00     0.281 C 
HETATM   24  O   UNL     1     -39.119  51.486 -51.314  1.00  0.00    -0.265 OA
HETATM   25  H   UNL     1     -41.323  53.231 -52.754  1.00  0.00     0.171 HD
BRANCH  23  26
HETATM   26  C   UNL     1     -40.334  53.398 -50.597  1.00  0.00     0.144 A 
HETATM   27  O   UNL     1     -40.722  54.610 -51.103  1.00  0.00    -0.304 OA
HETATM   28  C   UNL     1     -41.044  55.429 -50.062  1.00  0.00     0.086 A 
HETATM   29  C   UNL     1     -40.871  54.737 -48.878  1.00  0.00     0.041 A 
HETATM   30  C   UNL     1     -40.414  53.435 -49.221  1.00  0.00     0.046 A 
BRANCH  28  31
HETATM   31  C   UNL     1     -41.476  56.775 -50.433  1.00  0.00    -0.002 A 
HETATM   32  C   UNL     1     -40.700  57.896 -50.109  1.00  0.00     0.016 A 
HETATM   33  C   UNL     1     -41.123  59.185 -50.459  1.00  0.00     0.024 A 
HETATM   34  C   UNL     1     -42.325  59.364 -51.138  1.00  0.00     0.034 A 
HETATM   35 CL   UNL     1     -42.844  60.947 -51.563  1.00  0.00    -0.084 Cl
HETATM   36  C   UNL     1     -43.109  58.265 -51.473  1.00  0.00     0.024 A 
HETATM   37  C   UNL     1     -42.685  56.980 -51.123  1.00  0.00     0.016 A 
ENDBRANCH  28  31
ENDBRANCH  23  26
ENDBRANCH  20  22
ENDBRANCH   1  20
TORSDOF 8
ENDMDL
MODEL 6
REMARK VINA RESULT:      -7.6      6.216     11.024
REMARK  8 active torsions:
REMARK  status: ('A' for Active; 'I' for Inactive)
REMARK    1  A    between atoms: C_2  and  C_3 
REMARK    2  A    between atoms: C_3  and  C_4 
REMARK       I    between atoms: C_4  and  N_5 
REMARK    3  A    between atoms: N_8  and  C_9 
REMARK    4  A    between atoms: C_12  and  N_13 
REMARK    5  A    between atoms: N_13  and  C_14 
REMARK    6  A    between atoms: C_14  and  N_15 
REMARK       I    between atoms: N_15  and  C_16 
REMARK    7  A    between atoms: C_16  and  C_17 
REMARK    8  A    between atoms: C_19  and  C_20 
ROOT
HETATM    1  N   UNL     1     -46.369  58.993 -57.093  1.00  0.00    -0.333 N 
HETATM    2  H   UNL     1     -46.929  58.374 -57.678  1.00  0.00     0.168 HD
ENDROOT
BRANCH   1   3
HETATM    3  C   UNL     1     -45.307  58.396 -56.385  1.00  0.00     0.034 A 
HETATM    4  C   UNL     1     -44.329  57.636 -57.017  1.00  0.00     0.031 A 
HETATM    5  C   UNL     1     -43.344  56.988 -56.271  1.00  0.00     0.026 A 
HETATM    6  C   UNL     1     -43.313  57.053 -54.870  1.00  0.00     0.010 A 
HETATM    7  C   UNL     1     -44.229  57.923 -54.262  1.00  0.00     0.026 A 
HETATM    8  C   UNL     1     -45.207  58.601 -55.010  1.00  0.00     0.031 A 
BRANCH   6   9
HETATM    9  N   UNL     1     -42.384  56.261 -54.169  1.00  0.00    -0.280 NA
HETATM   10  C   UNL     1     -41.693  55.293 -55.062  1.00  0.00     0.115 C 
HETATM   11  C   UNL     1     -40.509  54.624 -54.346  1.00  0.00     0.140 C 
HETATM   12  N   UNL     1     -40.898  54.029 -53.064  1.00  0.00    -0.350 N 
HETATM   13  C   UNL     1     -40.334  52.895 -52.505  1.00  0.00     0.219 C 
HETATM   14  C   UNL     1     -41.641  54.945 -52.187  1.00  0.00     0.140 C 
HETATM   15  O   UNL     1     -40.541  52.577 -51.330  1.00  0.00    -0.273 OA
HETATM   16  C   UNL     1     -42.823  55.629 -52.903  1.00  0.00     0.115 C 
BRANCH  13  17
HETATM   17  C   UNL     1     -39.493  51.977 -53.378  1.00  0.00     0.103 C 
BRANCH  17  18
HETATM   18  C   UNL     1     -40.349  51.079 -54.270  1.00  0.00     0.005 C 
HETATM   19  C   UNL     1     -39.748  49.707 -54.534  1.00  0.00     0.005 C 
ENDBRANCH  17  18
ENDBRANCH  13  17
ENDBRANCH   6   9
ENDBRANCH   1   3
BRANCH   1  20
HETATM   20  C   UNL     1     -46.579  60.335 -57.312  1.00  0.00     0.179 C 
HETATM   21  S   UNL     1     -45.446  61.561 -57.481  1.00  0.00    -0.040 SA
BRANCH  20  22
HETATM   22  N   UNL     1     -47.889  60.728 -57.431  1.00  0.00    -0.298 N 
HETATM   23  C   UNL     1     -48.774  60.665 -58.499  1.00  0.00     0.281 C 
HETATM   24  O   UNL     1     -48.422  60.503 -59.665  1.00  0.00    -0.265 OA
HETATM   25  H   UNL     1     -48.314  60.970 -56.543  1.00  0.00     0.171 HD
BRANCH  23  26
HETATM   26  C   UNL     1     -50.141  60.866 -58.064  1.00  0.00     0.144 A 
HETATM   27  O   UNL     1     -50.335  61.297 -56.779  1.00  0.00    -0.304 OA
HETATM   28  C   UNL     1     -51.676  61.406 -56.559  1.00  0.00     0.086 A 
HETATM   29  C   UNL     1     -52.350  61.051 -57.712  1.00  0.00     0.041 A 
HETATM   30  C   UNL     1     -51.364  60.703 -58.677  1.00  0.00     0.046 A 
BRANCH  28  31
HETATM   31  C   UNL     1     -52.057  61.854 -55.221  1.00  0.00    -0.002 A 
HETATM   32  C   UNL     1     -51.240  61.590 -54.113  1.00  0.00     0.016 A 
HETATM   33  C   UNL     1     -51.613  62.012 -52.830  1.00  0.00     0.024 A 
HETATM   34  C   UNL     1     -52.806  62.705 -52.645  1.00  0.00     0.034 A 
HETATM   35 CL   UNL     1     -53.265  63.220 -51.069  1.00  0.00    -0.084 Cl
HETATM   36  C   UNL     1     -53.631  62.981 -53.730  1.00  0.00     0.024 A 
HETATM   37  C   UNL     1     -53.256  62.558 -55.009  1.00  0.00     0.016 A 
ENDBRANCH  28  31
ENDBRANCH  23  26
ENDBRANCH  20  22
ENDBRANCH   1  20
TORSDOF 8
ENDMDL
MODEL 7
REMARK VINA RESULT:      -7.6      4.225      6.269
REMARK  8 active torsions:
REMARK  status: ('A' for Active; 'I' for Inactive)
REMARK    1  A    between atoms: C_2  and  C_3 
REMARK    2  A    between atoms: C_3  and  C_4 
REMARK       I    between atoms: C_4  and  N_5 
REMARK    3  A    between atoms: N_8  and  C_9 
REMARK    4  A    between atoms: C_12  and  N_13 
REMARK    5  A    between atoms: N_13  and  C_14 
REMARK    6  A    between atoms: C_14  and  N_15 
REMARK       I    between atoms: N_15  and  C_16 
REMARK    7  A    between atoms: C_16  and  C_17 
REMARK    8  A    between atoms: C_19  and  C_20 
ROOT
HETATM    1  N   UNL     1     -40.492  52.809 -55.002  1.00  0.00    -0.333 N 
HETATM    2  H   UNL     1     -40.295  52.373 -55.903  1.00  0.00     0.168 HD
ENDROOT
BRANCH   1   3
HETATM    3  C   UNL     1     -41.096  54.082 -55.040  1.00  0.00     0.034 A 
HETATM    4  C   UNL     1     -42.388  54.275 -55.517  1.00  0.00     0.031 A 
HETATM    5  C   UNL     1     -42.917  55.562 -55.621  1.00  0.00     0.026 A 
HETATM    6  C   UNL     1     -42.173  56.700 -55.278  1.00  0.00     0.010 A 
HETATM    7  C   UNL     1     -40.923  56.476 -54.683  1.00  0.00     0.026 A 
HETATM    8  C   UNL     1     -40.394  55.181 -54.550  1.00  0.00     0.031 A 
BRANCH   6   9
HETATM    9  N   UNL     1     -42.711  57.975 -55.542  1.00  0.00    -0.280 NA
HETATM   10  C   UNL     1     -43.116  58.123 -56.965  1.00  0.00     0.115 C 
HETATM   11  C   UNL     1     -43.931  59.408 -57.179  1.00  0.00     0.140 C 
HETATM   12  N   UNL     1     -43.245  60.595 -56.662  1.00  0.00    -0.350 N 
HETATM   13  C   UNL     1     -43.339  61.869 -57.196  1.00  0.00     0.219 C 
HETATM   14  C   UNL     1     -42.775  60.452 -55.277  1.00  0.00     0.140 C 
HETATM   15  O   UNL     1     -42.927  62.861 -56.589  1.00  0.00    -0.273 OA
HETATM   16  C   UNL     1     -41.967  59.159 -55.052  1.00  0.00     0.115 C 
BRANCH  13  17
HETATM   17  C   UNL     1     -43.900  62.045 -58.598  1.00  0.00     0.103 C 
BRANCH  17  18
HETATM   18  C   UNL     1     -42.815  61.968 -59.672  1.00  0.00     0.005 C 
HETATM   19  C   UNL     1     -42.907  60.741 -60.565  1.00  0.00     0.005 C 
ENDBRANCH  17  18
ENDBRANCH  13  17
ENDBRANCH   6   9
ENDBRANCH   1   3
BRANCH   1  20
HETATM   20  C   UNL     1     -40.385  51.965 -53.921  1.00  0.00     0.179 C 
HETATM   21  S   UNL     1     -39.968  50.340 -53.895  1.00  0.00    -0.040 SA
BRANCH  20  22
HETATM   22  N   UNL     1     -40.631  52.525 -52.692  1.00  0.00    -0.298 N 
HETATM   23  C   UNL     1     -39.912  52.487 -51.505  1.00  0.00     0.281 C 
HETATM   24  O   UNL     1     -39.037  51.659 -51.266  1.00  0.00    -0.265 OA
HETATM   25  H   UNL     1     -41.391  53.196 -52.705  1.00  0.00     0.171 HD
BRANCH  23  26
HETATM   26  C   UNL     1     -40.365  53.507 -50.581  1.00  0.00     0.144 A 
HETATM   27  O   UNL     1     -40.757  54.707 -51.113  1.00  0.00    -0.304 OA
HETATM   28  C   UNL     1     -41.126  55.530 -50.091  1.00  0.00     0.086 A 
HETATM   29  C   UNL     1     -40.980  54.854 -48.894  1.00  0.00     0.041 A 
HETATM   30  C   UNL     1     -40.489  53.557 -49.210  1.00  0.00     0.046 A 
BRANCH  28  31
HETATM   31  C   UNL     1     -41.569  56.865 -50.490  1.00  0.00    -0.002 A 
HETATM   32  C   UNL     1     -42.751  57.042 -51.224  1.00  0.00     0.016 A 
HETATM   33  C   UNL     1     -43.168  58.321 -51.613  1.00  0.00     0.024 A 
HETATM   34  C   UNL     1     -42.408  59.436 -51.270  1.00  0.00     0.034 A 
HETATM   35 CL   UNL     1     -42.918  61.006 -51.752  1.00  0.00    -0.084 Cl
HETATM   36  C   UNL     1     -41.234  59.284 -50.539  1.00  0.00     0.024 A 
HETATM   37  C   UNL     1     -40.820  58.006 -50.153  1.00  0.00     0.016 A 
ENDBRANCH  28  31
ENDBRANCH  23  26
ENDBRANCH  20  22
ENDBRANCH   1  20
TORSDOF 8
ENDMDL
MODEL 8
REMARK VINA RESULT:      -7.5      4.672      6.348
REMARK  8 active torsions:
REMARK  status: ('A' for Active; 'I' for Inactive)
REMARK    1  A    between atoms: C_2  and  C_3 
REMARK    2  A    between atoms: C_3  and  C_4 
REMARK       I    between atoms: C_4  and  N_5 
REMARK    3  A    between atoms: N_8  and  C_9 
REMARK    4  A    between atoms: C_12  and  N_13 
REMARK    5  A    between atoms: N_13  and  C_14 
REMARK    6  A    between atoms: C_14  and  N_15 
REMARK       I    between atoms: N_15  and  C_16 
REMARK    7  A    between atoms: C_16  and  C_17 
REMARK    8  A    between atoms: C_19  and  C_20 
ROOT
HETATM    1  N   UNL     1     -42.091  60.551 -53.005  1.00  0.00    -0.333 N 
HETATM    2  H   UNL     1     -41.612  60.593 -53.904  1.00  0.00     0.168 HD
ENDROOT
BRANCH   1   3
HETATM    3  C   UNL     1     -43.261  61.327 -52.880  1.00  0.00     0.034 A 
HETATM    4  C   UNL     1     -44.229  61.059 -51.918  1.00  0.00     0.031 A 
HETATM    5  C   UNL     1     -45.414  61.795 -51.884  1.00  0.00     0.026 A 
HETATM    6  C   UNL     1     -45.688  62.802 -52.820  1.00  0.00     0.010 A 
HETATM    7  C   UNL     1     -44.651  63.140 -53.701  1.00  0.00     0.026 A 
HETATM    8  C   UNL     1     -43.443  62.421 -53.723  1.00  0.00     0.031 A 
BRANCH   6   9
HETATM    9  N   UNL     1     -46.961  63.407 -52.822  1.00  0.00    -0.280 NA
HETATM   10  C   UNL     1     -47.965  62.591 -52.088  1.00  0.00     0.115 C 
HETATM   11  C   UNL     1     -49.269  63.376 -51.875  1.00  0.00     0.140 C 
HETATM   12  N   UNL     1     -49.797  63.929 -53.125  1.00  0.00    -0.350 N 
HETATM   13  C   UNL     1     -51.138  64.107 -53.417  1.00  0.00     0.219 C 
HETATM   14  C   UNL     1     -48.806  64.685 -53.903  1.00  0.00     0.140 C 
HETATM   15  O   UNL     1     -51.510  64.782 -54.380  1.00  0.00    -0.273 OA
HETATM   16  C   UNL     1     -47.491  63.909 -54.111  1.00  0.00     0.115 C 
BRANCH  13  17
HETATM   17  C   UNL     1     -52.182  63.396 -52.570  1.00  0.00     0.103 C 
BRANCH  17  18
HETATM   18  C   UNL     1     -52.203  61.888 -52.818  1.00  0.00     0.005 C 
HETATM   19  C   UNL     1     -52.215  61.497 -54.287  1.00  0.00     0.005 C 
ENDBRANCH  17  18
ENDBRANCH  13  17
ENDBRANCH   6   9
ENDBRANCH   1   3
BRANCH   1  20
HETATM   20  C   UNL     1     -41.665  59.540 -52.175  1.00  0.00     0.179 C 
HETATM   21  S   UNL     1     -41.154  59.637 -50.580  1.00  0.00    -0.040 SA
BRANCH  20  22
HETATM   22  N   UNL     1     -41.676  58.276 -52.710  1.00  0.00    -0.298 N 
HETATM   23  C   UNL     1     -42.580  57.643 -53.553  1.00  0.00     0.281 C 
HETATM   24  O   UNL     1     -43.729  58.035 -53.735  1.00  0.00    -0.265 OA
HETATM   25  H   UNL     1     -40.801  57.780 -52.579  1.00  0.00     0.171 HD
BRANCH  23  26
HETATM   26  C   UNL     1     -42.007  56.448 -54.137  1.00  0.00     0.144 A 
HETATM   27  O   UNL     1     -41.608  55.457 -53.280  1.00  0.00    -0.304 OA
HETATM   28  C   UNL     1     -41.085  54.436 -54.015  1.00  0.00     0.086 A 
HETATM   29  C   UNL     1     -41.157  54.766 -55.356  1.00  0.00     0.041 A 
HETATM   30  C   UNL     1     -41.746  56.057 -55.433  1.00  0.00     0.046 A 
BRANCH  28  31
HETATM   31  C   UNL     1     -40.601  53.292 -53.244  1.00  0.00    -0.002 A 
HETATM   32  C   UNL     1     -40.553  53.336 -51.844  1.00  0.00     0.016 A 
HETATM   33  C   UNL     1     -40.080  52.241 -51.109  1.00  0.00     0.024 A 
HETATM   34  C   UNL     1     -39.654  51.091 -51.768  1.00  0.00     0.034 A 
HETATM   35 CL   UNL     1     -39.070  49.749 -50.864  1.00  0.00    -0.084 Cl
HETATM   36  C   UNL     1     -39.697  51.024 -53.156  1.00  0.00     0.024 A 
HETATM   37  C   UNL     1     -40.168  52.118 -53.887  1.00  0.00     0.016 A 
ENDBRANCH  28  31
ENDBRANCH  23  26
ENDBRANCH  20  22
ENDBRANCH   1  20
TORSDOF 8
ENDMDL
MODEL 9
REMARK VINA RESULT:      -7.5      5.604      7.767
REMARK  8 active torsions:
REMARK  status: ('A' for Active; 'I' for Inactive)
REMARK    1  A    between atoms: C_2  and  C_3 
REMARK    2  A    between atoms: C_3  and  C_4 
REMARK       I    between atoms: C_4  and  N_5 
REMARK    3  A    between atoms: N_8  and  C_9 
REMARK    4  A    between atoms: C_12  and  N_13 
REMARK    5  A    between atoms: N_13  and  C_14 
REMARK    6  A    between atoms: C_14  and  N_15 
REMARK       I    between atoms: N_15  and  C_16 
REMARK    7  A    between atoms: C_16  and  C_17 
REMARK    8  A    between atoms: C_19  and  C_20 
ROOT
HETATM    1  N   UNL     1     -45.732  58.432 -59.861  1.00  0.00    -0.333 N 
HETATM    2  H   UNL     1     -45.160  58.819 -60.611  1.00  0.00     0.168 HD
ENDROOT
BRANCH   1   3
HETATM    3  C   UNL     1     -46.801  59.232 -59.410  1.00  0.00     0.034 A 
HETATM    4  C   UNL     1     -46.915  59.637 -58.085  1.00  0.00     0.031 A 
HETATM    5  C   UNL     1     -48.034  60.354 -57.659  1.00  0.00     0.026 A 
HETATM    6  C   UNL     1     -49.088  60.670 -58.530  1.00  0.00     0.010 A 
HETATM    7  C   UNL     1     -48.896  60.362 -59.884  1.00  0.00     0.026 A 
HETATM    8  C   UNL     1     -47.758  59.664 -60.325  1.00  0.00     0.031 A 
BRANCH   6   9
HETATM    9  N   UNL     1     -50.252  61.266 -58.007  1.00  0.00    -0.280 NA
HETATM   10  C   UNL     1     -49.938  62.268 -56.953  1.00  0.00     0.115 C 
HETATM   11  C   UNL     1     -51.182  63.090 -56.582  1.00  0.00     0.140 C 
HETATM   12  N   UNL     1     -52.325  62.242 -56.231  1.00  0.00    -0.350 N 
HETATM   13  C   UNL     1     -53.305  62.564 -55.307  1.00  0.00     0.219 C 
HETATM   14  C   UNL     1     -52.617  61.200 -57.225  1.00  0.00     0.140 C 
HETATM   15  O   UNL     1     -54.356  61.921 -55.223  1.00  0.00    -0.273 OA
HETATM   16  C   UNL     1     -51.371  60.379 -57.612  1.00  0.00     0.115 C 
BRANCH  13  17
HETATM   17  C   UNL     1     -53.054  63.695 -54.323  1.00  0.00     0.103 C 
BRANCH  17  18
HETATM   18  C   UNL     1     -53.116  63.225 -52.870  1.00  0.00     0.005 C 
HETATM   19  C   UNL     1     -51.881  62.471 -52.404  1.00  0.00     0.005 C 
ENDBRANCH  17  18
ENDBRANCH  13  17
ENDBRANCH   6   9
ENDBRANCH   1   3
BRANCH   1  20
HETATM   20  C   UNL     1     -45.525  57.094 -59.615  1.00  0.00     0.179 C 
HETATM   21  S   UNL     1     -46.092  55.769 -60.474  1.00  0.00    -0.040 SA
BRANCH  20  22
HETATM   22  N   UNL     1     -44.732  56.796 -58.534  1.00  0.00    -0.298 N 
HETATM   23  C   UNL     1     -43.402  56.406 -58.450  1.00  0.00     0.281 C 
HETATM   24  O   UNL     1     -42.763  55.961 -59.400  1.00  0.00    -0.265 OA
HETATM   25  H   UNL     1     -45.157  57.045 -57.648  1.00  0.00     0.171 HD
BRANCH  23  26
HETATM   26  C   UNL     1     -42.896  56.547 -57.101  1.00  0.00     0.144 A 
HETATM   27  O   UNL     1     -42.360  55.434 -56.510  1.00  0.00    -0.304 OA
HETATM   28  C   UNL     1     -41.961  55.764 -55.250  1.00  0.00     0.086 A 
HETATM   29  C   UNL     1     -42.233  57.101 -55.029  1.00  0.00     0.041 A 
HETATM   30  C   UNL     1     -42.835  57.603 -56.216  1.00  0.00     0.046 A 
BRANCH  28  31
HETATM   31  C   UNL     1     -41.367  54.676 -54.475  1.00  0.00    -0.002 A 
HETATM   32  C   UNL     1     -40.565  53.707 -55.092  1.00  0.00     0.016 A 
HETATM   33  C   UNL     1     -40.005  52.660 -54.348  1.00  0.00     0.024 A 
HETATM   34  C   UNL     1     -40.241  52.575 -52.979  1.00  0.00     0.034 A 
HETATM   35 CL   UNL     1     -39.556  51.287 -52.067  1.00  0.00    -0.084 Cl
HETATM   36  C   UNL     1     -41.031  53.528 -52.345  1.00  0.00     0.024 A 
HETATM   37  C   UNL     1     -41.589  54.571 -53.090  1.00  0.00     0.016 A 
ENDBRANCH  28  31
ENDBRANCH  23  26
ENDBRANCH  20  22
ENDBRANCH   1  20
TORSDOF 8
ENDMDL
MODEL 10
REMARK VINA RESULT:      -7.3      2.603      3.538
REMARK  8 active torsions:
REMARK  status: ('A' for Active; 'I' for Inactive)
REMARK    1  A    between atoms: C_2  and  C_3 
REMARK    2  A    between atoms: C_3  and  C_4 
REMARK       I    between atoms: C_4  and  N_5 
REMARK    3  A    between atoms: N_8  and  C_9 
REMARK    4  A    between atoms: C_12  and  N_13 
REMARK    5  A    between atoms: N_13  and  C_14 
REMARK    6  A    between atoms: C_14  and  N_15 
REMARK       I    between atoms: N_15  and  C_16 
REMARK    7  A    between atoms: C_16  and  C_17 
REMARK    8  A    between atoms: C_19  and  C_20 
ROOT
HETATM    1  N   UNL     1     -43.483  57.896 -53.025  1.00  0.00    -0.333 N 
HETATM    2  H   UNL     1     -44.326  57.747 -52.472  1.00  0.00     0.168 HD
ENDROOT
BRANCH   1   3
HETATM    3  C   UNL     1     -43.656  57.975 -54.422  1.00  0.00     0.034 A 
HETATM    4  C   UNL     1     -42.584  57.919 -55.305  1.00  0.00     0.031 A 
HETATM    5  C   UNL     1     -42.787  58.090 -56.675  1.00  0.00     0.026 A 
HETATM    6  C   UNL     1     -44.058  58.347 -57.210  1.00  0.00     0.010 A 
HETATM    7  C   UNL     1     -45.139  58.276 -56.320  1.00  0.00     0.026 A 
HETATM    8  C   UNL     1     -44.944  58.077 -54.942  1.00  0.00     0.031 A 
BRANCH   6   9
HETATM    9  N   UNL     1     -44.175  58.654 -58.579  1.00  0.00    -0.280 NA
HETATM   10  C   UNL     1     -42.896  59.159 -59.147  1.00  0.00     0.115 C 
HETATM   11  C   UNL     1     -42.964  59.240 -60.680  1.00  0.00     0.140 C 
HETATM   12  N   UNL     1     -44.126  60.002 -61.146  1.00  0.00    -0.350 N 
HETATM   13  C   UNL     1     -44.168  60.773 -62.295  1.00  0.00     0.219 C 
HETATM   14  C   UNL     1     -45.397  59.566 -60.550  1.00  0.00     0.140 C 
HETATM   15  O   UNL     1     -45.232  61.200 -62.754  1.00  0.00    -0.273 OA
HETATM   16  C   UNL     1     -45.332  59.471 -59.013  1.00  0.00     0.115 C 
BRANCH  13  17
HETATM   17  C   UNL     1     -42.865  61.165 -62.973  1.00  0.00     0.103 C 
BRANCH  17  18
HETATM   18  C   UNL     1     -42.251  62.426 -62.367  1.00  0.00     0.005 C 
HETATM   19  C   UNL     1     -40.860  62.227 -61.788  1.00  0.00     0.005 C 
ENDBRANCH  17  18
ENDBRANCH  13  17
ENDBRANCH   6   9
ENDBRANCH   1   3
BRANCH   1  20
HETATM   20  C   UNL     1     -42.376  58.265 -52.297  1.00  0.00     0.179 C 
HETATM   21  S   UNL     1     -41.749  59.800 -52.044  1.00  0.00    -0.040 SA
BRANCH  20  22
HETATM   22  N   UNL     1     -41.700  57.246 -51.672  1.00  0.00    -0.298 N 
HETATM   23  C   UNL     1     -41.289  57.088 -50.355  1.00  0.00     0.281 C 
HETATM   24  O   UNL     1     -41.205  58.015 -49.553  1.00  0.00    -0.265 OA
HETATM   25  H   UNL     1     -41.620  56.412 -52.243  1.00  0.00     0.171 HD
BRANCH  23  26
HETATM   26  C   UNL     1     -40.930  55.713 -50.076  1.00  0.00     0.144 A 
HETATM   27  O   UNL     1     -40.735  54.884 -51.148  1.00  0.00    -0.304 OA
HETATM   28  C   UNL     1     -40.426  53.641 -50.681  1.00  0.00     0.086 A 
HETATM   29  C   UNL     1     -40.412  53.672 -49.299  1.00  0.00     0.041 A 
HETATM   30  C   UNL     1     -40.737  55.001 -48.911  1.00  0.00     0.046 A 
BRANCH  28  31
HETATM   31  C   UNL     1     -40.192  52.627 -51.707  1.00  0.00    -0.002 A 
HETATM   32  C   UNL     1     -40.410  52.909 -53.062  1.00  0.00     0.016 A 
HETATM   33  C   UNL     1     -40.194  51.931 -54.042  1.00  0.00     0.024 A 
HETATM   34  C   UNL     1     -39.754  50.662 -53.674  1.00  0.00     0.034 A 
HETATM   35 CL   UNL     1     -39.492  49.461 -54.877  1.00  0.00    -0.084 Cl
HETATM   36  C   UNL     1     -39.527  50.361 -52.335  1.00  0.00     0.024 A 
HETATM   37  C   UNL     1     -39.745  51.339 -51.360  1.00  0.00     0.016 A 
ENDBRANCH  28  31
ENDBRANCH  23  26
ENDBRANCH  20  22
ENDBRANCH   1  20
TORSDOF 8
ENDMDL
