MODEL 1
REMARK VINA RESULT:      -7.3      0.000      0.000
REMARK  8 active torsions:
REMARK  status: ('A' for Active; 'I' for Inactive)
REMARK    1  A    between atoms: O_2  and  C_3 
REMARK    2  A    between atoms: C_4  and  N_5 
REMARK    3  A    between atoms: N_5  and  C_6 
REMARK    4  A    between atoms: C_6  and  C_7 
REMARK       I    between atoms: C_7  and  N_8 
REMARK    5  A    between atoms: N_8  and  N_9 
REMARK    6  A    between atoms: N_9  and  C_10 
REMARK    7  A    between atoms: C_10  and  C_11 
REMARK       I    between atoms: C_11  and  N_12 
REMARK    8  A    between atoms: N_12  and  C_13 
ROOT
HETATM    1  C   UNL     1     -44.284  57.930 -54.465  1.00  0.00     0.245 C 
HETATM    2  N   UNL     1     -44.191  56.665 -55.041  1.00  0.00    -0.290 N 
HETATM    3  O   UNL     1     -44.172  58.987 -55.087  1.00  0.00    -0.271 OA
HETATM    4  H   UNL     1     -44.059  55.862 -54.427  1.00  0.00     0.183 HD
ENDROOT
BRANCH   2   5
HETATM    5  N   UNL     1     -43.951  56.537 -56.431  1.00  0.00    -0.229 NA
HETATM    6  H   UNL     1     -44.686  55.952 -56.841  1.00  0.00     0.147 HD
BRANCH   5   7
HETATM    7  C   UNL     1     -42.640  55.904 -56.681  1.00  0.00     0.213 C 
BRANCH   7   8
HETATM    8  C   UNL     1     -42.470  54.684 -55.774  1.00  0.00     0.236 C 
HETATM    9  N   UNL     1     -41.202  54.600 -55.221  1.00  0.00    -0.326 N 
HETATM   10  H   UNL     1     -40.554  55.323 -55.531  1.00  0.00     0.169 HD
HETATM   11  O   UNL     1     -43.407  53.914 -55.574  1.00  0.00    -0.272 OA
BRANCH   9  12
HETATM   12  C   UNL     1     -40.713  53.622 -54.331  1.00  0.00     0.036 A 
HETATM   13  C   UNL     1     -40.310  52.342 -54.725  1.00  0.00     0.056 A 
HETATM   14  C   UNL     1     -39.831  51.431 -53.777  1.00  0.00     0.074 A 
HETATM   15 CL   UNL     1     -39.336  49.860 -54.285  1.00  0.00    -0.081 Cl
HETATM   16  C   UNL     1     -39.754  51.795 -52.437  1.00  0.00     0.138 A 
HETATM   17  F   UNL     1     -39.296  50.935 -51.515  1.00  0.00    -0.204 F 
HETATM   18  C   UNL     1     -40.152  53.062 -52.030  1.00  0.00     0.046 A 
HETATM   19  C   UNL     1     -40.631  53.974 -52.975  1.00  0.00     0.032 A 
ENDBRANCH   9  12
ENDBRANCH   7   8
ENDBRANCH   5   7
ENDBRANCH   2   5
BRANCH   1  20
HETATM   20  C   UNL     1     -44.464  57.900 -52.941  1.00  0.00     0.196 C 
BRANCH  20  21
HETATM   21  N   UNL     1     -43.183  58.241 -52.296  1.00  0.00    -0.282 NA
HETATM   22  H   UNL     1     -43.309  59.103 -51.761  1.00  0.00     0.128 HD
BRANCH  21  23
HETATM   23  C   UNL     1     -42.781  57.210 -51.400  1.00  0.00     0.042 A 
HETATM   24  C   UNL     1     -41.525  57.227 -50.755  1.00  0.00     0.089 A 
HETATM   25  C   UNL     1     -41.155  56.148 -49.941  1.00  0.00     0.038 A 
HETATM   26  C   UNL     1     -42.012  55.058 -49.772  1.00  0.00     0.003 A 
HETATM   27  C   UNL     1     -43.242  55.030 -50.420  1.00  0.00     0.002 A 
HETATM   28  C   UNL     1     -43.622  56.097 -51.233  1.00  0.00     0.026 A 
BRANCH  24  29
HETATM   29  O   UNL     1     -40.724  58.321 -50.983  1.00  0.00    -0.354 OA
HETATM   30  C   UNL     1     -40.783  59.352 -50.002  1.00  0.00     0.210 C 
ENDBRANCH  24  29
ENDBRANCH  21  23
ENDBRANCH  20  21
ENDBRANCH   1  20
TORSDOF 8
ENDMDL
MODEL 2
REMARK VINA RESULT:      -7.3      1.866      2.752
REMARK  8 active torsions:
REMARK  status: ('A' for Active; 'I' for Inactive)
REMARK    1  A    between atoms: O_2  and  C_3 
REMARK    2  A    between atoms: C_4  and  N_5 
REMARK    3  A    between atoms: N_5  and  C_6 
REMARK    4  A    between atoms: C_6  and  C_7 
REMARK       I    between atoms: C_7  and  N_8 
REMARK    5  A    between atoms: N_8  and  N_9 
REMARK    6  A    between atoms: N_9  and  C_10 
REMARK    7  A    between atoms: C_10  and  C_11 
REMARK       I    between atoms: C_11  and  N_12 
REMARK    8  A    between atoms: N_12  and  C_13 
ROOT
HETATM    1  C   UNL     1     -44.193  56.982 -52.120  1.00  0.00     0.245 C 
HETATM    2  N   UNL     1     -44.644  57.059 -53.435  1.00  0.00    -0.290 N 
HETATM    3  O   UNL     1     -43.725  55.965 -51.604  1.00  0.00    -0.271 OA
HETATM    4  H   UNL     1     -45.224  57.854 -53.702  1.00  0.00     0.183 HD
ENDROOT
BRANCH   2   5
HETATM    5  N   UNL     1     -44.582  55.919 -54.274  1.00  0.00    -0.229 NA
HETATM    6  H   UNL     1     -44.362  55.098 -53.701  1.00  0.00     0.147 HD
BRANCH   5   7
HETATM    7  C   UNL     1     -43.534  56.080 -55.302  1.00  0.00     0.213 C 
BRANCH   7   8
HETATM    8  C   UNL     1     -42.250  55.380 -54.850  1.00  0.00     0.236 C 
HETATM    9  N   UNL     1     -42.496  54.246 -54.092  1.00  0.00    -0.326 N 
HETATM   10  H   UNL     1     -43.482  54.067 -53.903  1.00  0.00     0.169 HD
HETATM   11  O   UNL     1     -41.148  55.813 -55.180  1.00  0.00    -0.272 OA
BRANCH   9  12
HETATM   12  C   UNL     1     -41.553  53.359 -53.536  1.00  0.00     0.036 A 
HETATM   13  C   UNL     1     -41.031  52.251 -54.212  1.00  0.00     0.056 A 
HETATM   14  C   UNL     1     -40.093  51.422 -53.588  1.00  0.00     0.074 A 
HETATM   15 CL   UNL     1     -39.460  50.065 -54.441  1.00  0.00    -0.081 Cl
HETATM   16  C   UNL     1     -39.674  51.697 -52.291  1.00  0.00     0.138 A 
HETATM   17  F   UNL     1     -38.773  50.914 -51.678  1.00  0.00    -0.204 F 
HETATM   18  C   UNL     1     -40.184  52.792 -51.605  1.00  0.00     0.046 A 
HETATM   19  C   UNL     1     -41.122  53.622 -52.227  1.00  0.00     0.032 A 
ENDBRANCH   9  12
ENDBRANCH   7   8
ENDBRANCH   5   7
ENDBRANCH   2   5
BRANCH   1  20
HETATM   20  C   UNL     1     -44.402  58.275 -51.321  1.00  0.00     0.196 C 
BRANCH  20  21
HETATM   21  N   UNL     1     -43.755  59.393 -52.032  1.00  0.00    -0.282 NA
HETATM   22  H   UNL     1     -44.123  60.270 -51.658  1.00  0.00     0.128 HD
BRANCH  21  23
HETATM   23  C   UNL     1     -42.347  59.372 -51.828  1.00  0.00     0.042 A 
HETATM   24  C   UNL     1     -41.445  59.040 -52.862  1.00  0.00     0.089 A 
HETATM   25  C   UNL     1     -40.074  58.964 -52.583  1.00  0.00     0.038 A 
HETATM   26  C   UNL     1     -39.597  59.205 -51.292  1.00  0.00     0.003 A 
HETATM   27  C   UNL     1     -40.485  59.515 -50.267  1.00  0.00     0.002 A 
HETATM   28  C   UNL     1     -41.850  59.592 -50.532  1.00  0.00     0.026 A 
BRANCH  24  29
HETATM   29  O   UNL     1     -41.986  58.795 -54.103  1.00  0.00    -0.354 OA
HETATM   30  C   UNL     1     -41.901  59.863 -55.042  1.00  0.00     0.210 C 
ENDBRANCH  24  29
ENDBRANCH  21  23
ENDBRANCH  20  21
ENDBRANCH   1  20
TORSDOF 8
ENDMDL
MODEL 3
REMARK VINA RESULT:      -7.2      4.048      7.005
REMARK  8 active torsions:
REMARK  status: ('A' for Active; 'I' for Inactive)
REMARK    1  A    between atoms: O_2  and  C_3 
REMARK    2  A    between atoms: C_4  and  N_5 
REMARK    3  A    between atoms: N_5  and  C_6 
REMARK    4  A    between atoms: C_6  and  C_7 
REMARK       I    between atoms: C_7  and  N_8 
REMARK    5  A    between atoms: N_8  and  N_9 
REMARK    6  A    between atoms: N_9  and  C_10 
REMARK    7  A    between atoms: C_10  and  C_11 
REMARK       I    between atoms: C_11  and  N_12 
REMARK    8  A    between atoms: N_12  and  C_13 
ROOT
HETATM    1  C   UNL     1     -43.791  55.605 -59.828  1.00  0.00     0.245 C 
HETATM    2  N   UNL     1     -43.618  55.376 -58.465  1.00  0.00    -0.290 N 
HETATM    3  O   UNL     1     -43.009  56.247 -60.530  1.00  0.00    -0.271 OA
HETATM    4  H   UNL     1     -44.416  55.047 -57.924  1.00  0.00     0.183 HD
ENDROOT
BRANCH   2   5
HETATM    5  N   UNL     1     -42.482  55.899 -57.798  1.00  0.00    -0.229 NA
HETATM    6  H   UNL     1     -41.723  55.213 -57.849  1.00  0.00     0.147 HD
BRANCH   5   7
HETATM    7  C   UNL     1     -42.786  56.173 -56.379  1.00  0.00     0.213 C 
BRANCH   7   8
HETATM    8  C   UNL     1     -42.550  54.912 -55.545  1.00  0.00     0.236 C 
HETATM    9  N   UNL     1     -41.348  54.942 -54.856  1.00  0.00    -0.326 N 
HETATM   10  H   UNL     1     -40.775  55.765 -55.038  1.00  0.00     0.169 HD
HETATM   11  O   UNL     1     -43.391  54.015 -55.510  1.00  0.00    -0.272 OA
BRANCH   9  12
HETATM   12  C   UNL     1     -40.829  53.962 -53.985  1.00  0.00     0.036 A 
HETATM   13  C   UNL     1     -40.835  54.077 -52.591  1.00  0.00     0.056 A 
HETATM   14  C   UNL     1     -40.303  53.055 -51.798  1.00  0.00     0.074 A 
HETATM   15 CL   UNL     1     -40.324  53.214 -50.082  1.00  0.00    -0.081 Cl
HETATM   16  C   UNL     1     -39.763  51.919 -52.393  1.00  0.00     0.138 A 
HETATM   17  F   UNL     1     -39.250  50.929 -51.648  1.00  0.00    -0.204 F 
HETATM   18  C   UNL     1     -39.748  51.792 -53.776  1.00  0.00     0.046 A 
HETATM   19  C   UNL     1     -40.280  52.812 -54.572  1.00  0.00     0.032 A 
ENDBRANCH   9  12
ENDBRANCH   7   8
ENDBRANCH   5   7
ENDBRANCH   2   5
BRANCH   1  20
HETATM   20  C   UNL     1     -45.107  55.043 -60.382  1.00  0.00     0.196 C 
BRANCH  20  21
HETATM   21  N   UNL     1     -46.231  55.563 -59.580  1.00  0.00    -0.282 NA
HETATM   22  H   UNL     1     -45.874  55.837 -58.663  1.00  0.00     0.128 HD
BRANCH  21  23
HETATM   23  C   UNL     1     -46.805  56.708 -60.201  1.00  0.00     0.042 A 
HETATM   24  C   UNL     1     -46.701  57.997 -59.636  1.00  0.00     0.089 A 
HETATM   25  C   UNL     1     -47.349  59.075 -60.254  1.00  0.00     0.038 A 
HETATM   26  C   UNL     1     -48.101  58.880 -61.415  1.00  0.00     0.003 A 
HETATM   27  C   UNL     1     -48.221  57.609 -61.964  1.00  0.00     0.002 A 
HETATM   28  C   UNL     1     -47.581  56.529 -61.358  1.00  0.00     0.026 A 
BRANCH  24  29
HETATM   29  O   UNL     1     -45.962  58.112 -58.481  1.00  0.00    -0.354 OA
HETATM   30  C   UNL     1     -44.776  58.895 -58.575  1.00  0.00     0.210 C 
ENDBRANCH  24  29
ENDBRANCH  21  23
ENDBRANCH  20  21
ENDBRANCH   1  20
TORSDOF 8
ENDMDL
MODEL 4
REMARK VINA RESULT:      -7.2      2.222      5.554
REMARK  8 active torsions:
REMARK  status: ('A' for Active; 'I' for Inactive)
REMARK    1  A    between atoms: O_2  and  C_3 
REMARK    2  A    between atoms: C_4  and  N_5 
REMARK    3  A    between atoms: N_5  and  C_6 
REMARK    4  A    between atoms: C_6  and  C_7 
REMARK       I    between atoms: C_7  and  N_8 
REMARK    5  A    between atoms: N_8  and  N_9 
REMARK    6  A    between atoms: N_9  and  C_10 
REMARK    7  A    between atoms: C_10  and  C_11 
REMARK       I    between atoms: C_11  and  N_12 
REMARK    8  A    between atoms: N_12  and  C_13 
ROOT
HETATM    1  C   UNL     1     -44.320  57.703 -54.167  1.00  0.00     0.245 C 
HETATM    2  N   UNL     1     -44.431  56.552 -53.390  1.00  0.00    -0.290 N 
HETATM    3  O   UNL     1     -44.039  58.817 -53.722  1.00  0.00    -0.271 OA
HETATM    4  H   UNL     1     -44.893  55.738 -53.795  1.00  0.00     0.183 HD
ENDROOT
BRANCH   2   5
HETATM    5  N   UNL     1     -44.217  56.618 -51.991  1.00  0.00    -0.229 NA
HETATM    6  H   UNL     1     -44.386  57.579 -51.676  1.00  0.00     0.147 HD
BRANCH   5   7
HETATM    7  C   UNL     1     -42.830  56.239 -51.654  1.00  0.00     0.213 C 
BRANCH   7   8
HETATM    8  C   UNL     1     -42.595  54.768 -52.003  1.00  0.00     0.236 C 
HETATM    9  N   UNL     1     -41.273  54.497 -52.318  1.00  0.00    -0.326 N 
HETATM   10  H   UNL     1     -40.661  55.312 -52.323  1.00  0.00     0.169 HD
HETATM   11  O   UNL     1     -43.517  53.957 -51.961  1.00  0.00    -0.272 OA
BRANCH   9  12
HETATM   12  C   UNL     1     -40.707  53.253 -52.664  1.00  0.00     0.036 A 
HETATM   13  C   UNL     1     -40.271  52.308 -51.730  1.00  0.00     0.056 A 
HETATM   14  C   UNL     1     -39.724  51.094 -52.158  1.00  0.00     0.074 A 
HETATM   15 CL   UNL     1     -39.196  49.942 -50.990  1.00  0.00    -0.081 Cl
HETATM   16  C   UNL     1     -39.610  50.821 -53.517  1.00  0.00     0.138 A 
HETATM   17  F   UNL     1     -39.090  49.661 -53.946  1.00  0.00    -0.204 F 
HETATM   18  C   UNL     1     -40.037  51.750 -54.458  1.00  0.00     0.046 A 
HETATM   19  C   UNL     1     -40.584  52.965 -54.032  1.00  0.00     0.032 A 
ENDBRANCH   9  12
ENDBRANCH   7   8
ENDBRANCH   5   7
ENDBRANCH   2   5
BRANCH   1  20
HETATM   20  C   UNL     1     -44.660  57.481 -55.647  1.00  0.00     0.196 C 
BRANCH  20  21
HETATM   21  N   UNL     1     -43.772  56.439 -56.196  1.00  0.00    -0.282 NA
HETATM   22  H   UNL     1     -44.330  55.604 -56.383  1.00  0.00     0.128 HD
BRANCH  21  23
HETATM   23  C   UNL     1     -43.185  56.872 -57.419  1.00  0.00     0.042 A 
HETATM   24  C   UNL     1     -43.283  56.113 -58.606  1.00  0.00     0.089 A 
HETATM   25  C   UNL     1     -42.622  56.553 -59.760  1.00  0.00     0.038 A 
HETATM   26  C   UNL     1     -41.864  57.727 -59.742  1.00  0.00     0.003 A 
HETATM   27  C   UNL     1     -41.752  58.467 -58.570  1.00  0.00     0.002 A 
HETATM   28  C   UNL     1     -42.403  58.039 -57.415  1.00  0.00     0.026 A 
BRANCH  24  29
HETATM   29  O   UNL     1     -44.028  54.959 -58.546  1.00  0.00    -0.354 OA
HETATM   30  C   UNL     1     -44.466  54.434 -59.795  1.00  0.00     0.210 C 
ENDBRANCH  24  29
ENDBRANCH  21  23
ENDBRANCH  20  21
ENDBRANCH   1  20
TORSDOF 8
ENDMDL
MODEL 5
REMARK VINA RESULT:      -7.1      4.058      5.091
REMARK  8 active torsions:
REMARK  status: ('A' for Active; 'I' for Inactive)
REMARK    1  A    between atoms: O_2  and  C_3 
REMARK    2  A    between atoms: C_4  and  N_5 
REMARK    3  A    between atoms: N_5  and  C_6 
REMARK    4  A    between atoms: C_6  and  C_7 
REMARK       I    between atoms: C_7  and  N_8 
REMARK    5  A    between atoms: N_8  and  N_9 
REMARK    6  A    between atoms: N_9  and  C_10 
REMARK    7  A    between atoms: C_10  and  C_11 
REMARK       I    between atoms: C_11  and  N_12 
REMARK    8  A    between atoms: N_12  and  C_13 
ROOT
HETATM    1  C   UNL     1     -44.694  58.975 -51.368  1.00  0.00     0.245 C 
HETATM    2  N   UNL     1     -44.674  57.782 -50.649  1.00  0.00    -0.290 N 
HETATM    3  O   UNL     1     -44.437  59.066 -52.570  1.00  0.00    -0.271 OA
HETATM    4  H   UNL     1     -44.664  57.832 -49.630  1.00  0.00     0.183 HD
ENDROOT
BRANCH   2   5
HETATM    5  N   UNL     1     -44.341  56.569 -51.298  1.00  0.00    -0.229 NA
HETATM    6  H   UNL     1     -44.975  55.833 -50.971  1.00  0.00     0.147 HD
BRANCH   5   7
HETATM    7  C   UNL     1     -42.950  56.174 -50.993  1.00  0.00     0.213 C 
BRANCH   7   8
HETATM    8  C   UNL     1     -42.684  54.763 -51.521  1.00  0.00     0.236 C 
HETATM    9  N   UNL     1     -41.353  54.556 -51.850  1.00  0.00    -0.326 N 
HETATM   10  H   UNL     1     -40.757  55.376 -51.743  1.00  0.00     0.169 HD
HETATM   11  O   UNL     1     -43.591  53.937 -51.595  1.00  0.00    -0.272 OA
BRANCH   9  12
HETATM   12  C   UNL     1     -40.760  53.376 -52.342  1.00  0.00     0.036 A 
HETATM   13  C   UNL     1     -40.282  52.345 -51.526  1.00  0.00     0.056 A 
HETATM   14  C   UNL     1     -39.710  51.202 -52.096  1.00  0.00     0.074 A 
HETATM   15 CL   UNL     1     -39.130  49.943 -51.072  1.00  0.00    -0.081 Cl
HETATM   16  C   UNL     1     -39.614  51.087 -53.478  1.00  0.00     0.138 A 
HETATM   17  F   UNL     1     -39.071  49.997 -54.042  1.00  0.00    -0.204 F 
HETATM   18  C   UNL     1     -40.083  52.102 -54.303  1.00  0.00     0.046 A 
HETATM   19  C   UNL     1     -40.655  53.245 -53.735  1.00  0.00     0.032 A 
ENDBRANCH   9  12
ENDBRANCH   7   8
ENDBRANCH   5   7
ENDBRANCH   2   5
BRANCH   1  20
HETATM   20  C   UNL     1     -44.992  60.208 -50.506  1.00  0.00     0.196 C 
BRANCH  20  21
HETATM   21  N   UNL     1     -45.648  59.778 -49.257  1.00  0.00    -0.282 NA
HETATM   22  H   UNL     1     -45.188  58.927 -48.926  1.00  0.00     0.128 HD
BRANCH  21  23
HETATM   23  C   UNL     1     -45.521  60.778 -48.252  1.00  0.00     0.042 A 
HETATM   24  C   UNL     1     -46.128  60.647 -46.984  1.00  0.00     0.089 A 
HETATM   25  C   UNL     1     -46.029  61.696 -46.061  1.00  0.00     0.038 A 
HETATM   26  C   UNL     1     -45.346  62.870 -46.390  1.00  0.00     0.003 A 
HETATM   27  C   UNL     1     -44.763  63.010 -47.644  1.00  0.00     0.002 A 
HETATM   28  C   UNL     1     -44.855  61.973 -48.571  1.00  0.00     0.026 A 
BRANCH  24  29
HETATM   29  O   UNL     1     -46.801  59.473 -46.736  1.00  0.00    -0.354 OA
HETATM   30  C   UNL     1     -46.614  58.908 -45.442  1.00  0.00     0.210 C 
ENDBRANCH  24  29
ENDBRANCH  21  23
ENDBRANCH  20  21
ENDBRANCH   1  20
TORSDOF 8
ENDMDL
MODEL 6
REMARK VINA RESULT:      -7.0      2.377      5.287
REMARK  8 active torsions:
REMARK  status: ('A' for Active; 'I' for Inactive)
REMARK    1  A    between atoms: O_2  and  C_3 
REMARK    2  A    between atoms: C_4  and  N_5 
REMARK    3  A    between atoms: N_5  and  C_6 
REMARK    4  A    between atoms: C_6  and  C_7 
REMARK       I    between atoms: C_7  and  N_8 
REMARK    5  A    between atoms: N_8  and  N_9 
REMARK    6  A    between atoms: N_9  and  C_10 
REMARK    7  A    between atoms: C_10  and  C_11 
REMARK       I    between atoms: C_11  and  N_12 
REMARK    8  A    between atoms: N_12  and  C_13 
ROOT
HETATM    1  C   UNL     1     -43.577  56.883 -54.084  1.00  0.00     0.245 C 
HETATM    2  N   UNL     1     -44.091  56.110 -53.044  1.00  0.00    -0.290 N 
HETATM    3  O   UNL     1     -43.139  58.026 -53.949  1.00  0.00    -0.271 OA
HETATM    4  H   UNL     1     -44.640  55.285 -53.281  1.00  0.00     0.183 HD
ENDROOT
BRANCH   2   5
HETATM    5  N   UNL     1     -44.133  56.632 -51.728  1.00  0.00    -0.229 NA
HETATM    6  H   UNL     1     -43.987  57.646 -51.769  1.00  0.00     0.147 HD
BRANCH   5   7
HETATM    7  C   UNL     1     -43.078  56.029 -50.890  1.00  0.00     0.213 C 
BRANCH   7   8
HETATM    8  C   UNL     1     -42.766  54.615 -51.385  1.00  0.00     0.236 C 
HETATM    9  N   UNL     1     -41.452  54.471 -51.802  1.00  0.00    -0.326 N 
HETATM   10  H   UNL     1     -40.900  55.326 -51.768  1.00  0.00     0.169 HD
HETATM   11  O   UNL     1     -43.627  53.737 -51.364  1.00  0.00    -0.272 OA
BRANCH   9  12
HETATM   12  C   UNL     1     -40.827  53.307 -52.294  1.00  0.00     0.036 A 
HETATM   13  C   UNL     1     -40.334  52.283 -51.479  1.00  0.00     0.056 A 
HETATM   14  C   UNL     1     -39.729  51.158 -52.049  1.00  0.00     0.074 A 
HETATM   15 CL   UNL     1     -39.132  49.906 -51.026  1.00  0.00    -0.081 Cl
HETATM   16  C   UNL     1     -39.616  51.052 -53.431  1.00  0.00     0.138 A 
HETATM   17  F   UNL     1     -39.041  49.979 -53.995  1.00  0.00    -0.204 F 
HETATM   18  C   UNL     1     -40.100  52.061 -54.254  1.00  0.00     0.046 A 
HETATM   19  C   UNL     1     -40.704  53.187 -53.687  1.00  0.00     0.032 A 
ENDBRANCH   9  12
ENDBRANCH   7   8
ENDBRANCH   5   7
ENDBRANCH   2   5
BRANCH   1  20
HETATM   20  C   UNL     1     -43.675  56.208 -55.458  1.00  0.00     0.196 C 
BRANCH  20  21
HETATM   21  N   UNL     1     -44.168  57.187 -56.444  1.00  0.00    -0.282 NA
HETATM   22  H   UNL     1     -44.093  58.122 -56.038  1.00  0.00     0.128 HD
BRANCH  21  23
HETATM   23  C   UNL     1     -43.381  57.147 -57.630  1.00  0.00     0.042 A 
HETATM   24  C   UNL     1     -42.602  58.247 -58.049  1.00  0.00     0.089 A 
HETATM   25  C   UNL     1     -41.906  58.175 -59.263  1.00  0.00     0.038 A 
HETATM   26  C   UNL     1     -41.986  57.031 -60.062  1.00  0.00     0.003 A 
HETATM   27  C   UNL     1     -42.767  55.953 -59.660  1.00  0.00     0.002 A 
HETATM   28  C   UNL     1     -43.464  56.013 -58.455  1.00  0.00     0.026 A 
BRANCH  24  29
HETATM   29  O   UNL     1     -42.586  59.347 -57.224  1.00  0.00    -0.354 OA
HETATM   30  C   UNL     1     -41.810  60.453 -57.675  1.00  0.00     0.210 C 
ENDBRANCH  24  29
ENDBRANCH  21  23
ENDBRANCH  20  21
ENDBRANCH   1  20
TORSDOF 8
ENDMDL
MODEL 7
REMARK VINA RESULT:      -7.0      3.694      6.719
REMARK  8 active torsions:
REMARK  status: ('A' for Active; 'I' for Inactive)
REMARK    1  A    between atoms: O_2  and  C_3 
REMARK    2  A    between atoms: C_4  and  N_5 
REMARK    3  A    between atoms: N_5  and  C_6 
REMARK    4  A    between atoms: C_6  and  C_7 
REMARK       I    between atoms: C_7  and  N_8 
REMARK    5  A    between atoms: N_8  and  N_9 
REMARK    6  A    between atoms: N_9  and  C_10 
REMARK    7  A    between atoms: C_10  and  C_11 
REMARK       I    between atoms: C_11  and  N_12 
REMARK    8  A    between atoms: N_12  and  C_13 
ROOT
HETATM    1  C   UNL     1     -41.349  54.114 -50.076  1.00  0.00     0.245 C 
HETATM    2  N   UNL     1     -41.242  54.900 -51.221  1.00  0.00    -0.290 N 
HETATM    3  O   UNL     1     -41.892  54.478 -49.032  1.00  0.00    -0.271 OA
HETATM    4  H   UNL     1     -40.581  54.616 -51.943  1.00  0.00     0.183 HD
ENDROOT
BRANCH   2   5
HETATM    5  N   UNL     1     -41.777  56.212 -51.232  1.00  0.00    -0.229 NA
HETATM    6  H   UNL     1     -42.800  56.153 -51.190  1.00  0.00     0.147 HD
BRANCH   5   7
HETATM    7  C   UNL     1     -41.389  56.927 -52.465  1.00  0.00     0.213 C 
BRANCH   7   8
HETATM    8  C   UNL     1     -42.369  56.591 -53.591  1.00  0.00     0.236 C 
HETATM    9  N   UNL     1     -42.225  57.420 -54.693  1.00  0.00    -0.326 N 
HETATM   10  H   UNL     1     -41.531  58.158 -54.580  1.00  0.00     0.169 HD
HETATM   11  O   UNL     1     -43.158  55.655 -53.479  1.00  0.00    -0.272 OA
BRANCH   9  12
HETATM   12  C   UNL     1     -42.946  57.379 -55.903  1.00  0.00     0.036 A 
HETATM   13  C   UNL     1     -42.511  56.699 -57.046  1.00  0.00     0.056 A 
HETATM   14  C   UNL     1     -43.290  56.703 -58.208  1.00  0.00     0.074 A 
HETATM   15 CL   UNL     1     -42.737  55.856 -59.603  1.00  0.00    -0.081 Cl
HETATM   16  C   UNL     1     -44.502  57.385 -58.232  1.00  0.00     0.138 A 
HETATM   17  F   UNL     1     -45.263  57.398 -59.336  1.00  0.00    -0.204 F 
HETATM   18  C   UNL     1     -44.947  58.067 -57.106  1.00  0.00     0.046 A 
HETATM   19  C   UNL     1     -44.169  58.064 -55.943  1.00  0.00     0.032 A 
ENDBRANCH   9  12
ENDBRANCH   7   8
ENDBRANCH   5   7
ENDBRANCH   2   5
BRANCH   1  20
HETATM   20  C   UNL     1     -40.651  52.754 -50.197  1.00  0.00     0.196 C 
BRANCH  20  21
HETATM   21  N   UNL     1     -39.534  52.866 -51.154  1.00  0.00    -0.282 NA
HETATM   22  H   UNL     1     -38.661  52.686 -50.655  1.00  0.00     0.128 HD
BRANCH  21  23
HETATM   23  C   UNL     1     -39.665  51.904 -52.195  1.00  0.00     0.042 A 
HETATM   24  C   UNL     1     -40.057  52.265 -53.503  1.00  0.00     0.089 A 
HETATM   25  C   UNL     1     -40.241  51.265 -54.467  1.00  0.00     0.038 A 
HETATM   26  C   UNL     1     -40.047  49.920 -54.141  1.00  0.00     0.003 A 
HETATM   27  C   UNL     1     -39.677  49.560 -52.850  1.00  0.00     0.002 A 
HETATM   28  C   UNL     1     -39.493  50.546 -51.882  1.00  0.00     0.026 A 
BRANCH  24  29
HETATM   29  O   UNL     1     -40.251  53.605 -53.746  1.00  0.00    -0.354 OA
HETATM   30  C   UNL     1     -40.404  53.974 -55.113  1.00  0.00     0.210 C 
ENDBRANCH  24  29
ENDBRANCH  21  23
ENDBRANCH  20  21
ENDBRANCH   1  20
TORSDOF 8
ENDMDL
MODEL 8
REMARK VINA RESULT:      -6.9      2.652      5.877
REMARK  8 active torsions:
REMARK  status: ('A' for Active; 'I' for Inactive)
REMARK    1  A    between atoms: O_2  and  C_3 
REMARK    2  A    between atoms: C_4  and  N_5 
REMARK    3  A    between atoms: N_5  and  C_6 
REMARK    4  A    between atoms: C_6  and  C_7 
REMARK       I    between atoms: C_7  and  N_8 
REMARK    5  A    between atoms: N_8  and  N_9 
REMARK    6  A    between atoms: N_9  and  C_10 
REMARK    7  A    between atoms: C_10  and  C_11 
REMARK       I    between atoms: C_11  and  N_12 
REMARK    8  A    between atoms: N_12  and  C_13 
ROOT
HETATM    1  C   UNL     1     -42.426  56.648 -55.828  1.00  0.00     0.245 C 
HETATM    2  N   UNL     1     -41.451  56.173 -54.954  1.00  0.00    -0.290 N 
HETATM    3  O   UNL     1     -43.048  57.700 -55.669  1.00  0.00    -0.271 OA
HETATM    4  H   UNL     1     -41.164  55.198 -55.033  1.00  0.00     0.183 HD
ENDROOT
BRANCH   2   5
HETATM    5  N   UNL     1     -41.120  56.912 -53.792  1.00  0.00    -0.229 NA
HETATM    6  H   UNL     1     -40.109  56.850 -53.636  1.00  0.00     0.147 HD
BRANCH   5   7
HETATM    7  C   UNL     1     -41.821  56.373 -52.609  1.00  0.00     0.213 C 
BRANCH   7   8
HETATM    8  C   UNL     1     -41.851  54.844 -52.676  1.00  0.00     0.236 C 
HETATM    9  N   UNL     1     -40.612  54.272 -52.436  1.00  0.00    -0.326 N 
HETATM   10  H   UNL     1     -39.855  54.941 -52.301  1.00  0.00     0.169 HD
HETATM   11  O   UNL     1     -42.902  54.245 -52.895  1.00  0.00    -0.272 OA
BRANCH   9  12
HETATM   12  C   UNL     1     -40.287  52.901 -52.402  1.00  0.00     0.036 A 
HETATM   13  C   UNL     1     -40.150  52.104 -53.543  1.00  0.00     0.056 A 
HETATM   14  C   UNL     1     -39.821  50.750 -53.422  1.00  0.00     0.074 A 
HETATM   15 CL   UNL     1     -39.654  49.787 -54.841  1.00  0.00    -0.081 Cl
HETATM   16  C   UNL     1     -39.629  50.189 -52.164  1.00  0.00     0.138 A 
HETATM   17  F   UNL     1     -39.310  48.893 -52.028  1.00  0.00    -0.204 F 
HETATM   18  C   UNL     1     -39.762  50.967 -51.020  1.00  0.00     0.046 A 
HETATM   19  C   UNL     1     -40.091  52.321 -51.139  1.00  0.00     0.032 A 
ENDBRANCH   9  12
ENDBRANCH   7   8
ENDBRANCH   5   7
ENDBRANCH   2   5
BRANCH   1  20
HETATM   20  C   UNL     1     -42.725  55.695 -56.992  1.00  0.00     0.196 C 
BRANCH  20  21
HETATM   21  N   UNL     1     -42.594  56.430 -58.264  1.00  0.00    -0.282 NA
HETATM   22  H   UNL     1     -41.789  56.058 -58.772  1.00  0.00     0.128 HD
BRANCH  21  23
HETATM   23  C   UNL     1     -43.754  56.252 -59.070  1.00  0.00     0.042 A 
HETATM   24  C   UNL     1     -44.751  57.246 -59.176  1.00  0.00     0.089 A 
HETATM   25  C   UNL     1     -45.906  56.986 -59.925  1.00  0.00     0.038 A 
HETATM   26  C   UNL     1     -46.081  55.752 -60.557  1.00  0.00     0.003 A 
HETATM   27  C   UNL     1     -45.109  54.764 -60.439  1.00  0.00     0.002 A 
HETATM   28  C   UNL     1     -43.956  55.011 -59.696  1.00  0.00     0.026 A 
BRANCH  24  29
HETATM   29  O   UNL     1     -44.523  58.429 -58.512  1.00  0.00    -0.354 OA
HETATM   30  C   UNL     1     -45.657  59.020 -57.884  1.00  0.00     0.210 C 
ENDBRANCH  24  29
ENDBRANCH  21  23
ENDBRANCH  20  21
ENDBRANCH   1  20
TORSDOF 8
ENDMDL
MODEL 9
REMARK VINA RESULT:      -6.8      3.590      6.348
REMARK  8 active torsions:
REMARK  status: ('A' for Active; 'I' for Inactive)
REMARK    1  A    between atoms: O_2  and  C_3 
REMARK    2  A    between atoms: C_4  and  N_5 
REMARK    3  A    between atoms: N_5  and  C_6 
REMARK    4  A    between atoms: C_6  and  C_7 
REMARK       I    between atoms: C_7  and  N_8 
REMARK    5  A    between atoms: N_8  and  N_9 
REMARK    6  A    between atoms: N_9  and  C_10 
REMARK    7  A    between atoms: C_10  and  C_11 
REMARK       I    between atoms: C_11  and  N_12 
REMARK    8  A    between atoms: N_12  and  C_13 
ROOT
HETATM    1  C   UNL     1     -41.814  55.281 -49.897  1.00  0.00     0.245 C 
HETATM    2  N   UNL     1     -42.832  55.764 -50.716  1.00  0.00    -0.290 N 
HETATM    3  O   UNL     1     -41.195  55.965 -49.081  1.00  0.00    -0.271 OA
HETATM    4  H   UNL     1     -43.121  55.200 -51.514  1.00  0.00     0.183 HD
ENDROOT
BRANCH   2   5
HETATM    5  N   UNL     1     -43.215  57.126 -50.641  1.00  0.00    -0.229 NA
HETATM    6  H   UNL     1     -44.236  57.187 -50.701  1.00  0.00     0.147 HD
BRANCH   5   7
HETATM    7  C   UNL     1     -42.621  57.900 -51.750  1.00  0.00     0.213 C 
BRANCH   7   8
HETATM    8  C   UNL     1     -43.229  57.449 -53.080  1.00  0.00     0.236 C 
HETATM    9  N   UNL     1     -42.295  57.392 -54.104  1.00  0.00    -0.326 N 
HETATM   10  H   UNL     1     -41.360  57.702 -53.843  1.00  0.00     0.169 HD
HETATM   11  O   UNL     1     -44.420  57.156 -53.160  1.00  0.00    -0.272 OA
BRANCH   9  12
HETATM   12  C   UNL     1     -42.506  57.001 -55.441  1.00  0.00     0.036 A 
HETATM   13  C   UNL     1     -42.531  57.893 -56.519  1.00  0.00     0.056 A 
HETATM   14  C   UNL     1     -42.742  57.422 -57.819  1.00  0.00     0.074 A 
HETATM   15 CL   UNL     1     -42.766  58.537 -59.132  1.00  0.00    -0.081 Cl
HETATM   16  C   UNL     1     -42.928  56.062 -58.046  1.00  0.00     0.138 A 
HETATM   17  F   UNL     1     -43.129  55.592 -59.286  1.00  0.00    -0.204 F 
HETATM   18  C   UNL     1     -42.907  55.164 -56.986  1.00  0.00     0.046 A 
HETATM   19  C   UNL     1     -42.697  55.633 -55.686  1.00  0.00     0.032 A 
ENDBRANCH   9  12
ENDBRANCH   7   8
ENDBRANCH   5   7
ENDBRANCH   2   5
BRANCH   1  20
HETATM   20  C   UNL     1     -41.464  53.809 -50.156  1.00  0.00     0.196 C 
BRANCH  20  21
HETATM   21  N   UNL     1     -40.120  53.730 -50.757  1.00  0.00    -0.282 NA
HETATM   22  H   UNL     1     -39.511  53.209 -50.123  1.00  0.00     0.128 HD
BRANCH  21  23
HETATM   23  C   UNL     1     -40.165  53.043 -52.003  1.00  0.00     0.042 A 
HETATM   24  C   UNL     1     -39.792  51.687 -52.124  1.00  0.00     0.089 A 
HETATM   25  C   UNL     1     -39.787  51.084 -53.389  1.00  0.00     0.038 A 
HETATM   26  C   UNL     1     -40.139  51.815 -54.526  1.00  0.00     0.003 A 
HETATM   27  C   UNL     1     -40.490  53.156 -54.412  1.00  0.00     0.002 A 
HETATM   28  C   UNL     1     -40.498  53.767 -53.160  1.00  0.00     0.026 A 
BRANCH  24  29
HETATM   29  O   UNL     1     -39.438  51.034 -50.966  1.00  0.00    -0.354 OA
HETATM   30  C   UNL     1     -39.700  49.634 -50.934  1.00  0.00     0.210 C 
ENDBRANCH  24  29
ENDBRANCH  21  23
ENDBRANCH  20  21
ENDBRANCH   1  20
TORSDOF 8
ENDMDL
MODEL 10
REMARK VINA RESULT:      -6.6      3.564      5.922
REMARK  8 active torsions:
REMARK  status: ('A' for Active; 'I' for Inactive)
REMARK    1  A    between atoms: O_2  and  C_3 
REMARK    2  A    between atoms: C_4  and  N_5 
REMARK    3  A    between atoms: N_5  and  C_6 
REMARK    4  A    between atoms: C_6  and  C_7 
REMARK       I    between atoms: C_7  and  N_8 
REMARK    5  A    between atoms: N_8  and  N_9 
REMARK    6  A    between atoms: N_9  and  C_10 
REMARK    7  A    between atoms: C_10  and  C_11 
REMARK       I    between atoms: C_11  and  N_12 
REMARK    8  A    between atoms: N_12  and  C_13 
ROOT
HETATM    1  C   UNL     1     -42.795  56.961 -59.649  1.00  0.00     0.245 C 
HETATM    2  N   UNL     1     -43.018  56.933 -58.274  1.00  0.00    -0.290 N 
HETATM    3  O   UNL     1     -42.095  56.150 -60.256  1.00  0.00    -0.271 OA
HETATM    4  H   UNL     1     -43.407  57.765 -57.830  1.00  0.00     0.183 HD
ENDROOT
BRANCH   2   5
HETATM    5  N   UNL     1     -42.419  55.925 -57.480  1.00  0.00    -0.229 NA
HETATM    6  H   UNL     1     -42.887  55.033 -57.670  1.00  0.00     0.147 HD
BRANCH   5   7
HETATM    7  C   UNL     1     -42.553  56.239 -56.043  1.00  0.00     0.213 C 
BRANCH   7   8
HETATM    8  C   UNL     1     -42.416  54.959 -55.216  1.00  0.00     0.236 C 
HETATM    9  N   UNL     1     -41.121  54.743 -54.773  1.00  0.00    -0.326 N 
HETATM   10  H   UNL     1     -40.441  55.430 -55.097  1.00  0.00     0.169 HD
HETATM   11  O   UNL     1     -43.396  54.255 -54.982  1.00  0.00    -0.272 OA
BRANCH   9  12
HETATM   12  C   UNL     1     -40.649  53.680 -53.977  1.00  0.00     0.036 A 
HETATM   13  C   UNL     1     -40.269  52.434 -54.487  1.00  0.00     0.056 A 
HETATM   14  C   UNL     1     -39.805  51.433 -53.627  1.00  0.00     0.074 A 
HETATM   15 CL   UNL     1     -39.339  49.906 -54.277  1.00  0.00    -0.081 Cl
HETATM   16  C   UNL     1     -39.720  51.672 -52.260  1.00  0.00     0.138 A 
HETATM   17  F   UNL     1     -39.276  50.724 -51.421  1.00  0.00    -0.204 F 
HETATM   18  C   UNL     1     -40.095  52.904 -51.738  1.00  0.00     0.046 A 
HETATM   19  C   UNL     1     -40.559  53.906 -52.595  1.00  0.00     0.032 A 
ENDBRANCH   9  12
ENDBRANCH   7   8
ENDBRANCH   5   7
ENDBRANCH   2   5
BRANCH   1  20
HETATM   20  C   UNL     1     -43.446  58.159 -60.353  1.00  0.00     0.196 C 
BRANCH  20  21
HETATM   21  N   UNL     1     -43.704  59.221 -59.363  1.00  0.00    -0.282 NA
HETATM   22  H   UNL     1     -43.776  58.791 -58.438  1.00  0.00     0.128 HD
BRANCH  21  23
HETATM   23  C   UNL     1     -42.634  60.160 -59.341  1.00  0.00     0.042 A 
HETATM   24  C   UNL     1     -41.890  60.420 -58.170  1.00  0.00     0.089 A 
HETATM   25  C   UNL     1     -40.897  61.408 -58.191  1.00  0.00     0.038 A 
HETATM   26  C   UNL     1     -40.646  62.139 -59.354  1.00  0.00     0.003 A 
HETATM   27  C   UNL     1     -41.389  61.898 -60.505  1.00  0.00     0.002 A 
HETATM   28  C   UNL     1     -42.380  60.918 -60.496  1.00  0.00     0.026 A 
BRANCH  24  29
HETATM   29  O   UNL     1     -42.205  59.677 -57.056  1.00  0.00    -0.354 OA
HETATM   30  C   UNL     1     -42.256  60.391 -55.825  1.00  0.00     0.210 C 
ENDBRANCH  24  29
ENDBRANCH  21  23
ENDBRANCH  20  21
ENDBRANCH   1  20
TORSDOF 8
ENDMDL
