MODEL 1
REMARK VINA RESULT:      -8.2      0.000      0.000
REMARK  5 active torsions:
REMARK  status: ('A' for Active; 'I' for Inactive)
REMARK    1  A    between atoms: C_5  and  N_6 
REMARK       I    between atoms: N_6  and  C_7 
REMARK    2  A    between atoms: C_7  and  C_8 
REMARK    3  A    between atoms: C_9  and  C_10 
REMARK    4  A    between atoms: C_13  and  O_14 
REMARK    5  A    between atoms: N_20  and  C_21 
ROOT
HETATM    1  C   UNL     1     -42.939  56.174 -54.024  1.00  0.00     0.060 C 
HETATM    2  C   UNL     1     -43.213  57.378 -53.180  1.00  0.00     0.158 C 
HETATM    3  N   UNL     1     -43.901  58.376 -53.968  1.00  0.00    -0.354 N 
HETATM    4  C   UNL     1     -43.799  58.520 -55.324  1.00  0.00     0.179 C 
HETATM    5  S   UNL     1     -44.415  59.958 -55.940  1.00  0.00    -0.040 SA
HETATM    6  N   UNL     1     -43.255  57.427 -56.036  1.00  0.00    -0.292 N 
HETATM    7  C   UNL     1     -42.884  56.232 -55.373  1.00  0.00     0.030 C 
HETATM    8  C   UNL     1     -42.325  55.094 -56.205  1.00  0.00     0.070 C 
HETATM    9  H   UNL     1     -44.232  59.198 -53.479  1.00  0.00     0.163 HD
ENDROOT
BRANCH   1  10
HETATM   10  C   UNL     1     -42.678  54.928 -53.236  1.00  0.00     0.257 C 
HETATM   11  N   UNL     1     -41.336  54.655 -53.085  1.00  0.00    -0.306 N 
HETATM   12  H   UNL     1     -40.654  55.259 -53.516  1.00  0.00     0.170 HD
HETATM   13  O   UNL     1     -43.615  54.239 -52.859  1.00  0.00    -0.267 OA
BRANCH  11  14
HETATM   14  C   UNL     1     -40.840  53.639 -52.289  1.00  0.00     0.160 A 
HETATM   15  N   UNL     1     -40.700  53.679 -50.962  1.00  0.00    -0.110 NA
HETATM   16  O   UNL     1     -40.125  52.482 -50.592  1.00  0.00    -0.216 OA
HETATM   17  C   UNL     1     -39.913  51.724 -51.696  1.00  0.00     0.078 A 
HETATM   18  C   UNL     1     -39.266  50.419 -51.478  1.00  0.00     0.079 C 
HETATM   19  C   UNL     1     -40.368  52.404 -52.799  1.00  0.00     0.087 A 
ENDBRANCH  11  14
ENDBRANCH   1  10
BRANCH   2  20
HETATM   20  C   UNL     1     -41.977  57.991 -52.533  1.00  0.00    -0.031 A 
HETATM   21  C   UNL     1     -41.931  58.297 -51.160  1.00  0.00     0.012 A 
HETATM   22  C   UNL     1     -40.805  58.904 -50.599  1.00  0.00     0.037 A 
HETATM   23  C   UNL     1     -39.713  59.200 -51.407  1.00  0.00     0.065 A 
HETATM   24  C   UNL     1     -39.724  58.888 -52.759  1.00  0.00     0.037 A 
HETATM   25  C   UNL     1     -40.852  58.286 -53.321  1.00  0.00     0.012 A 
BRANCH  23  26
HETATM   26  O   UNL     1     -38.603  59.812 -50.904  1.00  0.00    -0.361 OA
HETATM   27  H   UNL     1     -37.819  59.382 -51.281  1.00  0.00     0.217 HD
ENDBRANCH  23  26
ENDBRANCH   2  20
BRANCH   6  28
HETATM   28  C   UNL     1     -43.190  57.511 -57.466  1.00  0.00     0.042 A 
HETATM   29  C   UNL     1     -42.061  58.063 -58.086  1.00  0.00     0.030 A 
HETATM   30  C   UNL     1     -41.984  58.114 -59.478  1.00  0.00     0.002 A 
HETATM   31  C   UNL     1     -43.032  57.618 -60.255  1.00  0.00     0.000 A 
HETATM   32  C   UNL     1     -44.160  57.072 -59.643  1.00  0.00     0.002 A 
HETATM   33  C   UNL     1     -44.239  57.017 -58.251  1.00  0.00     0.030 A 
ENDBRANCH   6  28
TORSDOF 5
ENDMDL
MODEL 2
REMARK VINA RESULT:      -8.0      1.853      2.408
REMARK  5 active torsions:
REMARK  status: ('A' for Active; 'I' for Inactive)
REMARK    1  A    between atoms: C_5  and  N_6 
REMARK       I    between atoms: N_6  and  C_7 
REMARK    2  A    between atoms: C_7  and  C_8 
REMARK    3  A    between atoms: C_9  and  C_10 
REMARK    4  A    between atoms: C_13  and  O_14 
REMARK    5  A    between atoms: N_20  and  C_21 
ROOT
HETATM    1  C   UNL     1     -43.386  56.081 -53.969  1.00  0.00     0.060 C 
HETATM    2  C   UNL     1     -44.382  57.086 -53.482  1.00  0.00     0.158 C 
HETATM    3  N   UNL     1     -45.127  57.611 -54.603  1.00  0.00    -0.354 N 
HETATM    4  C   UNL     1     -44.667  57.697 -55.888  1.00  0.00     0.179 C 
HETATM    5  S   UNL     1     -45.585  58.658 -56.916  1.00  0.00    -0.040 SA
HETATM    6  N   UNL     1     -43.528  56.921 -56.203  1.00  0.00    -0.292 N 
HETATM    7  C   UNL     1     -42.933  56.068 -55.242  1.00  0.00     0.030 C 
HETATM    8  C   UNL     1     -41.725  55.252 -55.658  1.00  0.00     0.070 C 
HETATM    9  H   UNL     1     -45.902  58.227 -54.390  1.00  0.00     0.163 HD
ENDROOT
BRANCH   1  10
HETATM   10  C   UNL     1     -42.903  55.141 -52.908  1.00  0.00     0.257 C 
HETATM   11  N   UNL     1     -41.645  55.453 -52.441  1.00  0.00    -0.306 N 
HETATM   12  H   UNL     1     -41.144  56.230 -52.843  1.00  0.00     0.170 HD
HETATM   13  O   UNL     1     -43.587  54.178 -52.592  1.00  0.00    -0.267 OA
BRANCH  11  14
HETATM   14  C   UNL     1     -41.039  54.818 -51.373  1.00  0.00     0.160 A 
HETATM   15  N   UNL     1     -40.231  53.757 -51.446  1.00  0.00    -0.110 NA
HETATM   16  O   UNL     1     -39.900  53.425 -50.150  1.00  0.00    -0.216 OA
HETATM   17  C   UNL     1     -40.514  54.281 -49.295  1.00  0.00     0.078 A 
HETATM   18  C   UNL     1     -40.293  54.040 -47.859  1.00  0.00     0.079 C 
HETATM   19  C   UNL     1     -41.233  55.198 -50.022  1.00  0.00     0.087 A 
ENDBRANCH  11  14
ENDBRANCH   1  10
BRANCH   2  20
HETATM   20  C   UNL     1     -43.781  58.230 -52.676  1.00  0.00    -0.031 A 
HETATM   21  C   UNL     1     -42.537  58.800 -53.008  1.00  0.00     0.012 A 
HETATM   22  C   UNL     1     -41.983  59.815 -52.225  1.00  0.00     0.037 A 
HETATM   23  C   UNL     1     -42.674  60.274 -51.108  1.00  0.00     0.065 A 
HETATM   24  C   UNL     1     -43.912  59.745 -50.773  1.00  0.00     0.037 A 
HETATM   25  C   UNL     1     -44.464  58.726 -51.553  1.00  0.00     0.012 A 
BRANCH  23  26
HETATM   26  O   UNL     1     -42.159  61.248 -50.306  1.00  0.00    -0.361 OA
HETATM   27  H   UNL     1     -42.347  61.015 -49.382  1.00  0.00     0.217 HD
ENDBRANCH  23  26
ENDBRANCH   2  20
BRANCH   6  28
HETATM   28  C   UNL     1     -43.051  56.930 -57.556  1.00  0.00     0.042 A 
HETATM   29  C   UNL     1     -43.424  55.909 -58.439  1.00  0.00     0.030 A 
HETATM   30  C   UNL     1     -42.986  55.937 -59.764  1.00  0.00     0.002 A 
HETATM   31  C   UNL     1     -42.174  56.981 -60.210  1.00  0.00     0.000 A 
HETATM   32  C   UNL     1     -41.796  57.997 -59.333  1.00  0.00     0.002 A 
HETATM   33  C   UNL     1     -42.233  57.974 -58.008  1.00  0.00     0.030 A 
ENDBRANCH   6  28
TORSDOF 5
ENDMDL
MODEL 3
REMARK VINA RESULT:      -7.9      1.468      1.565
REMARK  5 active torsions:
REMARK  status: ('A' for Active; 'I' for Inactive)
REMARK    1  A    between atoms: C_5  and  N_6 
REMARK       I    between atoms: N_6  and  C_7 
REMARK    2  A    between atoms: C_7  and  C_8 
REMARK    3  A    between atoms: C_9  and  C_10 
REMARK    4  A    between atoms: C_13  and  O_14 
REMARK    5  A    between atoms: N_20  and  C_21 
ROOT
HETATM    1  C   UNL     1     -43.395  56.382 -53.603  1.00  0.00     0.060 C 
HETATM    2  C   UNL     1     -43.407  57.379 -52.487  1.00  0.00     0.158 C 
HETATM    3  N   UNL     1     -44.304  58.463 -52.815  1.00  0.00    -0.354 N 
HETATM    4  C   UNL     1     -44.615  58.875 -54.081  1.00  0.00     0.179 C 
HETATM    5  S   UNL     1     -45.394  60.362 -54.180  1.00  0.00    -0.040 SA
HETATM    6  N   UNL     1     -44.307  57.979 -55.130  1.00  0.00    -0.292 N 
HETATM    7  C   UNL     1     -43.749  56.705 -54.866  1.00  0.00     0.030 C 
HETATM    8  C   UNL     1     -43.463  55.791 -56.041  1.00  0.00     0.070 C 
HETATM    9  H   UNL     1     -44.475  59.151 -52.092  1.00  0.00     0.163 HD
ENDROOT
BRANCH   1  10
HETATM   10  C   UNL     1     -42.904  55.026 -53.200  1.00  0.00     0.257 C 
HETATM   11  N   UNL     1     -41.692  54.700 -53.768  1.00  0.00    -0.306 N 
HETATM   12  H   UNL     1     -41.253  55.343 -54.408  1.00  0.00     0.170 HD
HETATM   13  O   UNL     1     -43.600  54.314 -52.491  1.00  0.00    -0.267 OA
BRANCH  11  14
HETATM   14  C   UNL     1     -40.971  53.564 -53.449  1.00  0.00     0.160 A 
HETATM   15  N   UNL     1     -40.256  53.375 -52.337  1.00  0.00    -0.110 NA
HETATM   16  O   UNL     1     -39.666  52.134 -52.456  1.00  0.00    -0.216 OA
HETATM   17  C   UNL     1     -40.021  51.579 -53.642  1.00  0.00     0.078 A 
HETATM   18  C   UNL     1     -39.442  50.259 -53.943  1.00  0.00     0.079 C 
HETATM   19  C   UNL     1     -40.866  52.437 -54.302  1.00  0.00     0.087 A 
ENDBRANCH  11  14
ENDBRANCH   1  10
BRANCH   2  20
HETATM   20  C   UNL     1     -42.036  57.932 -52.121  1.00  0.00    -0.031 A 
HETATM   21  C   UNL     1     -41.645  58.126 -50.783  1.00  0.00     0.012 A 
HETATM   22  C   UNL     1     -40.402  58.682 -50.472  1.00  0.00     0.037 A 
HETATM   23  C   UNL     1     -39.536  59.040 -51.501  1.00  0.00     0.065 A 
HETATM   24  C   UNL     1     -39.888  58.839 -52.828  1.00  0.00     0.037 A 
HETATM   25  C   UNL     1     -41.134  58.288 -53.138  1.00  0.00     0.012 A 
BRANCH  23  26
HETATM   26  O   UNL     1     -38.323  59.605 -51.242  1.00  0.00    -0.361 OA
HETATM   27  H   UNL     1     -37.787  58.966 -50.746  1.00  0.00     0.217 HD
ENDBRANCH  23  26
ENDBRANCH   2  20
BRANCH   6  28
HETATM   28  C   UNL     1     -44.676  58.344 -56.468  1.00  0.00     0.042 A 
HETATM   29  C   UNL     1     -43.740  58.956 -57.311  1.00  0.00     0.030 A 
HETATM   30  C   UNL     1     -44.090  59.282 -58.623  1.00  0.00     0.002 A 
HETATM   31  C   UNL     1     -45.373  58.999 -59.094  1.00  0.00     0.000 A 
HETATM   32  C   UNL     1     -46.310  58.395 -58.256  1.00  0.00     0.002 A 
HETATM   33  C   UNL     1     -45.963  58.067 -56.945  1.00  0.00     0.030 A 
ENDBRANCH   6  28
TORSDOF 5
ENDMDL
MODEL 4
REMARK VINA RESULT:      -7.6      2.527      5.643
REMARK  5 active torsions:
REMARK  status: ('A' for Active; 'I' for Inactive)
REMARK    1  A    between atoms: C_5  and  N_6 
REMARK       I    between atoms: N_6  and  C_7 
REMARK    2  A    between atoms: C_7  and  C_8 
REMARK    3  A    between atoms: C_9  and  C_10 
REMARK    4  A    between atoms: C_13  and  O_14 
REMARK    5  A    between atoms: N_20  and  C_21 
ROOT
HETATM    1  C   UNL     1     -42.654  56.681 -53.805  1.00  0.00     0.060 C 
HETATM    2  C   UNL     1     -42.103  57.316 -55.043  1.00  0.00     0.158 C 
HETATM    3  N   UNL     1     -41.958  58.738 -54.834  1.00  0.00    -0.354 N 
HETATM    4  C   UNL     1     -42.708  59.492 -53.975  1.00  0.00     0.179 C 
HETATM    5  S   UNL     1     -42.577  61.155 -54.179  1.00  0.00    -0.040 SA
HETATM    6  N   UNL     1     -43.440  58.787 -52.992  1.00  0.00    -0.292 N 
HETATM    7  C   UNL     1     -43.353  57.378 -52.883  1.00  0.00     0.030 C 
HETATM    8  C   UNL     1     -44.153  56.693 -51.792  1.00  0.00     0.070 C 
HETATM    9  H   UNL     1     -41.497  59.264 -55.567  1.00  0.00     0.163 HD
ENDROOT
BRANCH   1  10
HETATM   10  C   UNL     1     -42.408  55.207 -53.718  1.00  0.00     0.257 C 
HETATM   11  N   UNL     1     -41.074  54.889 -53.584  1.00  0.00    -0.306 N 
HETATM   12  H   UNL     1     -40.384  55.624 -53.586  1.00  0.00     0.170 HD
HETATM   13  O   UNL     1     -43.342  54.427 -53.832  1.00  0.00    -0.267 OA
BRANCH  11  14
HETATM   14  C   UNL     1     -40.606  53.609 -53.351  1.00  0.00     0.160 A 
HETATM   15  N   UNL     1     -40.184  53.128 -52.179  1.00  0.00    -0.110 NA
HETATM   16  O   UNL     1     -39.761  51.837 -52.413  1.00  0.00    -0.216 OA
HETATM   17  C   UNL     1     -39.921  51.542 -53.727  1.00  0.00     0.078 A 
HETATM   18  C   UNL     1     -39.479  50.204 -54.154  1.00  0.00     0.079 C 
HETATM   19  C   UNL     1     -40.473  52.626 -54.364  1.00  0.00     0.087 A 
ENDBRANCH  11  14
ENDBRANCH   1  10
BRANCH   2  20
HETATM   20  C   UNL     1     -42.921  57.058 -56.302  1.00  0.00    -0.031 A 
HETATM   21  C   UNL     1     -42.653  55.969 -57.153  1.00  0.00     0.012 A 
HETATM   22  C   UNL     1     -43.384  55.781 -58.329  1.00  0.00     0.037 A 
HETATM   23  C   UNL     1     -44.395  56.677 -58.656  1.00  0.00     0.065 A 
HETATM   24  C   UNL     1     -44.695  57.746 -57.823  1.00  0.00     0.037 A 
HETATM   25  C   UNL     1     -43.960  57.937 -56.651  1.00  0.00     0.012 A 
BRANCH  23  26
HETATM   26  O   UNL     1     -45.118  56.542 -59.804  1.00  0.00    -0.361 OA
HETATM   27  H   UNL     1     -44.563  56.821 -60.550  1.00  0.00     0.217 HD
ENDBRANCH  23  26
ENDBRANCH   2  20
BRANCH   6  28
HETATM   28  C   UNL     1     -44.190  59.543 -52.030  1.00  0.00     0.042 A 
HETATM   29  C   UNL     1     -43.553  60.066 -50.898  1.00  0.00     0.030 A 
HETATM   30  C   UNL     1     -44.276  60.829 -49.980  1.00  0.00     0.002 A 
HETATM   31  C   UNL     1     -45.635  61.068 -50.187  1.00  0.00     0.000 A 
HETATM   32  C   UNL     1     -46.275  60.545 -51.310  1.00  0.00     0.002 A 
HETATM   33  C   UNL     1     -45.555  59.784 -52.231  1.00  0.00     0.030 A 
ENDBRANCH   6  28
TORSDOF 5
ENDMDL
MODEL 5
REMARK VINA RESULT:      -7.4      2.694      5.862
REMARK  5 active torsions:
REMARK  status: ('A' for Active; 'I' for Inactive)
REMARK    1  A    between atoms: C_5  and  N_6 
REMARK       I    between atoms: N_6  and  C_7 
REMARK    2  A    between atoms: C_7  and  C_8 
REMARK    3  A    between atoms: C_9  and  C_10 
REMARK    4  A    between atoms: C_13  and  O_14 
REMARK    5  A    between atoms: N_20  and  C_21 
ROOT
HETATM    1  C   UNL     1     -42.788  57.102 -55.756  1.00  0.00     0.060 C 
HETATM    2  C   UNL     1     -42.381  57.411 -57.162  1.00  0.00     0.158 C 
HETATM    3  N   UNL     1     -42.192  58.836 -57.309  1.00  0.00    -0.354 N 
HETATM    4  C   UNL     1     -42.823  59.798 -56.570  1.00  0.00     0.179 C 
HETATM    5  S   UNL     1     -42.694  61.363 -57.170  1.00  0.00    -0.040 SA
HETATM    6  N   UNL     1     -43.442  59.370 -55.373  1.00  0.00    -0.292 N 
HETATM    7  C   UNL     1     -43.362  58.021 -54.949  1.00  0.00     0.030 C 
HETATM    8  C   UNL     1     -44.034  57.640 -53.645  1.00  0.00     0.070 C 
HETATM    9  H   UNL     1     -41.815  59.160 -58.191  1.00  0.00     0.163 HD
ENDROOT
BRANCH   1  10
HETATM   10  C   UNL     1     -42.554  55.678 -55.355  1.00  0.00     0.257 C 
HETATM   11  N   UNL     1     -41.352  55.490 -54.709  1.00  0.00    -0.306 N 
HETATM   12  H   UNL     1     -40.726  56.271 -54.582  1.00  0.00     0.170 HD
HETATM   13  O   UNL     1     -43.364  54.818 -55.667  1.00  0.00    -0.267 OA
BRANCH  11  14
HETATM   14  C   UNL     1     -40.968  54.296 -54.126  1.00  0.00     0.160 A 
HETATM   15  N   UNL     1     -40.981  54.020 -52.820  1.00  0.00    -0.110 NA
HETATM   16  O   UNL     1     -40.472  52.746 -52.683  1.00  0.00    -0.216 OA
HETATM   17  C   UNL     1     -40.146  52.257 -53.905  1.00  0.00     0.078 A 
HETATM   18  C   UNL     1     -39.551  50.910 -53.931  1.00  0.00     0.079 C 
HETATM   19  C   UNL     1     -40.461  53.194 -54.859  1.00  0.00     0.087 A 
ENDBRANCH  11  14
ENDBRANCH   1  10
BRANCH   2  20
HETATM   20  C   UNL     1     -43.348  56.904 -58.225  1.00  0.00    -0.031 A 
HETATM   21  C   UNL     1     -44.637  57.448 -58.377  1.00  0.00     0.012 A 
HETATM   22  C   UNL     1     -45.524  56.934 -59.325  1.00  0.00     0.037 A 
HETATM   23  C   UNL     1     -45.123  55.877 -60.135  1.00  0.00     0.065 A 
HETATM   24  C   UNL     1     -43.850  55.338 -60.021  1.00  0.00     0.037 A 
HETATM   25  C   UNL     1     -42.965  55.849 -59.069  1.00  0.00     0.012 A 
BRANCH  23  26
HETATM   26  O   UNL     1     -45.965  55.332 -61.059  1.00  0.00    -0.361 OA
HETATM   27  H   UNL     1     -45.487  55.253 -61.900  1.00  0.00     0.217 HD
ENDBRANCH  23  26
ENDBRANCH   2  20
BRANCH   6  28
HETATM   28  C   UNL     1     -44.060  60.357 -54.535  1.00  0.00     0.042 A 
HETATM   29  C   UNL     1     -45.427  60.634 -54.669  1.00  0.00     0.030 A 
HETATM   30  C   UNL     1     -46.034  61.571 -53.832  1.00  0.00     0.002 A 
HETATM   31  C   UNL     1     -45.281  62.233 -52.862  1.00  0.00     0.000 A 
HETATM   32  C   UNL     1     -43.919  61.965 -52.728  1.00  0.00     0.002 A 
HETATM   33  C   UNL     1     -43.308  61.027 -53.562  1.00  0.00     0.030 A 
ENDBRANCH   6  28
TORSDOF 5
ENDMDL
MODEL 6
REMARK VINA RESULT:      -7.1      3.382      6.931
REMARK  5 active torsions:
REMARK  status: ('A' for Active; 'I' for Inactive)
REMARK    1  A    between atoms: C_5  and  N_6 
REMARK       I    between atoms: N_6  and  C_7 
REMARK    2  A    between atoms: C_7  and  C_8 
REMARK    3  A    between atoms: C_9  and  C_10 
REMARK    4  A    between atoms: C_13  and  O_14 
REMARK    5  A    between atoms: N_20  and  C_21 
ROOT
HETATM    1  C   UNL     1     -42.798  57.603 -55.005  1.00  0.00     0.060 C 
HETATM    2  C   UNL     1     -42.439  59.019 -54.679  1.00  0.00     0.158 C 
HETATM    3  N   UNL     1     -41.439  59.036 -53.635  1.00  0.00    -0.354 N 
HETATM    4  C   UNL     1     -41.274  58.069 -52.682  1.00  0.00     0.179 C 
HETATM    5  S   UNL     1     -40.286  58.496 -51.391  1.00  0.00    -0.040 SA
HETATM    6  N   UNL     1     -41.895  56.824 -52.933  1.00  0.00    -0.292 N 
HETATM    7  C   UNL     1     -42.606  56.588 -54.134  1.00  0.00     0.030 C 
HETATM    8  C   UNL     1     -43.229  55.222 -54.342  1.00  0.00     0.070 C 
HETATM    9  H   UNL     1     -41.040  59.936 -53.398  1.00  0.00     0.163 HD
ENDROOT
BRANCH   1  10
HETATM   10  C   UNL     1     -43.435  57.433 -56.349  1.00  0.00     0.257 C 
HETATM   11  N   UNL     1     -42.572  56.929 -57.297  1.00  0.00    -0.306 N 
HETATM   12  H   UNL     1     -41.611  56.747 -57.049  1.00  0.00     0.170 HD
HETATM   13  O   UNL     1     -44.591  57.793 -56.524  1.00  0.00    -0.267 OA
BRANCH  11  14
HETATM   14  C   UNL     1     -42.956  56.560 -58.573  1.00  0.00     0.160 A 
HETATM   15  N   UNL     1     -42.503  57.088 -59.712  1.00  0.00    -0.110 NA
HETATM   16  O   UNL     1     -43.188  56.464 -60.734  1.00  0.00    -0.216 OA
HETATM   17  C   UNL     1     -44.059  55.566 -60.209  1.00  0.00     0.078 A 
HETATM   18  C   UNL     1     -44.901  54.836 -61.171  1.00  0.00     0.079 C 
HETATM   19  C   UNL     1     -43.937  55.573 -58.841  1.00  0.00     0.087 A 
ENDBRANCH  11  14
ENDBRANCH   1  10
BRANCH   2  20
HETATM   20  C   UNL     1     -43.620  59.894 -54.281  1.00  0.00    -0.031 A 
HETATM   21  C   UNL     1     -43.776  61.202 -54.777  1.00  0.00     0.012 A 
HETATM   22  C   UNL     1     -44.840  62.005 -54.359  1.00  0.00     0.037 A 
HETATM   23  C   UNL     1     -45.762  61.500 -53.448  1.00  0.00     0.065 A 
HETATM   24  C   UNL     1     -45.643  60.206 -52.960  1.00  0.00     0.037 A 
HETATM   25  C   UNL     1     -44.575  59.406 -53.374  1.00  0.00     0.012 A 
BRANCH  23  26
HETATM   26  O   UNL     1     -46.802  62.257 -52.998  1.00  0.00    -0.361 OA
HETATM   27  H   UNL     1     -46.564  63.193 -53.093  1.00  0.00     0.217 HD
ENDBRANCH  23  26
ENDBRANCH   2  20
BRANCH   6  28
HETATM   28  C   UNL     1     -41.694  55.761 -51.990  1.00  0.00     0.042 A 
HETATM   29  C   UNL     1     -40.730  54.776 -52.239  1.00  0.00     0.030 A 
HETATM   30  C   UNL     1     -40.513  53.761 -51.306  1.00  0.00     0.002 A 
HETATM   31  C   UNL     1     -41.256  53.726 -50.126  1.00  0.00     0.000 A 
HETATM   32  C   UNL     1     -42.220  54.701 -49.876  1.00  0.00     0.002 A 
HETATM   33  C   UNL     1     -42.439  55.719 -50.805  1.00  0.00     0.030 A 
ENDBRANCH   6  28
TORSDOF 5
ENDMDL
MODEL 7
REMARK VINA RESULT:      -6.9      3.383      6.968
REMARK  5 active torsions:
REMARK  status: ('A' for Active; 'I' for Inactive)
REMARK    1  A    between atoms: C_5  and  N_6 
REMARK       I    between atoms: N_6  and  C_7 
REMARK    2  A    between atoms: C_7  and  C_8 
REMARK    3  A    between atoms: C_9  and  C_10 
REMARK    4  A    between atoms: C_13  and  O_14 
REMARK    5  A    between atoms: N_20  and  C_21 
ROOT
HETATM    1  C   UNL     1     -42.995  57.427 -53.792  1.00  0.00     0.060 C 
HETATM    2  C   UNL     1     -42.709  58.876 -53.548  1.00  0.00     0.158 C 
HETATM    3  N   UNL     1     -41.538  59.003 -52.709  1.00  0.00    -0.354 N 
HETATM    4  C   UNL     1     -41.114  58.076 -51.798  1.00  0.00     0.179 C 
HETATM    5  S   UNL     1     -39.945  58.616 -50.718  1.00  0.00    -0.040 SA
HETATM    6  N   UNL     1     -41.657  56.777 -51.920  1.00  0.00    -0.292 N 
HETATM    7  C   UNL     1     -42.556  56.453 -52.966  1.00  0.00     0.030 C 
HETATM    8  C   UNL     1     -43.082  55.033 -53.044  1.00  0.00     0.070 C 
HETATM    9  H   UNL     1     -41.183  59.939 -52.557  1.00  0.00     0.163 HD
ENDROOT
BRANCH   1  10
HETATM   10  C   UNL     1     -43.854  57.172 -54.992  1.00  0.00     0.257 C 
HETATM   11  N   UNL     1     -43.160  57.252 -56.179  1.00  0.00    -0.306 N 
HETATM   12  H   UNL     1     -42.181  57.495 -56.169  1.00  0.00     0.170 HD
HETATM   13  O   UNL     1     -45.054  56.988 -54.852  1.00  0.00    -0.267 OA
BRANCH  11  14
HETATM   14  C   UNL     1     -43.698  56.927 -57.411  1.00  0.00     0.160 A 
HETATM   15  N   UNL     1     -44.565  57.667 -58.108  1.00  0.00    -0.110 NA
HETATM   16  O   UNL     1     -44.873  56.945 -59.242  1.00  0.00    -0.216 OA
HETATM   17  C   UNL     1     -44.198  55.769 -59.224  1.00  0.00     0.078 A 
HETATM   18  C   UNL     1     -44.446  54.858 -60.355  1.00  0.00     0.079 C 
HETATM   19  C   UNL     1     -43.421  55.717 -58.093  1.00  0.00     0.087 A 
ENDBRANCH  11  14
ENDBRANCH   1  10
BRANCH   2  20
HETATM   20  C   UNL     1     -43.868  59.655 -52.941  1.00  0.00    -0.031 A 
HETATM   21  C   UNL     1     -44.695  59.103 -51.945  1.00  0.00     0.012 A 
HETATM   22  C   UNL     1     -45.783  59.818 -51.439  1.00  0.00     0.037 A 
HETATM   23  C   UNL     1     -46.046  61.096 -51.921  1.00  0.00     0.065 A 
HETATM   24  C   UNL     1     -45.233  61.672 -52.886  1.00  0.00     0.037 A 
HETATM   25  C   UNL     1     -44.148  60.955 -53.396  1.00  0.00     0.012 A 
BRANCH  23  26
HETATM   26  O   UNL     1     -47.110  61.819 -51.469  1.00  0.00    -0.361 OA
HETATM   27  H   UNL     1     -47.688  61.228 -50.961  1.00  0.00     0.217 HD
ENDBRANCH  23  26
ENDBRANCH   2  20
BRANCH   6  28
HETATM   28  C   UNL     1     -41.191  55.757 -51.025  1.00  0.00     0.042 A 
HETATM   29  C   UNL     1     -41.580  55.773 -49.680  1.00  0.00     0.030 A 
HETATM   30  C   UNL     1     -41.153  54.763 -48.817  1.00  0.00     0.002 A 
HETATM   31  C   UNL     1     -40.335  53.737 -49.294  1.00  0.00     0.000 A 
HETATM   32  C   UNL     1     -39.940  53.720 -50.631  1.00  0.00     0.002 A 
HETATM   33  C   UNL     1     -40.367  54.727 -51.497  1.00  0.00     0.030 A 
ENDBRANCH   6  28
TORSDOF 5
ENDMDL
MODEL 8
REMARK VINA RESULT:      -6.9      3.534      6.682
REMARK  5 active torsions:
REMARK  status: ('A' for Active; 'I' for Inactive)
REMARK    1  A    between atoms: C_5  and  N_6 
REMARK       I    between atoms: N_6  and  C_7 
REMARK    2  A    between atoms: C_7  and  C_8 
REMARK    3  A    between atoms: C_9  and  C_10 
REMARK    4  A    between atoms: C_13  and  O_14 
REMARK    5  A    between atoms: N_20  and  C_21 
ROOT
HETATM    1  C   UNL     1     -41.980  60.051 -53.374  1.00  0.00     0.060 C 
HETATM    2  C   UNL     1     -42.227  60.538 -54.767  1.00  0.00     0.158 C 
HETATM    3  N   UNL     1     -42.569  61.942 -54.735  1.00  0.00    -0.354 N 
HETATM    4  C   UNL     1     -43.166  62.587 -53.687  1.00  0.00     0.179 C 
HETATM    5  S   UNL     1     -43.769  64.117 -54.036  1.00  0.00    -0.040 SA
HETATM    6  N   UNL     1     -43.141  61.921 -52.440  1.00  0.00    -0.292 N 
HETATM    7  C   UNL     1     -42.488  60.674 -52.288  1.00  0.00     0.030 C 
HETATM    8  C   UNL     1     -42.487  60.029 -50.916  1.00  0.00     0.070 C 
HETATM    9  H   UNL     1     -42.660  62.412 -55.627  1.00  0.00     0.163 HD
ENDROOT
BRANCH   1  10
HETATM   10  C   UNL     1     -41.176  58.790 -53.306  1.00  0.00     0.257 C 
HETATM   11  N   UNL     1     -41.951  57.663 -53.146  1.00  0.00    -0.306 N 
HETATM   12  H   UNL     1     -42.951  57.754 -53.058  1.00  0.00     0.170 HD
HETATM   13  O   UNL     1     -39.955  58.846 -53.328  1.00  0.00    -0.267 OA
BRANCH  11  14
HETATM   14  C   UNL     1     -41.455  56.373 -53.189  1.00  0.00     0.160 A 
HETATM   15  N   UNL     1     -41.153  55.613 -52.133  1.00  0.00    -0.110 NA
HETATM   16  O   UNL     1     -40.646  54.431 -52.632  1.00  0.00    -0.216 OA
HETATM   17  C   UNL     1     -40.636  54.483 -53.988  1.00  0.00     0.078 A 
HETATM   18  C   UNL     1     -40.085  53.306 -54.681  1.00  0.00     0.079 C 
HETATM   19  C   UNL     1     -41.159  55.686 -54.393  1.00  0.00     0.087 A 
ENDBRANCH  11  14
ENDBRANCH   1  10
BRANCH   2  20
HETATM   20  C   UNL     1     -43.294  59.762 -55.528  1.00  0.00    -0.031 A 
HETATM   21  C   UNL     1     -44.558  59.495 -54.970  1.00  0.00     0.012 A 
HETATM   22  C   UNL     1     -45.503  58.738 -55.667  1.00  0.00     0.037 A 
HETATM   23  C   UNL     1     -45.192  58.250 -56.932  1.00  0.00     0.065 A 
HETATM   24  C   UNL     1     -43.961  58.518 -57.513  1.00  0.00     0.037 A 
HETATM   25  C   UNL     1     -43.014  59.270 -56.814  1.00  0.00     0.012 A 
BRANCH  23  26
HETATM   26  O   UNL     1     -46.077  57.490 -57.636  1.00  0.00    -0.361 OA
HETATM   27  H   UNL     1     -46.429  58.025 -58.366  1.00  0.00     0.217 HD
ENDBRANCH  23  26
ENDBRANCH   2  20
BRANCH   6  28
HETATM   28  C   UNL     1     -43.699  62.590 -51.300  1.00  0.00     0.042 A 
HETATM   29  C   UNL     1     -45.039  62.383 -50.951  1.00  0.00     0.030 A 
HETATM   30  C   UNL     1     -45.571  63.009 -49.823  1.00  0.00     0.002 A 
HETATM   31  C   UNL     1     -44.770  63.843 -49.043  1.00  0.00     0.000 A 
HETATM   32  C   UNL     1     -43.436  64.057 -49.390  1.00  0.00     0.002 A 
HETATM   33  C   UNL     1     -42.900  63.431 -50.516  1.00  0.00     0.030 A 
ENDBRANCH   6  28
TORSDOF 5
ENDMDL
MODEL 9
REMARK VINA RESULT:      -6.9      3.599      7.405
REMARK  5 active torsions:
REMARK  status: ('A' for Active; 'I' for Inactive)
REMARK    1  A    between atoms: C_5  and  N_6 
REMARK       I    between atoms: N_6  and  C_7 
REMARK    2  A    between atoms: C_7  and  C_8 
REMARK    3  A    between atoms: C_9  and  C_10 
REMARK    4  A    between atoms: C_13  and  O_14 
REMARK    5  A    between atoms: N_20  and  C_21 
ROOT
HETATM    1  C   UNL     1     -42.948  57.701 -56.342  1.00  0.00     0.060 C 
HETATM    2  C   UNL     1     -42.705  59.060 -55.766  1.00  0.00     0.158 C 
HETATM    3  N   UNL     1     -41.703  58.974 -54.729  1.00  0.00    -0.354 N 
HETATM    4  C   UNL     1     -41.449  57.870 -53.963  1.00  0.00     0.179 C 
HETATM    5  S   UNL     1     -40.490  58.141 -52.609  1.00  0.00    -0.040 SA
HETATM    6  N   UNL     1     -41.966  56.642 -54.436  1.00  0.00    -0.292 N 
HETATM    7  C   UNL     1     -42.664  56.566 -55.665  1.00  0.00     0.030 C 
HETATM    8  C   UNL     1     -43.172  55.211 -56.118  1.00  0.00     0.070 C 
HETATM    9  H   UNL     1     -41.378  59.848 -54.332  1.00  0.00     0.163 HD
ENDROOT
BRANCH   1  10
HETATM   10  C   UNL     1     -43.579  57.720 -57.699  1.00  0.00     0.257 C 
HETATM   11  N   UNL     1     -44.945  57.539 -57.662  1.00  0.00    -0.306 N 
HETATM   12  H   UNL     1     -45.402  57.381 -56.778  1.00  0.00     0.170 HD
HETATM   13  O   UNL     1     -42.878  57.824 -58.695  1.00  0.00    -0.267 OA
BRANCH  11  14
HETATM   14  C   UNL     1     -45.768  57.650 -58.768  1.00  0.00     0.160 A 
HETATM   15  N   UNL     1     -46.376  58.763 -59.186  1.00  0.00    -0.110 NA
HETATM   16  O   UNL     1     -47.131  58.409 -60.283  1.00  0.00    -0.216 OA
HETATM   17  C   UNL     1     -46.984  57.082 -60.522  1.00  0.00     0.078 A 
HETATM   18  C   UNL     1     -47.760  56.532 -61.647  1.00  0.00     0.079 C 
HETATM   19  C   UNL     1     -46.112  56.557 -59.601  1.00  0.00     0.087 A 
ENDBRANCH  11  14
ENDBRANCH   1  10
BRANCH   2  20
HETATM   20  C   UNL     1     -43.952  59.748 -55.226  1.00  0.00    -0.031 A 
HETATM   21  C   UNL     1     -44.626  60.745 -55.956  1.00  0.00     0.012 A 
HETATM   22  C   UNL     1     -45.738  61.398 -55.420  1.00  0.00     0.037 A 
HETATM   23  C   UNL     1     -46.190  61.050 -54.151  1.00  0.00     0.065 A 
HETATM   24  C   UNL     1     -45.558  60.055 -53.420  1.00  0.00     0.037 A 
HETATM   25  C   UNL     1     -44.442  59.406 -53.954  1.00  0.00     0.012 A 
BRANCH  23  26
HETATM   26  O   UNL     1     -47.259  61.677 -53.582  1.00  0.00    -0.361 OA
HETATM   27  H   UNL     1     -47.887  61.910 -54.285  1.00  0.00     0.217 HD
ENDBRANCH  23  26
ENDBRANCH   2  20
BRANCH   6  28
HETATM   28  C   UNL     1     -41.669  55.449 -53.697  1.00  0.00     0.042 A 
HETATM   29  C   UNL     1     -40.591  54.639 -54.077  1.00  0.00     0.030 A 
HETATM   30  C   UNL     1     -40.283  53.496 -53.338  1.00  0.00     0.002 A 
HETATM   31  C   UNL     1     -41.049  53.158 -52.221  1.00  0.00     0.000 A 
HETATM   32  C   UNL     1     -42.126  53.958 -51.843  1.00  0.00     0.002 A 
HETATM   33  C   UNL     1     -42.436  55.103 -52.578  1.00  0.00     0.030 A 
ENDBRANCH   6  28
TORSDOF 5
ENDMDL
MODEL 10
REMARK VINA RESULT:      -6.8      2.091      2.573
REMARK  5 active torsions:
REMARK  status: ('A' for Active; 'I' for Inactive)
REMARK    1  A    between atoms: C_5  and  N_6 
REMARK       I    between atoms: N_6  and  C_7 
REMARK    2  A    between atoms: C_7  and  C_8 
REMARK    3  A    between atoms: C_9  and  C_10 
REMARK    4  A    between atoms: C_13  and  O_14 
REMARK    5  A    between atoms: N_20  and  C_21 
ROOT
HETATM    1  C   UNL     1     -43.802  56.639 -55.439  1.00  0.00     0.060 C 
HETATM    2  C   UNL     1     -44.840  57.276 -54.570  1.00  0.00     0.158 C 
HETATM    3  N   UNL     1     -45.651  58.171 -55.363  1.00  0.00    -0.354 N 
HETATM    4  C   UNL     1     -45.239  58.819 -56.494  1.00  0.00     0.179 C 
HETATM    5  S   UNL     1     -46.247  60.058 -57.018  1.00  0.00    -0.040 SA
HETATM    6  N   UNL     1     -44.066  58.327 -57.111  1.00  0.00    -0.292 N 
HETATM    7  C   UNL     1     -43.390  57.192 -56.600  1.00  0.00     0.030 C 
HETATM    8  C   UNL     1     -42.149  56.712 -57.326  1.00  0.00     0.070 C 
HETATM    9  H   UNL     1     -46.456  58.585 -54.907  1.00  0.00     0.163 HD
ENDROOT
BRANCH   1  10
HETATM   10  C   UNL     1     -43.229  55.376 -54.874  1.00  0.00     0.257 C 
HETATM   11  N   UNL     1     -41.986  55.552 -54.307  1.00  0.00    -0.306 N 
HETATM   12  H   UNL     1     -41.550  56.461 -54.335  1.00  0.00     0.170 HD
HETATM   13  O   UNL     1     -43.836  54.322 -55.004  1.00  0.00    -0.267 OA
BRANCH  11  14
HETATM   14  C   UNL     1     -41.312  54.570 -53.605  1.00  0.00     0.160 A 
HETATM   15  N   UNL     1     -40.534  53.621 -54.133  1.00  0.00    -0.110 NA
HETATM   16  O   UNL     1     -40.110  52.833 -53.084  1.00  0.00    -0.216 OA
HETATM   17  C   UNL     1     -40.638  53.302 -51.926  1.00  0.00     0.078 A 
HETATM   18  C   UNL     1     -40.310  52.544 -50.706  1.00  0.00     0.079 C 
HETATM   19  C   UNL     1     -41.392  54.417 -52.198  1.00  0.00     0.087 A 
ENDBRANCH  11  14
ENDBRANCH   1  10
BRANCH   2  20
HETATM   20  C   UNL     1     -44.284  58.014 -53.359  1.00  0.00    -0.031 A 
HETATM   21  C   UNL     1     -44.836  57.856 -52.074  1.00  0.00     0.012 A 
HETATM   22  C   UNL     1     -44.341  58.582 -50.988  1.00  0.00     0.037 A 
HETATM   23  C   UNL     1     -43.284  59.465 -51.179  1.00  0.00     0.065 A 
HETATM   24  C   UNL     1     -42.708  59.623 -52.431  1.00  0.00     0.037 A 
HETATM   25  C   UNL     1     -43.206  58.901 -53.518  1.00  0.00     0.012 A 
BRANCH  23  26
HETATM   26  O   UNL     1     -42.786  60.208 -50.150  1.00  0.00    -0.361 OA
HETATM   27  H   UNL     1     -42.047  59.721 -49.751  1.00  0.00     0.217 HD
ENDBRANCH  23  26
ENDBRANCH   2  20
BRANCH   6  28
HETATM   28  C   UNL     1     -43.634  58.937 -58.336  1.00  0.00     0.042 A 
HETATM   29  C   UNL     1     -44.165  58.507 -59.558  1.00  0.00     0.030 A 
HETATM   30  C   UNL     1     -43.769  59.122 -60.747  1.00  0.00     0.002 A 
HETATM   31  C   UNL     1     -42.842  60.165 -60.718  1.00  0.00     0.000 A 
HETATM   32  C   UNL     1     -42.307  60.594 -59.504  1.00  0.00     0.002 A 
HETATM   33  C   UNL     1     -42.702  59.982 -58.313  1.00  0.00     0.030 A 
ENDBRANCH   6  28
TORSDOF 5
ENDMDL
