MODEL 1
REMARK VINA RESULT:      -8.0      0.000      0.000
REMARK  4 active torsions:
REMARK  status: ('A' for Active; 'I' for Inactive)
REMARK    1  A    between atoms: C_4  and  N_5 
REMARK       I    between atoms: N_5  and  C_6 
REMARK    2  A    between atoms: C_6  and  C_7 
REMARK    3  A    between atoms: C_11  and  C_12 
REMARK    4  A    between atoms: C_18  and  N_19 
REMARK       I    between atoms: N_19  and  C_20 
ROOT
HETATM    1  N   UNL     1     -41.226  54.604 -54.889  1.00  0.00    -0.320 N 
HETATM    2  C   UNL     1     -42.413  54.700 -55.585  1.00  0.00     0.276 C 
HETATM    3  O   UNL     1     -43.346  53.908 -55.515  1.00  0.00    -0.266 OA
HETATM    4  H   UNL     1     -40.651  55.443 -54.899  1.00  0.00     0.169 HD
ENDROOT
BRANCH   1   5
HETATM    5  C   UNL     1     -40.780  53.581 -54.015  1.00  0.00     0.062 A 
HETATM    6  C   UNL     1     -40.392  52.325 -54.519  1.00  0.00     0.038 A 
HETATM    7  C   UNL     1     -39.892  51.308 -53.692  1.00  0.00    -0.060 A 
HETATM    8  C   UNL     1     -39.484  49.983 -54.267  1.00  0.00     0.048 C 
HETATM    9  C   UNL     1     -39.730  51.562 -52.336  1.00  0.00     0.009 A 
HETATM   10  C   UNL     1     -40.097  52.802 -51.814  1.00  0.00     0.032 A 
HETATM   11  C   UNL     1     -40.647  53.816 -52.624  1.00  0.00     0.061 A 
BRANCH  11  12
HETATM   12  N   UNL     1     -40.978  54.995 -51.902  1.00  0.00    -0.326 N 
HETATM   13  C   UNL     1     -42.178  55.663 -51.811  1.00  0.00     0.218 C 
HETATM   14  C   UNL     1     -42.095  56.906 -50.963  1.00  0.00     0.117 C 
HETATM   15  O   UNL     1     -43.238  55.314 -52.318  1.00  0.00    -0.274 OA
HETATM   16  H   UNL     1     -40.274  55.300 -51.241  1.00  0.00     0.169 HD
ENDBRANCH  11  12
ENDBRANCH   1   5
BRANCH   2  17
HETATM   17  C   UNL     1     -42.543  55.875 -56.410  1.00  0.00     0.142 A 
HETATM   18  N   UNL     1     -42.246  57.113 -55.902  1.00  0.00    -0.271 N 
HETATM   19  H   UNL     1     -41.940  57.319 -54.955  1.00  0.00     0.189 HD
HETATM   20  N   UNL     1     -42.361  58.120 -56.781  1.00  0.00    -0.177 NA
HETATM   21  C   UNL     1     -42.803  57.512 -57.888  1.00  0.00     0.083 A 
HETATM   22  C   UNL     1     -42.972  56.118 -57.700  1.00  0.00     0.094 A 
HETATM   23 CL   UNL     1     -43.615  55.026 -58.832  1.00  0.00    -0.079 Cl
BRANCH  21  24
HETATM   24  C   UNL     1     -43.084  58.263 -59.186  1.00  0.00     0.041 A 
HETATM   25  C   UNL     1     -42.158  59.390 -59.596  1.00  0.00     0.011 A 
HETATM   26  C   UNL     1     -42.110  58.099 -60.337  1.00  0.00     0.011 A 
ENDBRANCH  21  24
ENDBRANCH   2  17
TORSDOF 4
ENDMDL
MODEL 2
REMARK VINA RESULT:      -7.9      3.892      4.504
REMARK  4 active torsions:
REMARK  status: ('A' for Active; 'I' for Inactive)
REMARK    1  A    between atoms: C_4  and  N_5 
REMARK       I    between atoms: N_5  and  C_6 
REMARK    2  A    between atoms: C_6  and  C_7 
REMARK    3  A    between atoms: C_11  and  C_12 
REMARK    4  A    between atoms: C_18  and  N_19 
REMARK       I    between atoms: N_19  and  C_20 
ROOT
HETATM    1  N   UNL     1     -40.663  54.071 -52.549  1.00  0.00    -0.320 N 
HETATM    2  C   UNL     1     -41.897  54.687 -52.556  1.00  0.00     0.276 C 
HETATM    3  O   UNL     1     -42.973  54.130 -52.366  1.00  0.00    -0.266 OA
HETATM    4  H   UNL     1     -39.867  54.703 -52.512  1.00  0.00     0.169 HD
ENDROOT
BRANCH   1   5
HETATM    5  C   UNL     1     -40.348  52.698 -52.399  1.00  0.00     0.062 A 
HETATM    6  C   UNL     1     -40.065  51.900 -53.523  1.00  0.00     0.038 A 
HETATM    7  C   UNL     1     -39.693  50.552 -53.411  1.00  0.00    -0.060 A 
HETATM    8  C   UNL     1     -39.395  49.734 -54.633  1.00  0.00     0.048 C 
HETATM    9  C   UNL     1     -39.555  49.995 -52.145  1.00  0.00     0.009 A 
HETATM   10  C   UNL     1     -39.819  50.768 -51.015  1.00  0.00     0.032 A 
HETATM   11  C   UNL     1     -40.241  52.110 -51.114  1.00  0.00     0.061 A 
BRANCH  11  12
HETATM   12  N   UNL     1     -40.483  52.718 -49.852  1.00  0.00    -0.326 N 
HETATM   13  C   UNL     1     -39.896  53.825 -49.283  1.00  0.00     0.218 C 
HETATM   14  C   UNL     1     -40.418  54.119 -47.900  1.00  0.00     0.117 C 
HETATM   15  O   UNL     1     -39.058  54.548 -49.808  1.00  0.00    -0.274 OA
HETATM   16  H   UNL     1     -41.308  52.382 -49.370  1.00  0.00     0.169 HD
ENDBRANCH  11  12
ENDBRANCH   1   5
BRANCH   2  17
HETATM   17  C   UNL     1     -41.867  56.115 -52.751  1.00  0.00     0.142 A 
HETATM   18  N   UNL     1     -42.088  56.648 -53.995  1.00  0.00    -0.271 N 
HETATM   19  H   UNL     1     -42.268  56.130 -54.850  1.00  0.00     0.189 HD
HETATM   20  N   UNL     1     -42.081  57.989 -54.037  1.00  0.00    -0.177 NA
HETATM   21  C   UNL     1     -41.790  58.335 -52.777  1.00  0.00     0.083 A 
HETATM   22  C   UNL     1     -41.607  57.205 -51.943  1.00  0.00     0.094 A 
HETATM   23 CL   UNL     1     -41.122  57.231 -50.315  1.00  0.00    -0.079 Cl
BRANCH  21  24
HETATM   24  C   UNL     1     -41.674  59.787 -52.325  1.00  0.00     0.041 A 
HETATM   25  C   UNL     1     -42.575  60.827 -52.961  1.00  0.00     0.011 A 
HETATM   26  C   UNL     1     -42.832  60.396 -51.558  1.00  0.00     0.011 A 
ENDBRANCH  21  24
ENDBRANCH   2  17
TORSDOF 4
ENDMDL
MODEL 3
REMARK VINA RESULT:      -7.5      2.361      7.115
REMARK  4 active torsions:
REMARK  status: ('A' for Active; 'I' for Inactive)
REMARK    1  A    between atoms: C_4  and  N_5 
REMARK       I    between atoms: N_5  and  C_6 
REMARK    2  A    between atoms: C_6  and  C_7 
REMARK    3  A    between atoms: C_11  and  C_12 
REMARK    4  A    between atoms: C_18  and  N_19 
REMARK       I    between atoms: N_19  and  C_20 
ROOT
HETATM    1  N   UNL     1     -41.240  56.362 -52.809  1.00  0.00    -0.320 N 
HETATM    2  C   UNL     1     -41.818  55.266 -52.202  1.00  0.00     0.276 C 
HETATM    3  O   UNL     1     -42.891  55.264 -51.609  1.00  0.00    -0.266 OA
HETATM    4  H   UNL     1     -40.465  56.150 -53.432  1.00  0.00     0.169 HD
ENDROOT
BRANCH   1   5
HETATM    5  C   UNL     1     -41.683  57.708 -52.838  1.00  0.00     0.062 A 
HETATM    6  C   UNL     1     -41.636  58.503 -51.679  1.00  0.00     0.038 A 
HETATM    7  C   UNL     1     -42.012  59.855 -51.681  1.00  0.00    -0.060 A 
HETATM    8  C   UNL     1     -41.943  60.673 -50.425  1.00  0.00     0.048 C 
HETATM    9  C   UNL     1     -42.402  60.443 -52.879  1.00  0.00     0.009 A 
HETATM   10  C   UNL     1     -42.447  59.678 -54.044  1.00  0.00     0.032 A 
HETATM   11  C   UNL     1     -42.120  58.307 -54.046  1.00  0.00     0.061 A 
BRANCH  11  12
HETATM   12  N   UNL     1     -42.252  57.699 -55.325  1.00  0.00    -0.326 N 
HETATM   13  C   UNL     1     -42.975  56.590 -55.700  1.00  0.00     0.218 C 
HETATM   14  C   UNL     1     -42.814  56.252 -57.161  1.00  0.00     0.117 C 
HETATM   15  O   UNL     1     -43.709  55.928 -54.977  1.00  0.00    -0.274 OA
HETATM   16  H   UNL     1     -41.887  58.246 -56.095  1.00  0.00     0.169 HD
ENDBRANCH  11  12
ENDBRANCH   1   5
BRANCH   2  17
HETATM   17  C   UNL     1     -41.090  54.031 -52.352  1.00  0.00     0.142 A 
HETATM   18  N   UNL     1     -40.722  53.306 -51.247  1.00  0.00    -0.271 N 
HETATM   19  H   UNL     1     -40.896  53.555 -50.278  1.00  0.00     0.189 HD
HETATM   20  N   UNL     1     -40.093  52.153 -51.520  1.00  0.00    -0.177 NA
HETATM   21  C   UNL     1     -40.005  52.160 -52.855  1.00  0.00     0.083 A 
HETATM   22  C   UNL     1     -40.575  53.326 -53.422  1.00  0.00     0.094 A 
HETATM   23 CL   UNL     1     -40.560  53.749 -55.068  1.00  0.00    -0.079 Cl
BRANCH  21  24
HETATM   24  C   UNL     1     -39.356  51.027 -53.645  1.00  0.00     0.041 A 
HETATM   25  C   UNL     1     -39.567  49.598 -53.185  1.00  0.00     0.011 A 
HETATM   26  C   UNL     1     -40.258  50.079 -54.414  1.00  0.00     0.011 A 
ENDBRANCH  21  24
ENDBRANCH   2  17
TORSDOF 4
ENDMDL
MODEL 4
REMARK VINA RESULT:      -7.5      2.044      2.260
REMARK  4 active torsions:
REMARK  status: ('A' for Active; 'I' for Inactive)
REMARK    1  A    between atoms: C_4  and  N_5 
REMARK       I    between atoms: N_5  and  C_6 
REMARK    2  A    between atoms: C_6  and  C_7 
REMARK    3  A    between atoms: C_11  and  C_12 
REMARK    4  A    between atoms: C_18  and  N_19 
REMARK       I    between atoms: N_19  and  C_20 
ROOT
HETATM    1  N   UNL     1     -41.646  54.120 -54.643  1.00  0.00    -0.320 N 
HETATM    2  C   UNL     1     -41.273  55.409 -54.961  1.00  0.00     0.276 C 
HETATM    3  O   UNL     1     -40.233  55.958 -54.611  1.00  0.00    -0.266 OA
HETATM    4  H   UNL     1     -42.426  53.752 -55.181  1.00  0.00     0.169 HD
ENDROOT
BRANCH   1   5
HETATM    5  C   UNL     1     -40.988  53.175 -53.816  1.00  0.00     0.062 A 
HETATM    6  C   UNL     1     -40.539  51.950 -54.344  1.00  0.00     0.038 A 
HETATM    7  C   UNL     1     -39.833  51.015 -53.572  1.00  0.00    -0.060 A 
HETATM    8  C   UNL     1     -39.367  49.721 -54.172  1.00  0.00     0.048 C 
HETATM    9  C   UNL     1     -39.527  51.326 -52.253  1.00  0.00     0.009 A 
HETATM   10  C   UNL     1     -39.951  52.537 -51.710  1.00  0.00     0.032 A 
HETATM   11  C   UNL     1     -40.703  53.466 -52.459  1.00  0.00     0.061 A 
BRANCH  11  12
HETATM   12  N   UNL     1     -41.061  54.627 -51.721  1.00  0.00    -0.326 N 
HETATM   13  C   UNL     1     -42.298  55.197 -51.524  1.00  0.00     0.218 C 
HETATM   14  C   UNL     1     -42.237  56.458 -50.700  1.00  0.00     0.117 C 
HETATM   15  O   UNL     1     -43.368  54.757 -51.926  1.00  0.00    -0.274 OA
HETATM   16  H   UNL     1     -40.326  54.999 -51.132  1.00  0.00     0.169 HD
ENDBRANCH  11  12
ENDBRANCH   1   5
BRANCH   2  17
HETATM   17  C   UNL     1     -42.188  56.114 -55.823  1.00  0.00     0.142 A 
HETATM   18  N   UNL     1     -42.414  55.672 -57.102  1.00  0.00    -0.271 N 
HETATM   19  H   UNL     1     -41.979  54.869 -57.547  1.00  0.00     0.189 HD
HETATM   20  N   UNL     1     -43.321  56.384 -57.787  1.00  0.00    -0.177 NA
HETATM   21  C   UNL     1     -43.655  57.359 -56.933  1.00  0.00     0.083 A 
HETATM   22  C   UNL     1     -42.949  57.261 -55.709  1.00  0.00     0.094 A 
HETATM   23 CL   UNL     1     -43.017  58.370 -54.423  1.00  0.00    -0.079 Cl
BRANCH  21  24
HETATM   24  C   UNL     1     -44.681  58.437 -57.271  1.00  0.00     0.041 A 
HETATM   25  C   UNL     1     -45.766  58.125 -58.283  1.00  0.00     0.011 A 
HETATM   26  C   UNL     1     -46.119  58.222 -56.839  1.00  0.00     0.011 A 
ENDBRANCH  21  24
ENDBRANCH   2  17
TORSDOF 4
ENDMDL
MODEL 5
REMARK VINA RESULT:      -7.3      1.946      2.146
REMARK  4 active torsions:
REMARK  status: ('A' for Active; 'I' for Inactive)
REMARK    1  A    between atoms: C_4  and  N_5 
REMARK       I    between atoms: N_5  and  C_6 
REMARK    2  A    between atoms: C_6  and  C_7 
REMARK    3  A    between atoms: C_11  and  C_12 
REMARK    4  A    between atoms: C_18  and  N_19 
REMARK       I    between atoms: N_19  and  C_20 
ROOT
HETATM    1  N   UNL     1     -41.300  55.381 -55.492  1.00  0.00    -0.320 N 
HETATM    2  C   UNL     1     -42.500  55.948 -55.867  1.00  0.00     0.276 C 
HETATM    3  O   UNL     1     -43.563  55.831 -55.266  1.00  0.00    -0.266 OA
HETATM    4  H   UNL     1     -40.482  55.745 -55.974  1.00  0.00     0.169 HD
ENDROOT
BRANCH   1   5
HETATM    5  C   UNL     1     -41.021  54.508 -54.411  1.00  0.00     0.062 A 
HETATM    6  C   UNL     1     -40.485  53.228 -54.643  1.00  0.00     0.038 A 
HETATM    7  C   UNL     1     -40.142  52.358 -53.597  1.00  0.00    -0.060 A 
HETATM    8  C   UNL     1     -39.568  51.002 -53.884  1.00  0.00     0.048 C 
HETATM    9  C   UNL     1     -40.294  52.791 -52.285  1.00  0.00     0.009 A 
HETATM   10  C   UNL     1     -40.813  54.059 -52.029  1.00  0.00     0.032 A 
HETATM   11  C   UNL     1     -41.208  54.925 -53.069  1.00  0.00     0.061 A 
BRANCH  11  12
HETATM   12  N   UNL     1     -41.735  56.160 -52.604  1.00  0.00    -0.326 N 
HETATM   13  C   UNL     1     -41.289  57.444 -52.820  1.00  0.00     0.218 C 
HETATM   14  C   UNL     1     -42.119  58.481 -52.108  1.00  0.00     0.117 C 
HETATM   15  O   UNL     1     -40.343  57.770 -53.528  1.00  0.00    -0.274 OA
HETATM   16  H   UNL     1     -42.654  56.098 -52.182  1.00  0.00     0.169 HD
ENDBRANCH  11  12
ENDBRANCH   1   5
BRANCH   2  17
HETATM   17  C   UNL     1     -42.440  56.784 -57.040  1.00  0.00     0.142 A 
HETATM   18  N   UNL     1     -42.456  56.223 -58.291  1.00  0.00    -0.271 N 
HETATM   19  H   UNL     1     -42.492  55.231 -58.507  1.00  0.00     0.189 HD
HETATM   20  N   UNL     1     -42.445  57.107 -59.300  1.00  0.00    -0.177 NA
HETATM   21  C   UNL     1     -42.364  58.287 -58.674  1.00  0.00     0.083 A 
HETATM   22  C   UNL     1     -42.318  58.141 -57.266  1.00  0.00     0.094 A 
HETATM   23 CL   UNL     1     -42.107  59.393 -56.136  1.00  0.00    -0.079 Cl
BRANCH  21  24
HETATM   24  C   UNL     1     -42.326  59.617 -59.420  1.00  0.00     0.041 A 
HETATM   25  C   UNL     1     -42.948  59.702 -60.799  1.00  0.00     0.011 A 
HETATM   26  C   UNL     1     -43.634  60.352 -59.647  1.00  0.00     0.011 A 
ENDBRANCH  21  24
ENDBRANCH   2  17
TORSDOF 4
ENDMDL
MODEL 6
REMARK VINA RESULT:      -7.3      2.714      5.380
REMARK  4 active torsions:
REMARK  status: ('A' for Active; 'I' for Inactive)
REMARK    1  A    between atoms: C_4  and  N_5 
REMARK       I    between atoms: N_5  and  C_6 
REMARK    2  A    between atoms: C_6  and  C_7 
REMARK    3  A    between atoms: C_11  and  C_12 
REMARK    4  A    between atoms: C_18  and  N_19 
REMARK       I    between atoms: N_19  and  C_20 
ROOT
HETATM    1  N   UNL     1     -41.846  55.015 -52.440  1.00  0.00    -0.320 N 
HETATM    2  C   UNL     1     -43.055  55.090 -51.780  1.00  0.00     0.276 C 
HETATM    3  O   UNL     1     -43.700  54.134 -51.364  1.00  0.00    -0.266 OA
HETATM    4  H   UNL     1     -41.347  55.898 -52.527  1.00  0.00     0.169 HD
ENDROOT
BRANCH   1   5
HETATM    5  C   UNL     1     -41.115  53.871 -52.845  1.00  0.00     0.062 A 
HETATM    6  C   UNL     1     -40.572  52.992 -51.890  1.00  0.00     0.038 A 
HETATM    7  C   UNL     1     -39.893  51.818 -52.252  1.00  0.00    -0.060 A 
HETATM    8  C   UNL     1     -39.331  50.903 -51.204  1.00  0.00     0.048 C 
HETATM    9  C   UNL     1     -39.791  51.488 -53.597  1.00  0.00     0.009 A 
HETATM   10  C   UNL     1     -40.330  52.337 -54.563  1.00  0.00     0.032 A 
HETATM   11  C   UNL     1     -40.972  53.544 -54.217  1.00  0.00     0.061 A 
BRANCH  11  12
HETATM   12  N   UNL     1     -41.431  54.281 -55.342  1.00  0.00    -0.326 N 
HETATM   13  C   UNL     1     -42.711  54.644 -55.693  1.00  0.00     0.218 C 
HETATM   14  C   UNL     1     -42.770  55.397 -56.998  1.00  0.00     0.117 C 
HETATM   15  O   UNL     1     -43.726  54.433 -55.040  1.00  0.00    -0.274 OA
HETATM   16  H   UNL     1     -40.701  54.732 -55.881  1.00  0.00     0.169 HD
ENDBRANCH  11  12
ENDBRANCH   1   5
BRANCH   2  17
HETATM   17  C   UNL     1     -43.534  56.427 -51.532  1.00  0.00     0.142 A 
HETATM   18  N   UNL     1     -44.777  56.627 -50.989  1.00  0.00    -0.271 N 
HETATM   19  H   UNL     1     -45.449  55.907 -50.739  1.00  0.00     0.189 HD
HETATM   20  N   UNL     1     -45.088  57.912 -50.763  1.00  0.00    -0.177 NA
HETATM   21  C   UNL     1     -44.021  58.572 -51.228  1.00  0.00     0.083 A 
HETATM   22  C   UNL     1     -43.040  57.697 -51.755  1.00  0.00     0.094 A 
HETATM   23 CL   UNL     1     -41.601  58.159 -52.532  1.00  0.00    -0.079 Cl
BRANCH  21  24
HETATM   24  C   UNL     1     -43.907  60.093 -51.183  1.00  0.00     0.041 A 
HETATM   25  C   UNL     1     -44.404  60.830 -49.955  1.00  0.00     0.011 A 
HETATM   26  C   UNL     1     -42.938  60.713 -50.194  1.00  0.00     0.011 A 
ENDBRANCH  21  24
ENDBRANCH   2  17
TORSDOF 4
ENDMDL
MODEL 7
REMARK VINA RESULT:      -7.2      2.900      6.925
REMARK  4 active torsions:
REMARK  status: ('A' for Active; 'I' for Inactive)
REMARK    1  A    between atoms: C_4  and  N_5 
REMARK       I    between atoms: N_5  and  C_6 
REMARK    2  A    between atoms: C_6  and  C_7 
REMARK    3  A    between atoms: C_11  and  C_12 
REMARK    4  A    between atoms: C_18  and  N_19 
REMARK       I    between atoms: N_19  and  C_20 
ROOT
HETATM    1  N   UNL     1     -41.551  56.442 -53.798  1.00  0.00    -0.320 N 
HETATM    2  C   UNL     1     -41.746  55.690 -52.658  1.00  0.00     0.276 C 
HETATM    3  O   UNL     1     -42.463  56.000 -51.713  1.00  0.00    -0.266 OA
HETATM    4  H   UNL     1     -41.101  55.951 -54.566  1.00  0.00     0.169 HD
ENDROOT
BRANCH   1   5
HETATM    5  C   UNL     1     -42.048  57.730 -54.117  1.00  0.00     0.062 A 
HETATM    6  C   UNL     1     -43.192  57.877 -54.924  1.00  0.00     0.038 A 
HETATM    7  C   UNL     1     -43.748  59.132 -55.215  1.00  0.00    -0.060 A 
HETATM    8  C   UNL     1     -44.972  59.248 -56.076  1.00  0.00     0.048 C 
HETATM    9  C   UNL     1     -43.178  60.266 -54.651  1.00  0.00     0.009 A 
HETATM   10  C   UNL     1     -42.051  60.147 -53.840  1.00  0.00     0.032 A 
HETATM   11  C   UNL     1     -41.452  58.897 -53.579  1.00  0.00     0.061 A 
BRANCH  11  12
HETATM   12  N   UNL     1     -40.299  58.987 -52.751  1.00  0.00    -0.326 N 
HETATM   13  C   UNL     1     -40.205  59.054 -51.380  1.00  0.00     0.218 C 
HETATM   14  C   UNL     1     -38.783  59.179 -50.896  1.00  0.00     0.117 C 
HETATM   15  O   UNL     1     -41.138  58.993 -50.588  1.00  0.00    -0.274 OA
HETATM   16  H   UNL     1     -39.421  58.825 -53.228  1.00  0.00     0.169 HD
ENDBRANCH  11  12
ENDBRANCH   1   5
BRANCH   2  17
HETATM   17  C   UNL     1     -41.075  54.414 -52.646  1.00  0.00     0.142 A 
HETATM   18  N   UNL     1     -40.885  53.743 -51.465  1.00  0.00    -0.271 N 
HETATM   19  H   UNL     1     -41.163  54.060 -50.540  1.00  0.00     0.189 HD
HETATM   20  N   UNL     1     -40.292  52.546 -51.591  1.00  0.00    -0.177 NA
HETATM   21  C   UNL     1     -40.040  52.466 -52.903  1.00  0.00     0.083 A 
HETATM   22  C   UNL     1     -40.471  53.620 -53.601  1.00  0.00     0.094 A 
HETATM   23 CL   UNL     1     -40.232  53.938 -55.253  1.00  0.00    -0.079 Cl
BRANCH  21  24
HETATM   24  C   UNL     1     -39.362  51.256 -53.541  1.00  0.00     0.041 A 
HETATM   25  C   UNL     1     -39.696  49.871 -53.022  1.00  0.00     0.011 A 
HETATM   26  C   UNL     1     -40.216  50.299 -54.351  1.00  0.00     0.011 A 
ENDBRANCH  21  24
ENDBRANCH   2  17
TORSDOF 4
ENDMDL
MODEL 8
REMARK VINA RESULT:      -7.1      1.676      1.856
REMARK  4 active torsions:
REMARK  status: ('A' for Active; 'I' for Inactive)
REMARK    1  A    between atoms: C_4  and  N_5 
REMARK       I    between atoms: N_5  and  C_6 
REMARK    2  A    between atoms: C_6  and  C_7 
REMARK    3  A    between atoms: C_11  and  C_12 
REMARK    4  A    between atoms: C_18  and  N_19 
REMARK       I    between atoms: N_19  and  C_20 
ROOT
HETATM    1  N   UNL     1     -41.857  54.416 -54.155  1.00  0.00    -0.320 N 
HETATM    2  C   UNL     1     -41.490  55.731 -54.351  1.00  0.00     0.276 C 
HETATM    3  O   UNL     1     -40.390  56.210 -54.097  1.00  0.00    -0.266 OA
HETATM    4  H   UNL     1     -42.723  54.138 -54.610  1.00  0.00     0.169 HD
ENDROOT
BRANCH   1   5
HETATM    5  C   UNL     1     -41.118  53.357 -53.573  1.00  0.00     0.062 A 
HETATM    6  C   UNL     1     -40.848  52.185 -54.305  1.00  0.00     0.038 A 
HETATM    7  C   UNL     1     -40.070  51.139 -53.785  1.00  0.00    -0.060 A 
HETATM    8  C   UNL     1     -39.800  49.907 -54.597  1.00  0.00     0.048 C 
HETATM    9  C   UNL     1     -39.509  51.282 -52.522  1.00  0.00     0.009 A 
HETATM   10  C   UNL     1     -39.753  52.438 -51.781  1.00  0.00     0.032 A 
HETATM   11  C   UNL     1     -40.572  53.476 -52.271  1.00  0.00     0.061 A 
BRANCH  11  12
HETATM   12  N   UNL     1     -40.718  54.556 -51.358  1.00  0.00    -0.326 N 
HETATM   13  C   UNL     1     -41.861  55.132 -50.853  1.00  0.00     0.218 C 
HETATM   14  C   UNL     1     -41.576  56.291 -49.933  1.00  0.00     0.117 C 
HETATM   15  O   UNL     1     -43.010  54.765 -51.069  1.00  0.00    -0.274 OA
HETATM   16  H   UNL     1     -39.862  54.842 -50.898  1.00  0.00     0.169 HD
ENDBRANCH  11  12
ENDBRANCH   1   5
BRANCH   2  17
HETATM   17  C   UNL     1     -42.498  56.563 -54.960  1.00  0.00     0.142 A 
HETATM   18  N   UNL     1     -43.071  57.587 -54.252  1.00  0.00    -0.271 N 
HETATM   19  H   UNL     1     -42.871  57.839 -53.288  1.00  0.00     0.189 HD
HETATM   20  N   UNL     1     -43.959  58.317 -54.943  1.00  0.00    -0.177 NA
HETATM   21  C   UNL     1     -44.000  57.704 -56.133  1.00  0.00     0.083 A 
HETATM   22  C   UNL     1     -43.139  56.581 -56.184  1.00  0.00     0.094 A 
HETATM   23 CL   UNL     1     -42.994  55.489 -57.477  1.00  0.00    -0.079 Cl
BRANCH  21  24
HETATM   24  C   UNL     1     -44.885  58.184 -57.279  1.00  0.00     0.041 A 
HETATM   25  C   UNL     1     -45.168  59.667 -57.415  1.00  0.00     0.011 A 
HETATM   26  C   UNL     1     -44.248  59.007 -58.383  1.00  0.00     0.011 A 
ENDBRANCH  21  24
ENDBRANCH   2  17
TORSDOF 4
ENDMDL
MODEL 9
REMARK VINA RESULT:      -7.1      2.271      2.649
REMARK  4 active torsions:
REMARK  status: ('A' for Active; 'I' for Inactive)
REMARK    1  A    between atoms: C_4  and  N_5 
REMARK       I    between atoms: N_5  and  C_6 
REMARK    2  A    between atoms: C_6  and  C_7 
REMARK    3  A    between atoms: C_11  and  C_12 
REMARK    4  A    between atoms: C_18  and  N_19 
REMARK       I    between atoms: N_19  and  C_20 
ROOT
HETATM    1  N   UNL     1     -42.579  54.885 -54.779  1.00  0.00    -0.320 N 
HETATM    2  C   UNL     1     -42.328  56.153 -55.261  1.00  0.00     0.276 C 
HETATM    3  O   UNL     1     -41.561  56.968 -54.760  1.00  0.00    -0.266 OA
HETATM    4  H   UNL     1     -43.070  54.269 -55.421  1.00  0.00     0.169 HD
ENDROOT
BRANCH   1   5
HETATM    5  C   UNL     1     -42.091  54.261 -53.603  1.00  0.00     0.062 A 
HETATM    6  C   UNL     1     -41.057  53.309 -53.673  1.00  0.00     0.038 A 
HETATM    7  C   UNL     1     -40.509  52.712 -52.527  1.00  0.00    -0.060 A 
HETATM    8  C   UNL     1     -39.404  51.704 -52.641  1.00  0.00     0.048 C 
HETATM    9  C   UNL     1     -40.971  53.107 -51.277  1.00  0.00     0.009 A 
HETATM   10  C   UNL     1     -41.988  54.056 -51.181  1.00  0.00     0.032 A 
HETATM   11  C   UNL     1     -42.582  54.628 -52.325  1.00  0.00     0.061 A 
BRANCH  11  12
HETATM   12  N   UNL     1     -43.615  55.555 -52.020  1.00  0.00    -0.326 N 
HETATM   13  C   UNL     1     -43.529  56.878 -51.651  1.00  0.00     0.218 C 
HETATM   14  C   UNL     1     -44.875  57.499 -51.377  1.00  0.00     0.117 C 
HETATM   15  O   UNL     1     -42.500  57.538 -51.566  1.00  0.00    -0.274 OA
HETATM   16  H   UNL     1     -44.549  55.241 -52.254  1.00  0.00     0.169 HD
ENDBRANCH  11  12
ENDBRANCH   1   5
BRANCH   2  17
HETATM   17  C   UNL     1     -43.005  56.483 -56.490  1.00  0.00     0.142 A 
HETATM   18  N   UNL     1     -42.655  55.862 -57.662  1.00  0.00    -0.271 N 
HETATM   19  H   UNL     1     -41.924  55.167 -57.781  1.00  0.00     0.189 HD
HETATM   20  N   UNL     1     -43.390  56.221 -58.726  1.00  0.00    -0.177 NA
HETATM   21  C   UNL     1     -44.214  57.152 -58.230  1.00  0.00     0.083 A 
HETATM   22  C   UNL     1     -43.989  57.382 -56.851  1.00  0.00     0.094 A 
HETATM   23 CL   UNL     1     -44.757  58.560 -55.895  1.00  0.00    -0.079 Cl
BRANCH  21  24
HETATM   24  C   UNL     1     -45.261  57.864 -59.080  1.00  0.00     0.041 A 
HETATM   25  C   UNL     1     -45.958  57.093 -60.183  1.00  0.00     0.011 A 
HETATM   26  C   UNL     1     -46.710  57.435 -58.944  1.00  0.00     0.011 A 
ENDBRANCH  21  24
ENDBRANCH   2  17
TORSDOF 4
ENDMDL
MODEL 10
REMARK VINA RESULT:      -7.0      2.569      7.887
REMARK  4 active torsions:
REMARK  status: ('A' for Active; 'I' for Inactive)
REMARK    1  A    between atoms: C_4  and  N_5 
REMARK       I    between atoms: N_5  and  C_6 
REMARK    2  A    between atoms: C_6  and  C_7 
REMARK    3  A    between atoms: C_11  and  C_12 
REMARK    4  A    between atoms: C_18  and  N_19 
REMARK       I    between atoms: N_19  and  C_20 
ROOT
HETATM    1  N   UNL     1     -42.206  57.238 -57.608  1.00  0.00    -0.320 N 
HETATM    2  C   UNL     1     -43.123  56.868 -56.646  1.00  0.00     0.276 C 
HETATM    3  O   UNL     1     -44.177  57.446 -56.405  1.00  0.00    -0.266 OA
HETATM    4  H   UNL     1     -41.499  56.539 -57.820  1.00  0.00     0.169 HD
ENDROOT
BRANCH   1   5
HETATM    5  C   UNL     1     -42.217  58.362 -58.470  1.00  0.00     0.062 A 
HETATM    6  C   UNL     1     -41.635  59.579 -58.069  1.00  0.00     0.038 A 
HETATM    7  C   UNL     1     -41.575  60.697 -58.915  1.00  0.00    -0.060 A 
HETATM    8  C   UNL     1     -40.942  61.976 -58.453  1.00  0.00     0.048 C 
HETATM    9  C   UNL     1     -42.067  60.587 -60.210  1.00  0.00     0.009 A 
HETATM   10  C   UNL     1     -42.639  59.389 -60.636  1.00  0.00     0.032 A 
HETATM   11  C   UNL     1     -42.751  58.273 -59.780  1.00  0.00     0.061 A 
BRANCH  11  12
HETATM   12  N   UNL     1     -43.385  57.157 -60.391  1.00  0.00    -0.326 N 
HETATM   13  C   UNL     1     -44.644  56.641 -60.186  1.00  0.00     0.218 C 
HETATM   14  C   UNL     1     -44.917  55.413 -61.017  1.00  0.00     0.117 C 
HETATM   15  O   UNL     1     -45.503  57.105 -59.445  1.00  0.00    -0.274 OA
HETATM   16  H   UNL     1     -42.900  56.782 -61.197  1.00  0.00     0.169 HD
ENDBRANCH  11  12
ENDBRANCH   1   5
BRANCH   2  17
HETATM   17  C   UNL     1     -42.798  55.662 -55.925  1.00  0.00     0.142 A 
HETATM   18  N   UNL     1     -43.533  54.521 -56.118  1.00  0.00    -0.271 N 
HETATM   19  H   UNL     1     -44.336  54.417 -56.733  1.00  0.00     0.189 HD
HETATM   20  N   UNL     1     -43.103  53.455 -55.427  1.00  0.00    -0.177 NA
HETATM   21  C   UNL     1     -42.079  53.943 -54.716  1.00  0.00     0.083 A 
HETATM   22  C   UNL     1     -41.871  55.323 -54.959  1.00  0.00     0.094 A 
HETATM   23 CL   UNL     1     -40.744  56.319 -54.169  1.00  0.00    -0.079 Cl
BRANCH  21  24
HETATM   24  C   UNL     1     -41.253  53.086 -53.762  1.00  0.00     0.041 A 
HETATM   25  C   UNL     1     -40.901  51.669 -54.169  1.00  0.00     0.011 A 
HETATM   26  C   UNL     1     -39.840  52.714 -54.170  1.00  0.00     0.011 A 
ENDBRANCH  21  24
ENDBRANCH   2  17
TORSDOF 4
ENDMDL
