MODEL 1
REMARK VINA RESULT:      -8.8      0.000      0.000
REMARK  6 active torsions:
REMARK  status: ('A' for Active; 'I' for Inactive)
REMARK    1  A    between atoms: O_2  and  C_3 
REMARK    2  A    between atoms: C_6  and  C_7 
REMARK    3  A    between atoms: C_7  and  N_8 
REMARK       I    between atoms: N_8  and  C_9 
REMARK    4  A    between atoms: C_9  and  C_10 
REMARK    5  A    between atoms: C_10  and  O_11 
REMARK    6  A    between atoms: N_12  and  C_13 
ROOT
HETATM    1  C   UNL     1     -43.732  56.418 -54.224  1.00  0.00     0.256 C 
HETATM    2  N   UNL     1     -43.804  56.943 -52.847  1.00  0.00    -0.254 N 
HETATM    3  C   UNL     1     -44.543  58.086 -52.567  1.00  0.00     0.330 C 
HETATM    4  O   UNL     1     -44.861  58.480 -51.444  1.00  0.00    -0.246 OA
HETATM    5  N   UNL     1     -44.979  58.840 -53.609  1.00  0.00    -0.308 N 
HETATM    6  C   UNL     1     -44.781  58.574 -54.950  1.00  0.00     0.048 A 
HETATM    7  C   UNL     1     -44.172  57.384 -55.311  1.00  0.00     0.035 A 
HETATM    8  C   UNL     1     -45.214  59.496 -55.907  1.00  0.00     0.031 A 
HETATM    9  C   UNL     1     -45.030  59.228 -57.262  1.00  0.00     0.021 A 
HETATM   10  C   UNL     1     -44.434  58.031 -57.645  1.00  0.00     0.011 A 
HETATM   11 BR   UNL     1     -44.180  57.652 -59.479  1.00  0.00    -0.051 Br
HETATM   12  C   UNL     1     -44.019  57.107 -56.685  1.00  0.00     0.034 A 
HETATM   13  H   UNL     1     -45.470  59.680 -53.327  1.00  0.00     0.170 HD
ENDROOT
BRANCH   1  14
HETATM   14  C   UNL     1     -42.240  55.974 -54.578  1.00  0.00     0.279 C 
HETATM   15  N   UNL     1     -42.103  54.600 -54.727  1.00  0.00    -0.352 N 
HETATM   16  H   UNL     1     -42.895  54.022 -54.461  1.00  0.00     0.162 HD
HETATM   17  O   UNL     1     -41.316  56.762 -54.772  1.00  0.00    -0.268 OA
BRANCH  15  18
HETATM   18  C   UNL     1     -40.868  53.976 -55.125  1.00  0.00     0.161 C 
BRANCH  18  19
HETATM   19  C   UNL     1     -40.378  52.977 -54.111  1.00  0.00    -0.040 A 
HETATM   20  C   UNL     1     -40.292  53.311 -52.754  1.00  0.00     0.011 A 
HETATM   21  C   UNL     1     -39.893  52.353 -51.818  1.00  0.00     0.037 A 
HETATM   22  C   UNL     1     -39.581  51.052 -52.218  1.00  0.00     0.068 A 
HETATM   23  C   UNL     1     -39.619  50.728 -53.573  1.00  0.00     0.037 A 
HETATM   24  C   UNL     1     -40.016  51.684 -54.513  1.00  0.00     0.011 A 
BRANCH  22  25
HETATM   25  O   UNL     1     -39.242  50.198 -51.205  1.00  0.00    -0.356 OA
HETATM   26  C   UNL     1     -40.144  50.150 -50.105  1.00  0.00     0.210 C 
ENDBRANCH  22  25
ENDBRANCH  18  19
ENDBRANCH  15  18
ENDBRANCH   1  14
BRANCH   1  27
HETATM   27  O   UNL     1     -44.659  55.331 -54.304  1.00  0.00    -0.359 OA
HETATM   28  H   UNL     1     -45.435  55.730 -54.736  1.00  0.00     0.213 HD
ENDBRANCH   1  27
BRANCH   2  29
HETATM   29  C   UNL     1     -43.142  56.232 -51.765  1.00  0.00     0.042 A 
HETATM   30  C   UNL     1     -43.609  55.002 -51.272  1.00  0.00     0.030 A 
HETATM   31  C   UNL     1     -42.942  54.324 -50.241  1.00  0.00     0.002 A 
HETATM   32  C   UNL     1     -41.790  54.860 -49.682  1.00  0.00     0.000 A 
HETATM   33  C   UNL     1     -41.300  56.068 -50.154  1.00  0.00     0.002 A 
HETATM   34  C   UNL     1     -41.967  56.741 -51.185  1.00  0.00     0.030 A 
ENDBRANCH   2  29
TORSDOF 6
ENDMDL
MODEL 2
REMARK VINA RESULT:      -8.3      3.032      7.318
REMARK  6 active torsions:
REMARK  status: ('A' for Active; 'I' for Inactive)
REMARK    1  A    between atoms: O_2  and  C_3 
REMARK    2  A    between atoms: C_6  and  C_7 
REMARK    3  A    between atoms: C_7  and  N_8 
REMARK       I    between atoms: N_8  and  C_9 
REMARK    4  A    between atoms: C_9  and  C_10 
REMARK    5  A    between atoms: C_10  and  O_11 
REMARK    6  A    between atoms: N_12  and  C_13 
ROOT
HETATM    1  C   UNL     1     -41.202  55.301 -53.744  1.00  0.00     0.256 C 
HETATM    2  N   UNL     1     -41.645  56.320 -52.774  1.00  0.00    -0.254 N 
HETATM    3  C   UNL     1     -41.316  56.204 -51.430  1.00  0.00     0.330 C 
HETATM    4  O   UNL     1     -41.428  57.091 -50.582  1.00  0.00    -0.246 OA
HETATM    5  N   UNL     1     -40.807  55.023 -50.993  1.00  0.00    -0.308 N 
HETATM    6  C   UNL     1     -40.554  53.906 -51.766  1.00  0.00     0.048 A 
HETATM    7  C   UNL     1     -40.729  53.991 -53.138  1.00  0.00     0.035 A 
HETATM    8  C   UNL     1     -40.112  52.730 -51.155  1.00  0.00     0.031 A 
HETATM    9  C   UNL     1     -39.842  51.603 -51.930  1.00  0.00     0.021 A 
HETATM   10  C   UNL     1     -39.997  51.673 -53.310  1.00  0.00     0.011 A 
HETATM   11 BR   UNL     1     -39.631  50.155 -54.375  1.00  0.00    -0.051 Br
HETATM   12  C   UNL     1     -40.422  52.857 -53.916  1.00  0.00     0.034 A 
HETATM   13  H   UNL     1     -40.634  54.997 -49.996  1.00  0.00     0.170 HD
ENDROOT
BRANCH   1  14
HETATM   14  C   UNL     1     -42.381  54.940 -54.758  1.00  0.00     0.279 C 
HETATM   15  N   UNL     1     -42.112  55.325 -56.065  1.00  0.00    -0.352 N 
HETATM   16  H   UNL     1     -41.294  55.907 -56.218  1.00  0.00     0.162 HD
HETATM   17  O   UNL     1     -43.396  54.322 -54.440  1.00  0.00    -0.268 OA
BRANCH  15  18
HETATM   18  C   UNL     1     -42.994  55.030 -57.164  1.00  0.00     0.161 C 
BRANCH  18  19
HETATM   19  C   UNL     1     -43.125  56.188 -58.117  1.00  0.00    -0.040 A 
HETATM   20  C   UNL     1     -42.987  57.508 -57.672  1.00  0.00     0.011 A 
HETATM   21  C   UNL     1     -43.052  58.568 -58.581  1.00  0.00     0.037 A 
HETATM   22  C   UNL     1     -43.248  58.327 -59.943  1.00  0.00     0.068 A 
HETATM   23  C   UNL     1     -43.433  57.019 -60.385  1.00  0.00     0.037 A 
HETATM   24  C   UNL     1     -43.371  55.957 -59.478  1.00  0.00     0.011 A 
BRANCH  22  25
HETATM   25  O   UNL     1     -43.254  59.443 -60.734  1.00  0.00    -0.356 OA
HETATM   26  C   UNL     1     -41.975  59.946 -61.109  1.00  0.00     0.210 C 
ENDBRANCH  22  25
ENDBRANCH  18  19
ENDBRANCH  15  18
ENDBRANCH   1  14
BRANCH   1  27
HETATM   27  O   UNL     1     -40.053  55.831 -54.411  1.00  0.00    -0.359 OA
HETATM   28  H   UNL     1     -39.412  55.099 -54.368  1.00  0.00     0.213 HD
ENDBRANCH   1  27
BRANCH   2  29
HETATM   29  C   UNL     1     -42.386  57.484 -53.235  1.00  0.00     0.042 A 
HETATM   30  C   UNL     1     -41.777  58.541 -53.933  1.00  0.00     0.030 A 
HETATM   31  C   UNL     1     -42.516  59.643 -54.385  1.00  0.00     0.002 A 
HETATM   32  C   UNL     1     -43.883  59.713 -54.153  1.00  0.00     0.000 A 
HETATM   33  C   UNL     1     -44.513  58.681 -53.474  1.00  0.00     0.002 A 
HETATM   34  C   UNL     1     -43.773  57.581 -53.026  1.00  0.00     0.030 A 
ENDBRANCH   2  29
TORSDOF 6
ENDMDL
MODEL 3
REMARK VINA RESULT:      -8.0      2.848      4.666
REMARK  6 active torsions:
REMARK  status: ('A' for Active; 'I' for Inactive)
REMARK    1  A    between atoms: O_2  and  C_3 
REMARK    2  A    between atoms: C_6  and  C_7 
REMARK    3  A    between atoms: C_7  and  N_8 
REMARK       I    between atoms: N_8  and  C_9 
REMARK    4  A    between atoms: C_9  and  C_10 
REMARK    5  A    between atoms: C_10  and  O_11 
REMARK    6  A    between atoms: N_12  and  C_13 
ROOT
HETATM    1  C   UNL     1     -43.455  58.369 -52.526  1.00  0.00     0.256 C 
HETATM    2  N   UNL     1     -43.887  57.811 -53.821  1.00  0.00    -0.254 N 
HETATM    3  C   UNL     1     -44.866  58.449 -54.571  1.00  0.00     0.330 C 
HETATM    4  O   UNL     1     -45.139  58.211 -55.750  1.00  0.00    -0.246 OA
HETATM    5  N   UNL     1     -45.586  59.438 -53.981  1.00  0.00    -0.308 N 
HETATM    6  C   UNL     1     -45.429  59.902 -52.690  1.00  0.00     0.048 A 
HETATM    7  C   UNL     1     -44.384  59.410 -51.925  1.00  0.00     0.035 A 
HETATM    8  C   UNL     1     -46.309  60.867 -52.192  1.00  0.00     0.031 A 
HETATM    9  C   UNL     1     -46.149  61.351 -50.896  1.00  0.00     0.021 A 
HETATM   10  C   UNL     1     -45.096  60.880 -50.118  1.00  0.00     0.011 A 
HETATM   11 BR   UNL     1     -44.864  61.529 -48.358  1.00  0.00    -0.051 Br
HETATM   12  C   UNL     1     -44.210  59.929 -50.626  1.00  0.00     0.034 A 
HETATM   13  H   UNL     1     -46.310  59.824 -54.573  1.00  0.00     0.170 HD
ENDROOT
BRANCH   1  14
HETATM   14  C   UNL     1     -43.298  57.210 -51.439  1.00  0.00     0.279 C 
HETATM   15  N   UNL     1     -41.993  57.061 -50.988  1.00  0.00    -0.352 N 
HETATM   16  H   UNL     1     -41.270  57.578 -51.479  1.00  0.00     0.162 HD
HETATM   17  O   UNL     1     -44.238  56.558 -50.988  1.00  0.00    -0.268 OA
BRANCH  15  18
HETATM   18  C   UNL     1     -41.626  56.134 -49.949  1.00  0.00     0.161 C 
BRANCH  18  19
HETATM   19  C   UNL     1     -41.136  54.822 -50.500  1.00  0.00    -0.040 A 
HETATM   20  C   UNL     1     -40.982  54.631 -51.879  1.00  0.00     0.011 A 
HETATM   21  C   UNL     1     -40.469  53.427 -52.370  1.00  0.00     0.037 A 
HETATM   22  C   UNL     1     -40.097  52.403 -51.498  1.00  0.00     0.068 A 
HETATM   23  C   UNL     1     -40.291  52.569 -50.128  1.00  0.00     0.037 A 
HETATM   24  C   UNL     1     -40.806  53.771 -49.633  1.00  0.00     0.011 A 
BRANCH  22  25
HETATM   25  O   UNL     1     -39.572  51.291 -52.098  1.00  0.00    -0.356 OA
HETATM   26  C   UNL     1     -39.435  51.356 -53.514  1.00  0.00     0.210 C 
ENDBRANCH  22  25
ENDBRANCH  18  19
ENDBRANCH  15  18
ENDBRANCH   1  14
BRANCH   1  27
HETATM   27  O   UNL     1     -42.228  59.066 -52.761  1.00  0.00    -0.359 OA
HETATM   28  H   UNL     1     -41.678  58.405 -53.216  1.00  0.00     0.213 HD
ENDBRANCH   1  27
BRANCH   2  29
HETATM   29  C   UNL     1     -43.247  56.613 -54.343  1.00  0.00     0.042 A 
HETATM   30  C   UNL     1     -43.881  55.359 -54.348  1.00  0.00     0.030 A 
HETATM   31  C   UNL     1     -43.252  54.222 -54.875  1.00  0.00     0.002 A 
HETATM   32  C   UNL     1     -41.975  54.313 -55.412  1.00  0.00     0.000 A 
HETATM   33  C   UNL     1     -41.328  55.539 -55.428  1.00  0.00     0.002 A 
HETATM   34  C   UNL     1     -41.959  56.673 -54.904  1.00  0.00     0.030 A 
ENDBRANCH   2  29
TORSDOF 6
ENDMDL
MODEL 4
REMARK VINA RESULT:      -7.8      3.313      6.432
REMARK  6 active torsions:
REMARK  status: ('A' for Active; 'I' for Inactive)
REMARK    1  A    between atoms: O_2  and  C_3 
REMARK    2  A    between atoms: C_6  and  C_7 
REMARK    3  A    between atoms: C_7  and  N_8 
REMARK       I    between atoms: N_8  and  C_9 
REMARK    4  A    between atoms: C_9  and  C_10 
REMARK    5  A    between atoms: C_10  and  O_11 
REMARK    6  A    between atoms: N_12  and  C_13 
ROOT
HETATM    1  C   UNL     1     -42.068  57.941 -52.314  1.00  0.00     0.256 C 
HETATM    2  N   UNL     1     -43.282  58.547 -51.735  1.00  0.00    -0.254 N 
HETATM    3  C   UNL     1     -44.317  57.745 -51.273  1.00  0.00     0.330 C 
HETATM    4  O   UNL     1     -45.260  58.119 -50.573  1.00  0.00    -0.246 OA
HETATM    5  N   UNL     1     -44.300  56.425 -51.593  1.00  0.00    -0.308 N 
HETATM    6  C   UNL     1     -43.327  55.775 -52.328  1.00  0.00     0.048 A 
HETATM    7  C   UNL     1     -42.196  56.479 -52.707  1.00  0.00     0.035 A 
HETATM    8  C   UNL     1     -43.494  54.427 -52.653  1.00  0.00     0.031 A 
HETATM    9  C   UNL     1     -42.511  53.761 -53.382  1.00  0.00     0.021 A 
HETATM   10  C   UNL     1     -41.360  54.447 -53.759  1.00  0.00     0.011 A 
HETATM   11 BR   UNL     1     -40.016  53.556 -54.745  1.00  0.00    -0.051 Br
HETATM   12  C   UNL     1     -41.192  55.789 -53.416  1.00  0.00     0.034 A 
HETATM   13  H   UNL     1     -45.108  55.914 -51.261  1.00  0.00     0.170 HD
ENDROOT
BRANCH   1  14
HETATM   14  C   UNL     1     -41.615  58.732 -53.624  1.00  0.00     0.279 C 
HETATM   15  N   UNL     1     -42.460  58.523 -54.706  1.00  0.00    -0.352 N 
HETATM   16  H   UNL     1     -43.169  57.801 -54.608  1.00  0.00     0.162 HD
HETATM   17  O   UNL     1     -40.659  59.505 -53.665  1.00  0.00    -0.268 OA
BRANCH  15  18
HETATM   18  C   UNL     1     -42.296  59.195 -55.968  1.00  0.00     0.161 C 
BRANCH  18  19
HETATM   19  C   UNL     1     -42.478  58.267 -57.139  1.00  0.00    -0.040 A 
HETATM   20  C   UNL     1     -42.830  56.925 -56.947  1.00  0.00     0.011 A 
HETATM   21  C   UNL     1     -43.054  56.092 -58.047  1.00  0.00     0.037 A 
HETATM   22  C   UNL     1     -42.937  56.584 -59.348  1.00  0.00     0.068 A 
HETATM   23  C   UNL     1     -42.541  57.905 -59.546  1.00  0.00     0.037 A 
HETATM   24  C   UNL     1     -42.314  58.741 -58.448  1.00  0.00     0.011 A 
BRANCH  22  25
HETATM   25  O   UNL     1     -43.218  55.681 -60.338  1.00  0.00    -0.356 OA
HETATM   26  C   UNL     1     -44.593  55.548 -60.684  1.00  0.00     0.210 C 
ENDBRANCH  22  25
ENDBRANCH  18  19
ENDBRANCH  15  18
ENDBRANCH   1  14
BRANCH   1  27
HETATM   27  O   UNL     1     -41.066  57.959 -51.293  1.00  0.00    -0.359 OA
HETATM   28  H   UNL     1     -41.171  57.092 -50.861  1.00  0.00     0.213 HD
ENDBRANCH   1  27
BRANCH   2  29
HETATM   29  C   UNL     1     -43.375  59.992 -51.598  1.00  0.00     0.042 A 
HETATM   30  C   UNL     1     -44.145  60.785 -52.465  1.00  0.00     0.030 A 
HETATM   31  C   UNL     1     -44.236  62.175 -52.301  1.00  0.00     0.002 A 
HETATM   32  C   UNL     1     -43.561  62.804 -51.263  1.00  0.00     0.000 A 
HETATM   33  C   UNL     1     -42.799  62.045 -50.387  1.00  0.00     0.002 A 
HETATM   34  C   UNL     1     -42.713  60.658 -50.552  1.00  0.00     0.030 A 
ENDBRANCH   2  29
TORSDOF 6
ENDMDL
MODEL 5
REMARK VINA RESULT:      -7.7      2.139      3.135
REMARK  6 active torsions:
REMARK  status: ('A' for Active; 'I' for Inactive)
REMARK    1  A    between atoms: O_2  and  C_3 
REMARK    2  A    between atoms: C_6  and  C_7 
REMARK    3  A    between atoms: C_7  and  N_8 
REMARK       I    between atoms: N_8  and  C_9 
REMARK    4  A    between atoms: C_9  and  C_10 
REMARK    5  A    between atoms: C_10  and  O_11 
REMARK    6  A    between atoms: N_12  and  C_13 
ROOT
HETATM    1  C   UNL     1     -44.270  57.737 -55.945  1.00  0.00     0.256 C 
HETATM    2  N   UNL     1     -43.596  58.828 -55.217  1.00  0.00    -0.254 N 
HETATM    3  C   UNL     1     -43.727  60.144 -55.641  1.00  0.00     0.330 C 
HETATM    4  O   UNL     1     -43.408  61.144 -54.995  1.00  0.00    -0.246 OA
HETATM    5  N   UNL     1     -44.268  60.374 -56.865  1.00  0.00    -0.308 N 
HETATM    6  C   UNL     1     -44.734  59.416 -57.745  1.00  0.00     0.048 A 
HETATM    7  C   UNL     1     -44.762  58.093 -57.337  1.00  0.00     0.035 A 
HETATM    8  C   UNL     1     -45.182  59.802 -59.011  1.00  0.00     0.031 A 
HETATM    9  C   UNL     1     -45.666  58.844 -59.899  1.00  0.00     0.021 A 
HETATM   10  C   UNL     1     -45.717  57.512 -59.503  1.00  0.00     0.011 A 
HETATM   11 BR   UNL     1     -46.374  56.200 -60.695  1.00  0.00    -0.051 Br
HETATM   12  C   UNL     1     -45.284  57.135 -58.230  1.00  0.00     0.034 A 
HETATM   13  H   UNL     1     -44.289  61.352 -57.125  1.00  0.00     0.170 HD
ENDROOT
BRANCH   1  14
HETATM   14  C   UNL     1     -43.296  56.483 -56.107  1.00  0.00     0.279 C 
HETATM   15  N   UNL     1     -43.718  55.369 -55.393  1.00  0.00    -0.352 N 
HETATM   16  H   UNL     1     -44.491  55.499 -54.746  1.00  0.00     0.162 HD
HETATM   17  O   UNL     1     -42.309  56.470 -56.841  1.00  0.00    -0.268 OA
BRANCH  15  18
HETATM   18  C   UNL     1     -43.042  54.100 -55.453  1.00  0.00     0.161 C 
BRANCH  18  19
HETATM   19  C   UNL     1     -42.197  53.844 -54.233  1.00  0.00    -0.040 A 
HETATM   20  C   UNL     1     -41.123  52.947 -54.275  1.00  0.00     0.011 A 
HETATM   21  C   UNL     1     -40.312  52.767 -53.151  1.00  0.00     0.037 A 
HETATM   22  C   UNL     1     -40.555  53.480 -51.976  1.00  0.00     0.068 A 
HETATM   23  C   UNL     1     -41.651  54.339 -51.913  1.00  0.00     0.037 A 
HETATM   24  C   UNL     1     -42.465  54.520 -53.035  1.00  0.00     0.011 A 
BRANCH  22  25
HETATM   25  O   UNL     1     -39.669  53.245 -50.960  1.00  0.00    -0.356 OA
HETATM   26  C   UNL     1     -39.775  54.106 -49.831  1.00  0.00     0.210 C 
ENDBRANCH  22  25
ENDBRANCH  18  19
ENDBRANCH  15  18
ENDBRANCH   1  14
BRANCH   1  27
HETATM   27  O   UNL     1     -45.455  57.415 -55.210  1.00  0.00    -0.359 OA
HETATM   28  H   UNL     1     -45.651  58.239 -54.729  1.00  0.00     0.213 HD
ENDBRANCH   1  27
BRANCH   2  29
HETATM   29  C   UNL     1     -42.831  58.532 -54.015  1.00  0.00     0.042 A 
HETATM   30  C   UNL     1     -41.426  58.520 -53.998  1.00  0.00     0.030 A 
HETATM   31  C   UNL     1     -40.710  58.252 -52.822  1.00  0.00     0.002 A 
HETATM   32  C   UNL     1     -41.383  57.993 -51.636  1.00  0.00     0.000 A 
HETATM   33  C   UNL     1     -42.770  58.006 -51.621  1.00  0.00     0.002 A 
HETATM   34  C   UNL     1     -43.481  58.277 -52.795  1.00  0.00     0.030 A 
ENDBRANCH   2  29
TORSDOF 6
ENDMDL
MODEL 6
REMARK VINA RESULT:      -7.6      2.983      7.298
REMARK  6 active torsions:
REMARK  status: ('A' for Active; 'I' for Inactive)
REMARK    1  A    between atoms: O_2  and  C_3 
REMARK    2  A    between atoms: C_6  and  C_7 
REMARK    3  A    between atoms: C_7  and  N_8 
REMARK       I    between atoms: N_8  and  C_9 
REMARK    4  A    between atoms: C_9  and  C_10 
REMARK    5  A    between atoms: C_10  and  O_11 
REMARK    6  A    between atoms: N_12  and  C_13 
ROOT
HETATM    1  C   UNL     1     -41.601  56.462 -53.109  1.00  0.00     0.256 C 
HETATM    2  N   UNL     1     -42.279  57.662 -52.583  1.00  0.00    -0.254 N 
HETATM    3  C   UNL     1     -42.207  57.976 -51.232  1.00  0.00     0.330 C 
HETATM    4  O   UNL     1     -42.530  59.051 -50.724  1.00  0.00    -0.246 OA
HETATM    5  N   UNL     1     -41.723  57.036 -50.378  1.00  0.00    -0.308 N 
HETATM    6  C   UNL     1     -41.264  55.779 -50.722  1.00  0.00     0.048 A 
HETATM    7  C   UNL     1     -41.178  55.444 -52.064  1.00  0.00     0.035 A 
HETATM    8  C   UNL     1     -40.880  54.886 -49.718  1.00  0.00     0.031 A 
HETATM    9  C   UNL     1     -40.403  53.622 -50.058  1.00  0.00     0.021 A 
HETATM   10  C   UNL     1     -40.294  53.273 -51.400  1.00  0.00     0.011 A 
HETATM   11 BR   UNL     1     -39.645  51.563 -51.877  1.00  0.00    -0.051 Br
HETATM   12  C   UNL     1     -40.663  54.176 -52.399  1.00  0.00     0.034 A 
HETATM   13  H   UNL     1     -41.743  57.318 -49.407  1.00  0.00     0.170 HD
ENDROOT
BRANCH   1  14
HETATM   14  C   UNL     1     -42.542  55.694 -54.145  1.00  0.00     0.279 C 
HETATM   15  N   UNL     1     -42.101  55.793 -55.458  1.00  0.00    -0.352 N 
HETATM   16  H   UNL     1     -41.339  56.439 -55.644  1.00  0.00     0.162 HD
HETATM   17  O   UNL     1     -43.519  55.022 -53.819  1.00  0.00    -0.268 OA
BRANCH  15  18
HETATM   18  C   UNL     1     -42.744  55.114 -56.552  1.00  0.00     0.161 C 
BRANCH  18  19
HETATM   19  C   UNL     1     -43.120  56.054 -57.667  1.00  0.00    -0.040 A 
HETATM   20  C   UNL     1     -43.142  55.621 -58.998  1.00  0.00     0.011 A 
HETATM   21  C   UNL     1     -43.552  56.490 -60.014  1.00  0.00     0.037 A 
HETATM   22  C   UNL     1     -43.949  57.795 -59.717  1.00  0.00     0.068 A 
HETATM   23  C   UNL     1     -43.884  58.246 -58.400  1.00  0.00     0.037 A 
HETATM   24  C   UNL     1     -43.473  57.380 -57.382  1.00  0.00     0.011 A 
BRANCH  22  25
HETATM   25  O   UNL     1     -44.364  58.534 -60.792  1.00  0.00    -0.356 OA
HETATM   26  C   UNL     1     -44.342  59.947 -60.620  1.00  0.00     0.210 C 
ENDBRANCH  22  25
ENDBRANCH  18  19
ENDBRANCH  15  18
ENDBRANCH   1  14
BRANCH   1  27
HETATM   27  O   UNL     1     -40.378  56.903 -53.706  1.00  0.00    -0.359 OA
HETATM   28  H   UNL     1     -39.808  57.089 -52.939  1.00  0.00     0.213 HD
ENDBRANCH   1  27
BRANCH   2  29
HETATM   29  C   UNL     1     -42.985  58.552 -53.491  1.00  0.00     0.042 A 
HETATM   30  C   UNL     1     -42.320  59.498 -54.291  1.00  0.00     0.030 A 
HETATM   31  C   UNL     1     -43.019  60.332 -55.174  1.00  0.00     0.002 A 
HETATM   32  C   UNL     1     -44.401  60.238 -55.281  1.00  0.00     0.000 A 
HETATM   33  C   UNL     1     -45.083  59.308 -54.511  1.00  0.00     0.002 A 
HETATM   34  C   UNL     1     -44.381  58.475 -53.632  1.00  0.00     0.030 A 
ENDBRANCH   2  29
TORSDOF 6
ENDMDL
MODEL 7
REMARK VINA RESULT:      -7.5      2.926      6.744
REMARK  6 active torsions:
REMARK  status: ('A' for Active; 'I' for Inactive)
REMARK    1  A    between atoms: O_2  and  C_3 
REMARK    2  A    between atoms: C_6  and  C_7 
REMARK    3  A    between atoms: C_7  and  N_8 
REMARK       I    between atoms: N_8  and  C_9 
REMARK    4  A    between atoms: C_9  and  C_10 
REMARK    5  A    between atoms: C_10  and  O_11 
REMARK    6  A    between atoms: N_12  and  C_13 
ROOT
HETATM    1  C   UNL     1     -43.575  57.112 -53.796  1.00  0.00     0.256 C 
HETATM    2  N   UNL     1     -42.571  56.360 -53.020  1.00  0.00    -0.254 N 
HETATM    3  C   UNL     1     -42.354  56.653 -51.680  1.00  0.00     0.330 C 
HETATM    4  O   UNL     1     -41.721  55.956 -50.884  1.00  0.00    -0.246 OA
HETATM    5  N   UNL     1     -42.892  57.794 -51.176  1.00  0.00    -0.308 N 
HETATM    6  C   UNL     1     -43.669  58.704 -51.865  1.00  0.00     0.048 A 
HETATM    7  C   UNL     1     -44.043  58.413 -53.166  1.00  0.00     0.035 A 
HETATM    8  C   UNL     1     -44.077  59.882 -51.232  1.00  0.00     0.031 A 
HETATM    9  C   UNL     1     -44.873  60.798 -51.916  1.00  0.00     0.021 A 
HETATM   10  C   UNL     1     -45.271  60.516 -53.219  1.00  0.00     0.011 A 
HETATM   11 BR   UNL     1     -46.353  61.748 -54.158  1.00  0.00    -0.051 Br
HETATM   12  C   UNL     1     -44.874  59.330 -53.839  1.00  0.00     0.034 A 
HETATM   13  H   UNL     1     -42.654  57.964 -50.207  1.00  0.00     0.170 HD
ENDROOT
BRANCH   1  14
HETATM   14  C   UNL     1     -43.009  57.477 -55.243  1.00  0.00     0.279 C 
HETATM   15  N   UNL     1     -43.680  56.828 -56.271  1.00  0.00    -0.352 N 
HETATM   16  H   UNL     1     -44.340  56.101 -56.008  1.00  0.00     0.162 HD
HETATM   17  O   UNL     1     -42.118  58.301 -55.444  1.00  0.00    -0.268 OA
BRANCH  15  18
HETATM   18  C   UNL     1     -43.397  57.065 -57.662  1.00  0.00     0.161 C 
BRANCH  18  19
HETATM   19  C   UNL     1     -44.623  56.934 -58.526  1.00  0.00    -0.040 A 
HETATM   20  C   UNL     1     -44.640  56.071 -59.627  1.00  0.00     0.011 A 
HETATM   21  C   UNL     1     -45.807  55.916 -60.382  1.00  0.00     0.037 A 
HETATM   22  C   UNL     1     -46.969  56.613 -60.048  1.00  0.00     0.068 A 
HETATM   23  C   UNL     1     -46.945  57.510 -58.981  1.00  0.00     0.037 A 
HETATM   24  C   UNL     1     -45.779  57.668 -58.225  1.00  0.00     0.011 A 
BRANCH  22  25
HETATM   25  O   UNL     1     -48.053  56.347 -60.839  1.00  0.00    -0.356 OA
HETATM   26  C   UNL     1     -47.896  56.633 -62.225  1.00  0.00     0.210 C 
ENDBRANCH  22  25
ENDBRANCH  18  19
ENDBRANCH  15  18
ENDBRANCH   1  14
BRANCH   1  27
HETATM   27  O   UNL     1     -44.749  56.295 -53.860  1.00  0.00    -0.359 OA
HETATM   28  H   UNL     1     -44.564  55.587 -53.219  1.00  0.00     0.213 HD
ENDBRANCH   1  27
BRANCH   2  29
HETATM   29  C   UNL     1     -41.840  55.270 -53.646  1.00  0.00     0.042 A 
HETATM   30  C   UNL     1     -42.336  53.956 -53.693  1.00  0.00     0.030 A 
HETATM   31  C   UNL     1     -41.622  52.925 -54.320  1.00  0.00     0.002 A 
HETATM   32  C   UNL     1     -40.396  53.184 -54.917  1.00  0.00     0.000 A 
HETATM   33  C   UNL     1     -39.884  54.473 -54.893  1.00  0.00     0.002 A 
HETATM   34  C   UNL     1     -40.601  55.501 -54.269  1.00  0.00     0.030 A 
ENDBRANCH   2  29
TORSDOF 6
ENDMDL
MODEL 8
REMARK VINA RESULT:      -7.4      2.149      2.987
REMARK  6 active torsions:
REMARK  status: ('A' for Active; 'I' for Inactive)
REMARK    1  A    between atoms: O_2  and  C_3 
REMARK    2  A    between atoms: C_6  and  C_7 
REMARK    3  A    between atoms: C_7  and  N_8 
REMARK       I    between atoms: N_8  and  C_9 
REMARK    4  A    between atoms: C_9  and  C_10 
REMARK    5  A    between atoms: C_10  and  O_11 
REMARK    6  A    between atoms: N_12  and  C_13 
ROOT
HETATM    1  C   UNL     1     -43.858  58.312 -52.945  1.00  0.00     0.256 C 
HETATM    2  N   UNL     1     -42.812  58.069 -51.934  1.00  0.00    -0.254 N 
HETATM    3  C   UNL     1     -42.101  59.129 -51.387  1.00  0.00     0.330 C 
HETATM    4  O   UNL     1     -41.381  59.074 -50.388  1.00  0.00    -0.246 OA
HETATM    5  N   UNL     1     -42.208  60.347 -51.978  1.00  0.00    -0.308 N 
HETATM    6  C   UNL     1     -42.985  60.657 -53.077  1.00  0.00     0.048 A 
HETATM    7  C   UNL     1     -43.826  59.685 -53.594  1.00  0.00     0.035 A 
HETATM    8  C   UNL     1     -42.922  61.939 -53.628  1.00  0.00     0.031 A 
HETATM    9  C   UNL     1     -43.712  62.263 -54.728  1.00  0.00     0.021 A 
HETATM   10  C   UNL     1     -44.575  61.306 -55.252  1.00  0.00     0.011 A 
HETATM   11 BR   UNL     1     -45.657  61.731 -56.743  1.00  0.00    -0.051 Br
HETATM   12  C   UNL     1     -44.647  60.031 -54.687  1.00  0.00     0.034 A 
HETATM   13  H   UNL     1     -41.627  61.059 -51.553  1.00  0.00     0.170 HD
ENDROOT
BRANCH   1  14
HETATM   14  C   UNL     1     -43.758  57.242 -54.126  1.00  0.00     0.279 C 
HETATM   15  N   UNL     1     -42.474  57.117 -54.640  1.00  0.00    -0.352 N 
HETATM   16  H   UNL     1     -41.783  57.795 -54.331  1.00  0.00     0.162 HD
HETATM   17  O   UNL     1     -44.699  56.545 -54.502  1.00  0.00    -0.268 OA
BRANCH  15  18
HETATM   18  C   UNL     1     -42.129  56.156 -55.655  1.00  0.00     0.161 C 
BRANCH  18  19
HETATM   19  C   UNL     1     -41.586  54.879 -55.071  1.00  0.00    -0.040 A 
HETATM   20  C   UNL     1     -42.445  53.891 -54.575  1.00  0.00     0.011 A 
HETATM   21  C   UNL     1     -41.927  52.685 -54.092  1.00  0.00     0.037 A 
HETATM   22  C   UNL     1     -40.552  52.446 -54.103  1.00  0.00     0.068 A 
HETATM   23  C   UNL     1     -39.689  53.444 -54.552  1.00  0.00     0.037 A 
HETATM   24  C   UNL     1     -40.204  54.652 -55.034  1.00  0.00     0.011 A 
BRANCH  22  25
HETATM   25  O   UNL     1     -40.173  51.216 -53.640  1.00  0.00    -0.356 OA
HETATM   26  C   UNL     1     -39.825  50.258 -54.635  1.00  0.00     0.210 C 
ENDBRANCH  22  25
ENDBRANCH  18  19
ENDBRANCH  15  18
ENDBRANCH   1  14
BRANCH   1  27
HETATM   27  O   UNL     1     -45.116  58.258 -52.266  1.00  0.00    -0.359 OA
HETATM   28  H   UNL     1     -45.645  58.939 -52.719  1.00  0.00     0.213 HD
ENDBRANCH   1  27
BRANCH   2  29
HETATM   29  C   UNL     1     -42.559  56.715 -51.466  1.00  0.00     0.042 A 
HETATM   30  C   UNL     1     -43.566  55.905 -50.916  1.00  0.00     0.030 A 
HETATM   31  C   UNL     1     -43.303  54.595 -50.490  1.00  0.00     0.002 A 
HETATM   32  C   UNL     1     -42.025  54.064 -50.606  1.00  0.00     0.000 A 
HETATM   33  C   UNL     1     -41.012  54.837 -51.153  1.00  0.00     0.002 A 
HETATM   34  C   UNL     1     -41.279  56.144 -51.580  1.00  0.00     0.030 A 
ENDBRANCH   2  29
TORSDOF 6
ENDMDL
MODEL 9
REMARK VINA RESULT:      -7.4     15.570     18.073
REMARK  6 active torsions:
REMARK  status: ('A' for Active; 'I' for Inactive)
REMARK    1  A    between atoms: O_2  and  C_3 
REMARK    2  A    between atoms: C_6  and  C_7 
REMARK    3  A    between atoms: C_7  and  N_8 
REMARK       I    between atoms: N_8  and  C_9 
REMARK    4  A    between atoms: C_9  and  C_10 
REMARK    5  A    between atoms: C_10  and  O_11 
REMARK    6  A    between atoms: N_12  and  C_13 
ROOT
HETATM    1  C   UNL     1     -35.429  41.204 -54.529  1.00  0.00     0.256 C 
HETATM    2  N   UNL     1     -36.838  41.178 -54.963  1.00  0.00    -0.254 N 
HETATM    3  C   UNL     1     -37.863  41.155 -54.027  1.00  0.00     0.330 C 
HETATM    4  O   UNL     1     -39.056  41.360 -54.260  1.00  0.00    -0.246 OA
HETATM    5  N   UNL     1     -37.545  40.903 -52.731  1.00  0.00    -0.308 N 
HETATM    6  C   UNL     1     -36.276  40.685 -52.229  1.00  0.00     0.048 A 
HETATM    7  C   UNL     1     -35.190  40.827 -53.077  1.00  0.00     0.035 A 
HETATM    8  C   UNL     1     -36.116  40.348 -50.882  1.00  0.00     0.031 A 
HETATM    9  C   UNL     1     -34.839  40.140 -50.366  1.00  0.00     0.021 A 
HETATM   10  C   UNL     1     -33.734  40.293 -51.197  1.00  0.00     0.011 A 
HETATM   11 BR   UNL     1     -31.995  40.017 -50.511  1.00  0.00    -0.051 Br
HETATM   12  C   UNL     1     -33.900  40.646 -52.538  1.00  0.00     0.034 A 
HETATM   13  H   UNL     1     -38.347  40.857 -52.115  1.00  0.00     0.170 HD
ENDROOT
BRANCH   1  14
HETATM   14  C   UNL     1     -34.548  40.210 -55.414  1.00  0.00     0.279 C 
HETATM   15  N   UNL     1     -35.089  38.933 -55.499  1.00  0.00    -0.352 N 
HETATM   16  H   UNL     1     -35.878  38.723 -54.895  1.00  0.00     0.162 HD
HETATM   17  O   UNL     1     -33.532  40.546 -56.020  1.00  0.00    -0.268 OA
BRANCH  15  18
HETATM   18  C   UNL     1     -34.511  37.892 -56.308  1.00  0.00     0.161 C 
BRANCH  18  19
HETATM   19  C   UNL     1     -35.247  37.704 -57.608  1.00  0.00    -0.040 A 
HETATM   20  C   UNL     1     -36.290  36.777 -57.718  1.00  0.00     0.011 A 
HETATM   21  C   UNL     1     -37.003  36.658 -58.915  1.00  0.00     0.037 A 
HETATM   22  C   UNL     1     -36.692  37.463 -60.012  1.00  0.00     0.068 A 
HETATM   23  C   UNL     1     -35.624  38.354 -59.924  1.00  0.00     0.037 A 
HETATM   24  C   UNL     1     -34.908  38.474 -58.729  1.00  0.00     0.011 A 
BRANCH  22  25
HETATM   25  O   UNL     1     -37.486  37.278 -61.111  1.00  0.00    -0.356 OA
HETATM   26  C   UNL     1     -37.781  38.448 -61.868  1.00  0.00     0.210 C 
ENDBRANCH  22  25
ENDBRANCH  18  19
ENDBRANCH  15  18
ENDBRANCH   1  14
BRANCH   1  27
HETATM   27  O   UNL     1     -34.987  42.561 -54.631  1.00  0.00    -0.359 OA
HETATM   28  H   UNL     1     -34.664  42.624 -55.547  1.00  0.00     0.213 HD
ENDBRANCH   1  27
BRANCH   2  29
HETATM   29  C   UNL     1     -37.159  41.229 -56.381  1.00  0.00     0.042 A 
HETATM   30  C   UNL     1     -36.652  42.223 -57.236  1.00  0.00     0.030 A 
HETATM   31  C   UNL     1     -36.959  42.241 -58.604  1.00  0.00     0.002 A 
HETATM   32  C   UNL     1     -37.780  41.263 -59.150  1.00  0.00     0.000 A 
HETATM   33  C   UNL     1     -38.289  40.264 -58.332  1.00  0.00     0.002 A 
HETATM   34  C   UNL     1     -37.978  40.248 -56.968  1.00  0.00     0.030 A 
ENDBRANCH   2  29
TORSDOF 6
ENDMDL
MODEL 10
REMARK VINA RESULT:      -7.2     15.754     17.715
REMARK  6 active torsions:
REMARK  status: ('A' for Active; 'I' for Inactive)
REMARK    1  A    between atoms: O_2  and  C_3 
REMARK    2  A    between atoms: C_6  and  C_7 
REMARK    3  A    between atoms: C_7  and  N_8 
REMARK       I    between atoms: N_8  and  C_9 
REMARK    4  A    between atoms: C_9  and  C_10 
REMARK    5  A    between atoms: C_10  and  O_11 
REMARK    6  A    between atoms: N_12  and  C_13 
ROOT
HETATM    1  C   UNL     1     -36.190  39.307 -56.292  1.00  0.00     0.256 C 
HETATM    2  N   UNL     1     -36.961  40.245 -55.456  1.00  0.00    -0.254 N 
HETATM    3  C   UNL     1     -38.087  40.880 -55.964  1.00  0.00     0.330 C 
HETATM    4  O   UNL     1     -38.928  41.494 -55.303  1.00  0.00    -0.246 OA
HETATM    5  N   UNL     1     -38.312  40.816 -57.302  1.00  0.00    -0.308 N 
HETATM    6  C   UNL     1     -37.534  40.153 -58.231  1.00  0.00     0.048 A 
HETATM    7  C   UNL     1     -36.472  39.384 -57.783  1.00  0.00     0.035 A 
HETATM    8  C   UNL     1     -37.844  40.254 -59.589  1.00  0.00     0.031 A 
HETATM    9  C   UNL     1     -37.072  39.576 -60.531  1.00  0.00     0.021 A 
HETATM   10  C   UNL     1     -36.010  38.787 -60.100  1.00  0.00     0.011 A 
HETATM   11 BR   UNL     1     -34.956  37.860 -61.365  1.00  0.00    -0.051 Br
HETATM   12  C   UNL     1     -35.716  38.677 -58.740  1.00  0.00     0.034 A 
HETATM   13  H   UNL     1     -39.124  41.339 -57.604  1.00  0.00     0.170 HD
ENDROOT
BRANCH   1  14
HETATM   14  C   UNL     1     -34.623  39.545 -56.106  1.00  0.00     0.279 C 
HETATM   15  N   UNL     1     -34.042  38.664 -55.203  1.00  0.00    -0.352 N 
HETATM   16  H   UNL     1     -34.668  38.076 -54.660  1.00  0.00     0.162 HD
HETATM   17  O   UNL     1     -33.973  40.372 -56.743  1.00  0.00    -0.268 OA
BRANCH  15  18
HETATM   18  C   UNL     1     -32.628  38.637 -54.936  1.00  0.00     0.161 C 
BRANCH  18  19
HETATM   19  C   UNL     1     -32.308  39.007 -53.513  1.00  0.00    -0.040 A 
HETATM   20  C   UNL     1     -32.104  40.341 -53.143  1.00  0.00     0.011 A 
HETATM   21  C   UNL     1     -31.867  40.673 -51.805  1.00  0.00     0.037 A 
HETATM   22  C   UNL     1     -31.837  39.683 -50.821  1.00  0.00     0.068 A 
HETATM   23  C   UNL     1     -31.992  38.348 -51.190  1.00  0.00     0.037 A 
HETATM   24  C   UNL     1     -32.227  38.013 -52.527  1.00  0.00     0.011 A 
BRANCH  22  25
HETATM   25  O   UNL     1     -31.635  40.138 -49.546  1.00  0.00    -0.356 OA
HETATM   26  C   UNL     1     -32.045  39.262 -48.502  1.00  0.00     0.210 C 
ENDBRANCH  22  25
ENDBRANCH  18  19
ENDBRANCH  15  18
ENDBRANCH   1  14
BRANCH   1  27
HETATM   27  O   UNL     1     -36.590  37.986 -55.914  1.00  0.00    -0.359 OA
HETATM   28  H   UNL     1     -37.028  38.122 -55.055  1.00  0.00     0.213 HD
ENDBRANCH   1  27
BRANCH   2  29
HETATM   29  C   UNL     1     -36.572  40.470 -54.072  1.00  0.00     0.042 A 
HETATM   30  C   UNL     1     -36.806  39.524 -53.059  1.00  0.00     0.030 A 
HETATM   31  C   UNL     1     -36.403  39.753 -51.736  1.00  0.00     0.002 A 
HETATM   32  C   UNL     1     -35.755  40.934 -51.395  1.00  0.00     0.000 A 
HETATM   33  C   UNL     1     -35.504  41.882 -52.375  1.00  0.00     0.002 A 
HETATM   34  C   UNL     1     -35.905  41.648 -53.696  1.00  0.00     0.030 A 
ENDBRANCH   2  29
TORSDOF 6
ENDMDL
