MODEL 1
REMARK VINA RESULT:      -8.8      0.000      0.000
REMARK  6 active torsions:
REMARK  status: ('A' for Active; 'I' for Inactive)
REMARK    1  A    between atoms: C_2  and  N_3 
REMARK       I    between atoms: N_3  and  C_4 
REMARK    2  A    between atoms: C_4  and  C_6 
REMARK    3  A    between atoms: C_10  and  C_11 
REMARK    4  A    between atoms: C_11  and  N_12 
REMARK       I    between atoms: N_12  and  C_13 
REMARK    5  A    between atoms: C_13  and  C_15 
REMARK    6  A    between atoms: C_18  and  C_22 
ROOT
HETATM    1  N   UNL     1     -42.472  57.010 -54.391  1.00  0.00    -0.353 N 
HETATM    2  C   UNL     1     -41.245  56.758 -53.820  1.00  0.00     0.251 C 
HETATM    3  O   UNL     1     -40.422  57.632 -53.570  1.00  0.00    -0.268 OA
HETATM    4  H   UNL     1     -43.082  56.252 -54.654  1.00  0.00     0.163 HD
ENDROOT
BRANCH   1   5
HETATM    5  C   UNL     1     -42.888  58.350 -54.743  1.00  0.00     0.161 C 
BRANCH   5   6
HETATM    6  C   UNL     1     -42.638  58.636 -56.202  1.00  0.00    -0.040 A 
HETATM    7  C   UNL     1     -42.102  59.869 -56.602  1.00  0.00     0.009 A 
HETATM    8  C   UNL     1     -41.822  60.121 -57.945  1.00  0.00     0.002 A 
HETATM    9  C   UNL     1     -42.073  59.144 -58.910  1.00  0.00     0.017 A 
HETATM   10  C   UNL     1     -42.619  57.911 -58.533  1.00  0.00     0.032 A 
HETATM   11  C   UNL     1     -42.892  57.662 -57.179  1.00  0.00     0.026 A 
BRANCH  10  12
HETATM   12  C   UNL     1     -42.881  56.819 -59.515  1.00  0.00     0.251 C 
HETATM   13  N   UNL     1     -43.882  55.923 -59.198  1.00  0.00    -0.357 N 
HETATM   14  H   UNL     1     -44.273  55.920 -58.267  1.00  0.00     0.162 HD
HETATM   15  O   UNL     1     -42.205  56.736 -60.535  1.00  0.00    -0.268 OA
BRANCH  13  16
HETATM   16  C   UNL     1     -44.200  54.806 -60.064  1.00  0.00     0.118 C 
HETATM   17  C   UNL     1     -45.208  55.191 -61.132  1.00  0.00     0.026 C 
ENDBRANCH  13  16
ENDBRANCH  10  12
ENDBRANCH   5   6
ENDBRANCH   1   5
BRANCH   2  18
HETATM   18  C   UNL     1     -40.920  55.334 -53.530  1.00  0.00     0.032 A 
HETATM   19  C   UNL     1     -40.488  54.530 -54.587  1.00  0.00     0.018 A 
HETATM   20  C   UNL     1     -40.162  53.191 -54.363  1.00  0.00     0.014 A 
HETATM   21  C   UNL     1     -40.257  52.633 -53.077  1.00  0.00    -0.017 A 
HETATM   22  C   UNL     1     -40.692  53.437 -52.002  1.00  0.00    -0.050 A 
HETATM   23  C   UNL     1     -40.811  52.911 -50.596  1.00  0.00     0.049 C 
HETATM   24  C   UNL     1     -41.005  54.792 -52.241  1.00  0.00     0.024 A 
BRANCH  21  25
HETATM   25  C   UNL     1     -39.882  51.242 -52.902  1.00  0.00     0.011 A 
HETATM   26  C   UNL     1     -39.804  50.174 -53.823  1.00  0.00     0.152 A 
HETATM   27  N   UNL     1     -39.418  49.030 -53.252  1.00  0.00    -0.187 NA
HETATM   28  N   UNL     1     -39.266  49.360 -51.958  1.00  0.00    -0.289 N 
HETATM   29  H   UNL     1     -38.976  48.635 -51.308  1.00  0.00     0.188 HD
HETATM   30  C   UNL     1     -39.534  50.671 -51.696  1.00  0.00     0.123 A 
ENDBRANCH  21  25
ENDBRANCH   2  18
TORSDOF 6
ENDMDL
MODEL 2
REMARK VINA RESULT:      -8.7      2.159      7.956
REMARK  6 active torsions:
REMARK  status: ('A' for Active; 'I' for Inactive)
REMARK    1  A    between atoms: C_2  and  N_3 
REMARK       I    between atoms: N_3  and  C_4 
REMARK    2  A    between atoms: C_4  and  C_6 
REMARK    3  A    between atoms: C_10  and  C_11 
REMARK    4  A    between atoms: C_11  and  N_12 
REMARK       I    between atoms: N_12  and  C_13 
REMARK    5  A    between atoms: C_13  and  C_15 
REMARK    6  A    between atoms: C_18  and  C_22 
ROOT
HETATM    1  N   UNL     1     -42.223  56.459 -52.868  1.00  0.00    -0.353 N 
HETATM    2  C   UNL     1     -41.646  57.084 -53.951  1.00  0.00     0.251 C 
HETATM    3  O   UNL     1     -40.752  57.916 -53.855  1.00  0.00    -0.268 OA
HETATM    4  H   UNL     1     -43.013  55.843 -52.990  1.00  0.00     0.163 HD
ENDROOT
BRANCH   1   5
HETATM    5  C   UNL     1     -41.806  56.743 -51.512  1.00  0.00     0.161 C 
BRANCH   5   6
HETATM    6  C   UNL     1     -41.271  55.508 -50.833  1.00  0.00    -0.040 A 
HETATM    7  C   UNL     1     -41.278  55.409 -49.434  1.00  0.00     0.009 A 
HETATM    8  C   UNL     1     -40.830  54.250 -48.800  1.00  0.00     0.002 A 
HETATM    9  C   UNL     1     -40.370  53.170 -49.556  1.00  0.00     0.017 A 
HETATM   10  C   UNL     1     -40.345  53.253 -50.954  1.00  0.00     0.032 A 
HETATM   11  C   UNL     1     -40.803  54.421 -51.584  1.00  0.00     0.026 A 
BRANCH  10  12
HETATM   12  C   UNL     1     -39.892  52.122 -51.814  1.00  0.00     0.251 C 
HETATM   13  N   UNL     1     -39.997  52.297 -53.180  1.00  0.00    -0.357 N 
HETATM   14  H   UNL     1     -40.522  53.078 -53.544  1.00  0.00     0.162 HD
HETATM   15  O   UNL     1     -39.473  51.090 -51.300  1.00  0.00    -0.268 OA
BRANCH  13  16
HETATM   16  C   UNL     1     -39.615  51.252 -54.107  1.00  0.00     0.118 C 
HETATM   17  C   UNL     1     -40.758  50.289 -54.372  1.00  0.00     0.026 C 
ENDBRANCH  13  16
ENDBRANCH  10  12
ENDBRANCH   5   6
ENDBRANCH   1   5
BRANCH   2  18
HETATM   18  C   UNL     1     -42.183  56.729 -55.294  1.00  0.00     0.032 A 
HETATM   19  C   UNL     1     -42.469  55.387 -55.554  1.00  0.00     0.018 A 
HETATM   20  C   UNL     1     -42.982  55.006 -56.795  1.00  0.00     0.014 A 
HETATM   21  C   UNL     1     -43.225  55.961 -57.797  1.00  0.00    -0.017 A 
HETATM   22  C   UNL     1     -42.939  57.319 -57.544  1.00  0.00    -0.050 A 
HETATM   23  C   UNL     1     -43.181  58.399 -58.566  1.00  0.00     0.049 C 
HETATM   24  C   UNL     1     -42.433  57.691 -56.281  1.00  0.00     0.024 A 
BRANCH  21  25
HETATM   25  C   UNL     1     -43.782  55.508 -59.058  1.00  0.00     0.011 A 
HETATM   26  C   UNL     1     -43.965  56.174 -60.290  1.00  0.00     0.152 A 
HETATM   27  N   UNL     1     -44.528  55.394 -61.217  1.00  0.00    -0.187 NA
HETATM   28  N   UNL     1     -44.724  54.231 -60.574  1.00  0.00    -0.289 N 
HETATM   29  H   UNL     1     -45.157  53.467 -61.083  1.00  0.00     0.188 HD
HETATM   30  C   UNL     1     -44.298  54.248 -59.278  1.00  0.00     0.123 A 
ENDBRANCH  21  25
ENDBRANCH   2  18
TORSDOF 6
ENDMDL
MODEL 3
REMARK VINA RESULT:      -8.6      2.258      3.230
REMARK  6 active torsions:
REMARK  status: ('A' for Active; 'I' for Inactive)
REMARK    1  A    between atoms: C_2  and  N_3 
REMARK       I    between atoms: N_3  and  C_4 
REMARK    2  A    between atoms: C_4  and  C_6 
REMARK    3  A    between atoms: C_10  and  C_11 
REMARK    4  A    between atoms: C_11  and  N_12 
REMARK       I    between atoms: N_12  and  C_13 
REMARK    5  A    between atoms: C_13  and  C_15 
REMARK    6  A    between atoms: C_18  and  C_22 
ROOT
HETATM    1  N   UNL     1     -42.160  55.949 -56.572  1.00  0.00    -0.353 N 
HETATM    2  C   UNL     1     -41.741  56.121 -55.272  1.00  0.00     0.251 C 
HETATM    3  O   UNL     1     -41.678  57.213 -54.720  1.00  0.00    -0.268 OA
HETATM    4  H   UNL     1     -42.116  55.042 -57.011  1.00  0.00     0.163 HD
ENDROOT
BRANCH   1   5
HETATM    5  C   UNL     1     -42.566  57.066 -57.397  1.00  0.00     0.161 C 
BRANCH   5   6
HETATM    6  C   UNL     1     -43.533  56.633 -58.469  1.00  0.00    -0.040 A 
HETATM    7  C   UNL     1     -43.444  55.350 -59.029  1.00  0.00     0.009 A 
HETATM    8  C   UNL     1     -44.365  54.925 -59.987  1.00  0.00     0.002 A 
HETATM    9  C   UNL     1     -45.392  55.777 -60.398  1.00  0.00     0.017 A 
HETATM   10  C   UNL     1     -45.492  57.065 -59.860  1.00  0.00     0.032 A 
HETATM   11  C   UNL     1     -44.565  57.483 -58.892  1.00  0.00     0.026 A 
BRANCH  10  12
HETATM   12  C   UNL     1     -46.584  58.008 -60.239  1.00  0.00     0.251 C 
HETATM   13  N   UNL     1     -47.294  57.710 -61.385  1.00  0.00    -0.357 N 
HETATM   14  H   UNL     1     -46.954  56.994 -62.011  1.00  0.00     0.162 HD
HETATM   15  O   UNL     1     -46.801  59.003 -59.555  1.00  0.00    -0.268 OA
BRANCH  13  16
HETATM   16  C   UNL     1     -48.355  58.573 -61.863  1.00  0.00     0.118 C 
HETATM   17  C   UNL     1     -49.328  57.827 -62.757  1.00  0.00     0.026 C 
ENDBRANCH  13  16
ENDBRANCH  10  12
ENDBRANCH   5   6
ENDBRANCH   1   5
BRANCH   2  18
HETATM   18  C   UNL     1     -41.319  54.897 -54.536  1.00  0.00     0.032 A 
HETATM   19  C   UNL     1     -40.637  53.906 -55.244  1.00  0.00     0.018 A 
HETATM   20  C   UNL     1     -40.213  52.744 -54.596  1.00  0.00     0.014 A 
HETATM   21  C   UNL     1     -40.459  52.555 -53.226  1.00  0.00    -0.017 A 
HETATM   22  C   UNL     1     -41.148  53.551 -52.501  1.00  0.00    -0.050 A 
HETATM   23  C   UNL     1     -41.441  53.421 -51.030  1.00  0.00     0.049 C 
HETATM   24  C   UNL     1     -41.558  54.725 -53.166  1.00  0.00     0.024 A 
BRANCH  21  25
HETATM   25  C   UNL     1     -39.973  51.338 -52.602  1.00  0.00     0.011 A 
HETATM   26  C   UNL     1     -39.518  51.081 -51.289  1.00  0.00     0.152 A 
HETATM   27  N   UNL     1     -39.146  49.810 -51.115  1.00  0.00    -0.187 NA
HETATM   28  N   UNL     1     -39.345  49.255 -52.322  1.00  0.00    -0.289 N 
HETATM   29  H   UNL     1     -39.121  48.271 -52.442  1.00  0.00     0.188 HD
HETATM   30  C   UNL     1     -39.836  50.128 -53.248  1.00  0.00     0.123 A 
ENDBRANCH  21  25
ENDBRANCH   2  18
TORSDOF 6
ENDMDL
MODEL 4
REMARK VINA RESULT:      -8.1      2.916      8.540
REMARK  6 active torsions:
REMARK  status: ('A' for Active; 'I' for Inactive)
REMARK    1  A    between atoms: C_2  and  N_3 
REMARK       I    between atoms: N_3  and  C_4 
REMARK    2  A    between atoms: C_4  and  C_6 
REMARK    3  A    between atoms: C_10  and  C_11 
REMARK    4  A    between atoms: C_11  and  N_12 
REMARK       I    between atoms: N_12  and  C_13 
REMARK    5  A    between atoms: C_13  and  C_15 
REMARK    6  A    between atoms: C_18  and  C_22 
ROOT
HETATM    1  N   UNL     1     -43.803  55.478 -52.182  1.00  0.00    -0.353 N 
HETATM    2  C   UNL     1     -43.780  56.800 -52.566  1.00  0.00     0.251 C 
HETATM    3  O   UNL     1     -43.634  57.731 -51.783  1.00  0.00    -0.268 OA
HETATM    4  H   UNL     1     -44.009  54.752 -52.851  1.00  0.00     0.163 HD
ENDROOT
BRANCH   1   5
HETATM    5  C   UNL     1     -43.651  55.084 -50.799  1.00  0.00     0.161 C 
BRANCH   5   6
HETATM    6  C   UNL     1     -42.252  54.600 -50.516  1.00  0.00    -0.040 A 
HETATM    7  C   UNL     1     -41.514  55.143 -49.454  1.00  0.00     0.009 A 
HETATM    8  C   UNL     1     -40.238  54.666 -49.156  1.00  0.00     0.002 A 
HETATM    9  C   UNL     1     -39.679  53.637 -49.916  1.00  0.00     0.017 A 
HETATM   10  C   UNL     1     -40.394  53.089 -50.988  1.00  0.00     0.032 A 
HETATM   11  C   UNL     1     -41.680  53.570 -51.277  1.00  0.00     0.026 A 
BRANCH  10  12
HETATM   12  C   UNL     1     -39.860  51.968 -51.816  1.00  0.00     0.251 C 
HETATM   13  N   UNL     1     -39.917  52.125 -53.186  1.00  0.00    -0.357 N 
HETATM   14  H   UNL     1     -40.459  52.880 -53.581  1.00  0.00     0.162 HD
HETATM   15  O   UNL     1     -39.420  50.961 -51.273  1.00  0.00    -0.268 OA
BRANCH  13  16
HETATM   16  C   UNL     1     -39.455  51.087 -54.085  1.00  0.00     0.118 C 
HETATM   17  C   UNL     1     -40.547  50.077 -54.389  1.00  0.00     0.026 C 
ENDBRANCH  13  16
ENDBRANCH  10  12
ENDBRANCH   5   6
ENDBRANCH   1   5
BRANCH   2  18
HETATM   18  C   UNL     1     -43.976  57.081 -54.016  1.00  0.00     0.032 A 
HETATM   19  C   UNL     1     -44.796  58.153 -54.373  1.00  0.00     0.018 A 
HETATM   20  C   UNL     1     -45.003  58.462 -55.719  1.00  0.00     0.014 A 
HETATM   21  C   UNL     1     -44.390  57.706 -56.732  1.00  0.00    -0.017 A 
HETATM   22  C   UNL     1     -43.560  56.620 -56.382  1.00  0.00    -0.050 A 
HETATM   23  C   UNL     1     -42.864  55.770 -57.412  1.00  0.00     0.049 C 
HETATM   24  C   UNL     1     -43.349  56.328 -55.018  1.00  0.00     0.024 A 
BRANCH  21  25
HETATM   25  C   UNL     1     -44.623  58.089 -58.113  1.00  0.00     0.011 A 
HETATM   26  C   UNL     1     -45.612  57.686 -59.038  1.00  0.00     0.152 A 
HETATM   27  N   UNL     1     -45.473  58.277 -60.228  1.00  0.00    -0.187 NA
HETATM   28  N   UNL     1     -44.382  59.046 -60.072  1.00  0.00    -0.289 N 
HETATM   29  H   UNL     1     -44.067  59.599 -60.863  1.00  0.00     0.188 HD
HETATM   30  C   UNL     1     -43.834  58.967 -58.825  1.00  0.00     0.123 A 
ENDBRANCH  21  25
ENDBRANCH   2  18
TORSDOF 6
ENDMDL
MODEL 5
REMARK VINA RESULT:      -8.1      2.664      3.810
REMARK  6 active torsions:
REMARK  status: ('A' for Active; 'I' for Inactive)
REMARK    1  A    between atoms: C_2  and  N_3 
REMARK       I    between atoms: N_3  and  C_4 
REMARK    2  A    between atoms: C_4  and  C_6 
REMARK    3  A    between atoms: C_10  and  C_11 
REMARK    4  A    between atoms: C_11  and  N_12 
REMARK       I    between atoms: N_12  and  C_13 
REMARK    5  A    between atoms: C_13  and  C_15 
REMARK    6  A    between atoms: C_18  and  C_22 
ROOT
HETATM    1  N   UNL     1     -42.241  56.408 -57.380  1.00  0.00    -0.353 N 
HETATM    2  C   UNL     1     -42.809  56.408 -56.126  1.00  0.00     0.251 C 
HETATM    3  O   UNL     1     -43.701  57.177 -55.787  1.00  0.00    -0.268 OA
HETATM    4  H   UNL     1     -41.453  55.813 -57.588  1.00  0.00     0.163 HD
ENDROOT
BRANCH   1   5
HETATM    5  C   UNL     1     -42.664  57.332 -58.409  1.00  0.00     0.161 C 
BRANCH   5   6
HETATM    6  C   UNL     1     -43.754  56.739 -59.266  1.00  0.00    -0.040 A 
HETATM    7  C   UNL     1     -43.682  55.400 -59.678  1.00  0.00     0.009 A 
HETATM    8  C   UNL     1     -44.711  54.831 -60.429  1.00  0.00     0.002 A 
HETATM    9  C   UNL     1     -45.829  55.591 -60.778  1.00  0.00     0.017 A 
HETATM   10  C   UNL     1     -45.914  56.932 -60.386  1.00  0.00     0.032 A 
HETATM   11  C   UNL     1     -44.878  57.496 -59.625  1.00  0.00     0.026 A 
BRANCH  10  12
HETATM   12  C   UNL     1     -47.096  57.785 -60.704  1.00  0.00     0.251 C 
HETATM   13  N   UNL     1     -47.757  57.517 -61.886  1.00  0.00    -0.357 N 
HETATM   14  H   UNL     1     -47.336  56.899 -62.564  1.00  0.00     0.162 HD
HETATM   15  O   UNL     1     -47.425  58.687 -59.941  1.00  0.00    -0.268 OA
BRANCH  13  16
HETATM   16  C   UNL     1     -48.899  58.302 -62.308  1.00  0.00     0.118 C 
HETATM   17  C   UNL     1     -48.504  59.383 -63.298  1.00  0.00     0.026 C 
ENDBRANCH  13  16
ENDBRANCH  10  12
ENDBRANCH   5   6
ENDBRANCH   1   5
BRANCH   2  18
HETATM   18  C   UNL     1     -42.267  55.428 -55.145  1.00  0.00     0.032 A 
HETATM   19  C   UNL     1     -41.050  54.809 -55.437  1.00  0.00     0.018 A 
HETATM   20  C   UNL     1     -40.496  53.890 -54.543  1.00  0.00     0.014 A 
HETATM   21  C   UNL     1     -41.147  53.578 -53.338  1.00  0.00    -0.017 A 
HETATM   22  C   UNL     1     -42.377  54.198 -53.033  1.00  0.00    -0.050 A 
HETATM   23  C   UNL     1     -43.127  53.919 -51.758  1.00  0.00     0.049 C 
HETATM   24  C   UNL     1     -42.918  55.134 -53.939  1.00  0.00     0.024 A 
BRANCH  21  25
HETATM   25  C   UNL     1     -40.511  52.634 -52.438  1.00  0.00     0.011 A 
HETATM   26  C   UNL     1     -39.815  51.430 -52.689  1.00  0.00     0.152 A 
HETATM   27  N   UNL     1     -39.382  50.844 -51.569  1.00  0.00    -0.187 NA
HETATM   28  N   UNL     1     -39.817  51.663 -50.597  1.00  0.00    -0.289 N 
HETATM   29  H   UNL     1     -39.611  51.417 -49.633  1.00  0.00     0.188 HD
HETATM   30  C   UNL     1     -40.501  52.747 -51.064  1.00  0.00     0.123 A 
ENDBRANCH  21  25
ENDBRANCH   2  18
TORSDOF 6
ENDMDL
MODEL 6
REMARK VINA RESULT:      -8.0     14.748     17.724
REMARK  6 active torsions:
REMARK  status: ('A' for Active; 'I' for Inactive)
REMARK    1  A    between atoms: C_2  and  N_3 
REMARK       I    between atoms: N_3  and  C_4 
REMARK    2  A    between atoms: C_4  and  C_6 
REMARK    3  A    between atoms: C_10  and  C_11 
REMARK    4  A    between atoms: C_11  and  N_12 
REMARK       I    between atoms: N_12  and  C_13 
REMARK    5  A    between atoms: C_13  and  C_15 
REMARK    6  A    between atoms: C_18  and  C_22 
ROOT
HETATM    1  N   UNL     1     -34.132  41.120 -52.632  1.00  0.00    -0.353 N 
HETATM    2  C   UNL     1     -35.009  42.065 -53.114  1.00  0.00     0.251 C 
HETATM    3  O   UNL     1     -35.390  43.030 -52.463  1.00  0.00    -0.268 OA
HETATM    4  H   UNL     1     -33.911  40.298 -53.174  1.00  0.00     0.163 HD
ENDROOT
BRANCH   1   5
HETATM    5  C   UNL     1     -33.584  41.199 -51.296  1.00  0.00     0.161 C 
BRANCH   5   6
HETATM    6  C   UNL     1     -34.088  40.073 -50.429  1.00  0.00    -0.040 A 
HETATM    7  C   UNL     1     -33.186  39.265 -49.721  1.00  0.00     0.009 A 
HETATM    8  C   UNL     1     -33.647  38.253 -48.879  1.00  0.00     0.002 A 
HETATM    9  C   UNL     1     -35.018  38.035 -48.729  1.00  0.00     0.017 A 
HETATM   10  C   UNL     1     -35.934  38.824 -49.435  1.00  0.00     0.032 A 
HETATM   11  C   UNL     1     -35.463  39.844 -50.276  1.00  0.00     0.026 A 
BRANCH  10  12
HETATM   12  C   UNL     1     -37.410  38.657 -49.293  1.00  0.00     0.251 C 
HETATM   13  N   UNL     1     -38.085  38.133 -50.377  1.00  0.00    -0.357 N 
HETATM   14  H   UNL     1     -37.614  38.050 -51.266  1.00  0.00     0.162 HD
HETATM   15  O   UNL     1     -37.968  39.000 -48.256  1.00  0.00    -0.268 OA
BRANCH  13  16
HETATM   16  C   UNL     1     -39.523  37.957 -50.359  1.00  0.00     0.118 C 
HETATM   17  C   UNL     1     -40.236  39.069 -51.106  1.00  0.00     0.026 C 
ENDBRANCH  13  16
ENDBRANCH  10  12
ENDBRANCH   5   6
ENDBRANCH   1   5
BRANCH   2  18
HETATM   18  C   UNL     1     -35.526  41.856 -54.495  1.00  0.00     0.032 A 
HETATM   19  C   UNL     1     -34.638  42.017 -55.561  1.00  0.00     0.018 A 
HETATM   20  C   UNL     1     -35.074  41.823 -56.874  1.00  0.00     0.014 A 
HETATM   21  C   UNL     1     -36.403  41.459 -57.144  1.00  0.00    -0.017 A 
HETATM   22  C   UNL     1     -37.308  41.295 -56.074  1.00  0.00    -0.050 A 
HETATM   23  C   UNL     1     -38.746  40.899 -56.286  1.00  0.00     0.049 C 
HETATM   24  C   UNL     1     -36.851  41.481 -54.753  1.00  0.00     0.024 A 
BRANCH  21  25
HETATM   25  C   UNL     1     -36.791  41.248 -58.526  1.00  0.00     0.011 A 
HETATM   26  C   UNL     1     -36.871  40.071 -59.303  1.00  0.00     0.152 A 
HETATM   27  N   UNL     1     -37.270  40.309 -60.556  1.00  0.00    -0.187 NA
HETATM   28  N   UNL     1     -37.430  41.643 -60.588  1.00  0.00    -0.289 N 
HETATM   29  H   UNL     1     -37.730  42.070 -61.459  1.00  0.00     0.188 HD
HETATM   30  C   UNL     1     -37.153  42.252 -59.399  1.00  0.00     0.123 A 
ENDBRANCH  21  25
ENDBRANCH   2  18
TORSDOF 6
ENDMDL
MODEL 7
REMARK VINA RESULT:      -8.0     14.827     18.649
REMARK  6 active torsions:
REMARK  status: ('A' for Active; 'I' for Inactive)
REMARK    1  A    between atoms: C_2  and  N_3 
REMARK       I    between atoms: N_3  and  C_4 
REMARK    2  A    between atoms: C_4  and  C_6 
REMARK    3  A    between atoms: C_10  and  C_11 
REMARK    4  A    between atoms: C_11  and  N_12 
REMARK       I    between atoms: N_12  and  C_13 
REMARK    5  A    between atoms: C_13  and  C_15 
REMARK    6  A    between atoms: C_18  and  C_22 
ROOT
HETATM    1  N   UNL     1     -36.054  40.483 -53.247  1.00  0.00    -0.353 N 
HETATM    2  C   UNL     1     -36.196  41.447 -54.220  1.00  0.00     0.251 C 
HETATM    3  O   UNL     1     -36.070  42.647 -54.008  1.00  0.00    -0.268 OA
HETATM    4  H   UNL     1     -36.249  39.515 -53.449  1.00  0.00     0.163 HD
ENDROOT
BRANCH   1   5
HETATM    5  C   UNL     1     -35.739  40.824 -51.877  1.00  0.00     0.161 C 
BRANCH   5   6
HETATM    6  C   UNL     1     -34.298  40.518 -51.553  1.00  0.00    -0.040 A 
HETATM    7  C   UNL     1     -33.302  40.681 -52.527  1.00  0.00     0.009 A 
HETATM    8  C   UNL     1     -31.962  40.446 -52.220  1.00  0.00     0.002 A 
HETATM    9  C   UNL     1     -31.596  40.046 -50.934  1.00  0.00     0.017 A 
HETATM   10  C   UNL     1     -32.577  39.867 -49.950  1.00  0.00     0.032 A 
HETATM   11  C   UNL     1     -33.923  40.111 -50.265  1.00  0.00     0.026 A 
BRANCH  10  12
HETATM   12  C   UNL     1     -32.243  39.470 -48.551  1.00  0.00     0.251 C 
HETATM   13  N   UNL     1     -31.094  40.009 -48.008  1.00  0.00    -0.357 N 
HETATM   14  H   UNL     1     -30.440  40.493 -48.605  1.00  0.00     0.162 HD
HETATM   15  O   UNL     1     -32.965  38.682 -47.949  1.00  0.00    -0.268 OA
BRANCH  13  16
HETATM   16  C   UNL     1     -30.659  39.668 -46.669  1.00  0.00     0.118 C 
HETATM   17  C   UNL     1     -29.884  40.801 -46.023  1.00  0.00     0.026 C 
ENDBRANCH  13  16
ENDBRANCH  10  12
ENDBRANCH   5   6
ENDBRANCH   1   5
BRANCH   2  18
HETATM   18  C   UNL     1     -36.551  40.972 -55.586  1.00  0.00     0.032 A 
HETATM   19  C   UNL     1     -36.777  39.606 -55.770  1.00  0.00     0.018 A 
HETATM   20  C   UNL     1     -37.122  39.114 -57.030  1.00  0.00     0.014 A 
HETATM   21  C   UNL     1     -37.253  39.980 -58.129  1.00  0.00    -0.017 A 
HETATM   22  C   UNL     1     -37.027  41.362 -57.954  1.00  0.00    -0.050 A 
HETATM   23  C   UNL     1     -37.157  42.351 -59.082  1.00  0.00     0.049 C 
HETATM   24  C   UNL     1     -36.692  41.846 -56.672  1.00  0.00     0.024 A 
BRANCH  21  25
HETATM   25  C   UNL     1     -37.637  39.414 -59.409  1.00  0.00     0.011 A 
HETATM   26  C   UNL     1     -38.876  38.922 -59.876  1.00  0.00     0.152 A 
HETATM   27  N   UNL     1     -38.809  38.473 -61.133  1.00  0.00    -0.187 NA
HETATM   28  N   UNL     1     -37.521  38.660 -61.466  1.00  0.00    -0.289 N 
HETATM   29  H   UNL     1     -37.219  38.382 -62.395  1.00  0.00     0.188 HD
HETATM   30  C   UNL     1     -36.776  39.218 -60.468  1.00  0.00     0.123 A 
ENDBRANCH  21  25
ENDBRANCH   2  18
TORSDOF 6
ENDMDL
MODEL 8
REMARK VINA RESULT:      -8.0     14.818     18.808
REMARK  6 active torsions:
REMARK  status: ('A' for Active; 'I' for Inactive)
REMARK    1  A    between atoms: C_2  and  N_3 
REMARK       I    between atoms: N_3  and  C_4 
REMARK    2  A    between atoms: C_4  and  C_6 
REMARK    3  A    between atoms: C_10  and  C_11 
REMARK    4  A    between atoms: C_11  and  N_12 
REMARK       I    between atoms: N_12  and  C_13 
REMARK    5  A    between atoms: C_13  and  C_15 
REMARK    6  A    between atoms: C_18  and  C_22 
ROOT
HETATM    1  N   UNL     1     -34.200  41.472 -52.831  1.00  0.00    -0.353 N 
HETATM    2  C   UNL     1     -35.382  42.053 -53.234  1.00  0.00     0.251 C 
HETATM    3  O   UNL     1     -36.088  42.732 -52.498  1.00  0.00    -0.268 OA
HETATM    4  H   UNL     1     -33.694  40.854 -53.447  1.00  0.00     0.163 HD
ENDROOT
BRANCH   1   5
HETATM    5  C   UNL     1     -33.696  41.625 -51.484  1.00  0.00     0.161 C 
BRANCH   5   6
HETATM    6  C   UNL     1     -33.390  40.288 -50.858  1.00  0.00    -0.040 A 
HETATM    7  C   UNL     1     -33.754  39.100 -51.509  1.00  0.00     0.009 A 
HETATM    8  C   UNL     1     -33.430  37.859 -50.959  1.00  0.00     0.002 A 
HETATM    9  C   UNL     1     -32.735  37.788 -49.750  1.00  0.00     0.017 A 
HETATM   10  C   UNL     1     -32.373  38.962 -49.079  1.00  0.00     0.032 A 
HETATM   11  C   UNL     1     -32.697  40.207 -49.642  1.00  0.00     0.026 A 
BRANCH  10  12
HETATM   12  C   UNL     1     -31.604  38.948 -47.800  1.00  0.00     0.251 C 
HETATM   13  N   UNL     1     -30.888  40.087 -47.492  1.00  0.00    -0.357 N 
HETATM   14  H   UNL     1     -30.759  40.801 -48.194  1.00  0.00     0.162 HD
HETATM   15  O   UNL     1     -31.612  37.948 -47.092  1.00  0.00    -0.268 OA
BRANCH  13  16
HETATM   16  C   UNL     1     -30.082  40.171 -46.291  1.00  0.00     0.118 C 
HETATM   17  C   UNL     1     -28.627  39.834 -46.564  1.00  0.00     0.026 C 
ENDBRANCH  13  16
ENDBRANCH  10  12
ENDBRANCH   5   6
ENDBRANCH   1   5
BRANCH   2  18
HETATM   18  C   UNL     1     -35.809  41.798 -54.638  1.00  0.00     0.032 A 
HETATM   19  C   UNL     1     -34.856  41.928 -55.650  1.00  0.00     0.018 A 
HETATM   20  C   UNL     1     -35.207  41.690 -56.980  1.00  0.00     0.014 A 
HETATM   21  C   UNL     1     -36.516  41.311 -57.322  1.00  0.00    -0.017 A 
HETATM   22  C   UNL     1     -37.486  41.176 -56.307  1.00  0.00    -0.050 A 
HETATM   23  C   UNL     1     -38.906  40.766 -56.596  1.00  0.00     0.049 C 
HETATM   24  C   UNL     1     -37.115  41.407 -54.966  1.00  0.00     0.024 A 
BRANCH  21  25
HETATM   25  C   UNL     1     -36.814  41.053 -58.719  1.00  0.00     0.011 A 
HETATM   26  C   UNL     1     -36.750  39.867 -59.483  1.00  0.00     0.152 A 
HETATM   27  N   UNL     1     -37.107  40.056 -60.756  1.00  0.00    -0.187 NA
HETATM   28  N   UNL     1     -37.383  41.370 -60.814  1.00  0.00    -0.289 N 
HETATM   29  H   UNL     1     -37.677  41.761 -61.704  1.00  0.00     0.188 HD
HETATM   30  C   UNL     1     -37.221  42.013 -59.622  1.00  0.00     0.123 A 
ENDBRANCH  21  25
ENDBRANCH   2  18
TORSDOF 6
ENDMDL
MODEL 9
REMARK VINA RESULT:      -8.0      2.158      3.187
REMARK  6 active torsions:
REMARK  status: ('A' for Active; 'I' for Inactive)
REMARK    1  A    between atoms: C_2  and  N_3 
REMARK       I    between atoms: N_3  and  C_4 
REMARK    2  A    between atoms: C_4  and  C_6 
REMARK    3  A    between atoms: C_10  and  C_11 
REMARK    4  A    between atoms: C_11  and  N_12 
REMARK       I    between atoms: N_12  and  C_13 
REMARK    5  A    between atoms: C_13  and  C_15 
REMARK    6  A    between atoms: C_18  and  C_22 
ROOT
HETATM    1  N   UNL     1     -43.113  57.248 -52.067  1.00  0.00    -0.353 N 
HETATM    2  C   UNL     1     -41.883  56.838 -51.602  1.00  0.00     0.251 C 
HETATM    3  O   UNL     1     -41.173  57.521 -50.872  1.00  0.00    -0.268 OA
HETATM    4  H   UNL     1     -43.624  56.688 -52.732  1.00  0.00     0.163 HD
ENDROOT
BRANCH   1   5
HETATM    5  C   UNL     1     -43.668  58.537 -51.720  1.00  0.00     0.161 C 
BRANCH   5   6
HETATM    6  C   UNL     1     -44.308  59.198 -52.914  1.00  0.00    -0.040 A 
HETATM    7  C   UNL     1     -45.149  60.309 -52.744  1.00  0.00     0.009 A 
HETATM    8  C   UNL     1     -45.705  60.955 -53.849  1.00  0.00     0.002 A 
HETATM    9  C   UNL     1     -45.427  60.503 -55.140  1.00  0.00     0.017 A 
HETATM   10  C   UNL     1     -44.600  59.390 -55.330  1.00  0.00     0.032 A 
HETATM   11  C   UNL     1     -44.039  58.748 -54.214  1.00  0.00     0.026 A 
BRANCH  10  12
HETATM   12  C   UNL     1     -44.244  58.879 -56.686  1.00  0.00     0.251 C 
HETATM   13  N   UNL     1     -44.613  57.582 -56.980  1.00  0.00    -0.357 N 
HETATM   14  H   UNL     1     -44.937  56.975 -56.240  1.00  0.00     0.162 HD
HETATM   15  O   UNL     1     -43.634  59.598 -57.470  1.00  0.00    -0.268 OA
BRANCH  13  16
HETATM   16  C   UNL     1     -44.291  56.975 -58.255  1.00  0.00     0.118 C 
HETATM   17  C   UNL     1     -43.109  56.028 -58.146  1.00  0.00     0.026 C 
ENDBRANCH  13  16
ENDBRANCH  10  12
ENDBRANCH   5   6
ENDBRANCH   1   5
BRANCH   2  18
HETATM   18  C   UNL     1     -41.406  55.502 -52.055  1.00  0.00     0.032 A 
HETATM   19  C   UNL     1     -41.361  54.468 -51.117  1.00  0.00     0.018 A 
HETATM   20  C   UNL     1     -40.930  53.195 -51.495  1.00  0.00     0.014 A 
HETATM   21  C   UNL     1     -40.543  52.931 -52.819  1.00  0.00    -0.017 A 
HETATM   22  C   UNL     1     -40.585  53.969 -53.774  1.00  0.00    -0.050 A 
HETATM   23  C   UNL     1     -40.192  53.759 -55.213  1.00  0.00     0.049 C 
HETATM   24  C   UNL     1     -41.035  55.246 -53.381  1.00  0.00     0.024 A 
BRANCH  21  25
HETATM   25  C   UNL     1     -40.127  51.582 -53.158  1.00  0.00     0.011 A 
HETATM   26  C   UNL     1     -40.244  50.844 -54.357  1.00  0.00     0.152 A 
HETATM   27  N   UNL     1     -39.733  49.614 -54.254  1.00  0.00    -0.187 NA
HETATM   28  N   UNL     1     -39.305  49.556 -52.982  1.00  0.00    -0.289 N 
HETATM   29  H   UNL     1     -38.875  48.695 -52.658  1.00  0.00     0.188 HD
HETATM   30  C   UNL     1     -39.520  50.707 -52.282  1.00  0.00     0.123 A 
ENDBRANCH  21  25
ENDBRANCH   2  18
TORSDOF 6
ENDMDL
MODEL 10
REMARK VINA RESULT:      -7.9      2.545      8.714
REMARK  6 active torsions:
REMARK  status: ('A' for Active; 'I' for Inactive)
REMARK    1  A    between atoms: C_2  and  N_3 
REMARK       I    between atoms: N_3  and  C_4 
REMARK    2  A    between atoms: C_4  and  C_6 
REMARK    3  A    between atoms: C_10  and  C_11 
REMARK    4  A    between atoms: C_11  and  N_12 
REMARK       I    between atoms: N_12  and  C_13 
REMARK    5  A    between atoms: C_13  and  C_15 
REMARK    6  A    between atoms: C_18  and  C_22 
ROOT
HETATM    1  N   UNL     1     -43.856  57.533 -54.121  1.00  0.00    -0.353 N 
HETATM    2  C   UNL     1     -43.288  57.962 -55.300  1.00  0.00     0.251 C 
HETATM    3  O   UNL     1     -42.184  58.489 -55.367  1.00  0.00    -0.268 OA
HETATM    4  H   UNL     1     -44.801  57.181 -54.104  1.00  0.00     0.163 HD
ENDROOT
BRANCH   1   5
HETATM    5  C   UNL     1     -43.177  57.674 -52.852  1.00  0.00     0.161 C 
BRANCH   5   6
HETATM    6  C   UNL     1     -42.746  56.335 -52.308  1.00  0.00    -0.040 A 
HETATM    7  C   UNL     1     -43.251  55.871 -51.085  1.00  0.00     0.009 A 
HETATM    8  C   UNL     1     -42.895  54.612 -50.600  1.00  0.00     0.002 A 
HETATM    9  C   UNL     1     -42.030  53.796 -51.332  1.00  0.00     0.017 A 
HETATM   10  C   UNL     1     -41.507  54.246 -52.550  1.00  0.00     0.032 A 
HETATM   11  C   UNL     1     -41.874  55.511 -53.035  1.00  0.00     0.026 A 
BRANCH  10  12
HETATM   12  C   UNL     1     -40.602  53.408 -53.390  1.00  0.00     0.251 C 
HETATM   13  N   UNL     1     -40.241  52.177 -52.879  1.00  0.00    -0.357 N 
HETATM   14  H   UNL     1     -40.441  51.959 -51.914  1.00  0.00     0.162 HD
HETATM   15  O   UNL     1     -40.199  53.832 -54.467  1.00  0.00    -0.268 OA
BRANCH  13  16
HETATM   16  C   UNL     1     -39.343  51.295 -53.596  1.00  0.00     0.118 C 
HETATM   17  C   UNL     1     -40.091  50.167 -54.284  1.00  0.00     0.026 C 
ENDBRANCH  13  16
ENDBRANCH  10  12
ENDBRANCH   5   6
ENDBRANCH   1   5
BRANCH   2  18
HETATM   18  C   UNL     1     -44.099  57.788 -56.537  1.00  0.00     0.032 A 
HETATM   19  C   UNL     1     -45.427  58.221 -56.519  1.00  0.00     0.018 A 
HETATM   20  C   UNL     1     -46.224  58.089 -57.657  1.00  0.00     0.014 A 
HETATM   21  C   UNL     1     -45.707  57.526 -58.836  1.00  0.00    -0.017 A 
HETATM   22  C   UNL     1     -44.367  57.085 -58.864  1.00  0.00    -0.050 A 
HETATM   23  C   UNL     1     -43.742  56.480 -60.093  1.00  0.00     0.049 C 
HETATM   24  C   UNL     1     -43.569  57.238 -57.711  1.00  0.00     0.024 A 
BRANCH  21  25
HETATM   25  C   UNL     1     -46.577  57.437 -59.994  1.00  0.00     0.011 A 
HETATM   26  C   UNL     1     -47.242  56.336 -60.579  1.00  0.00     0.152 A 
HETATM   27  N   UNL     1     -47.952  56.679 -61.657  1.00  0.00    -0.187 NA
HETATM   28  N   UNL     1     -47.728  57.998 -61.776  1.00  0.00    -0.289 N 
HETATM   29  H   UNL     1     -48.167  58.493 -62.546  1.00  0.00     0.188 HD
HETATM   30  C   UNL     1     -46.909  58.500 -60.807  1.00  0.00     0.123 A 
ENDBRANCH  21  25
ENDBRANCH   2  18
TORSDOF 6
ENDMDL
