MODEL 1
REMARK VINA RESULT:      -9.3      0.000      0.000
REMARK  6 active torsions:
REMARK  status: ('A' for Active; 'I' for Inactive)
REMARK    1  A    between atoms: C_7  and  C_8 
REMARK    2  A    between atoms: C_8  and  O_9 
REMARK    3  A    between atoms: O_9  and  C_10 
REMARK    4  A    between atoms: C_10  and  C_11 
REMARK       I    between atoms: C_11  and  N_12 
REMARK    5  A    between atoms: N_12  and  N_13 
REMARK    6  A    between atoms: C_17  and  C_18 
ROOT
HETATM    1  C   UNL     1     -42.716  57.994 -53.565  1.00  0.00     0.261 C 
HETATM    2  N   UNL     1     -43.647  57.357 -54.361  1.00  0.00    -0.255 N 
HETATM    3  O   UNL     1     -41.676  58.494 -53.992  1.00  0.00    -0.269 OA
HETATM    4  H   UNL     1     -44.329  56.732 -53.927  1.00  0.00     0.191 HD
ENDROOT
BRANCH   1   5
HETATM    5  C   UNL     1     -43.115  58.065 -52.089  1.00  0.00     0.283 C 
BRANCH   5   6
HETATM    6  O   UNL     1     -42.840  56.886 -51.329  1.00  0.00    -0.308 OA
BRANCH   6   7
HETATM    7  C   UNL     1     -41.574  56.777 -50.859  1.00  0.00     0.293 C 
HETATM    8  O   UNL     1     -40.888  57.717 -50.480  1.00  0.00    -0.259 OA
BRANCH   7   9
HETATM    9  C   UNL     1     -41.117  55.362 -50.843  1.00  0.00     0.040 A 
HETATM   10  C   UNL     1     -40.871  54.768 -49.600  1.00  0.00     0.020 A 
HETATM   11  C   UNL     1     -40.440  53.441 -49.502  1.00  0.00     0.031 A 
HETATM   12  C   UNL     1     -40.264  52.731 -50.694  1.00  0.00     0.043 A 
HETATM   13  C   UNL     1     -40.492  53.288 -51.952  1.00  0.00    -0.001 A 
HETATM   14  N   UNL     1     -39.864  51.431 -50.894  1.00  0.00    -0.359 N 
HETATM   15  C   UNL     1     -40.205  52.278 -52.927  1.00  0.00    -0.027 A 
HETATM   16  C   UNL     1     -40.928  54.628 -52.027  1.00  0.00     0.032 A 
HETATM   17  C   UNL     1     -40.306  52.415 -54.405  1.00  0.00     0.051 C 
HETATM   18  C   UNL     1     -39.831  51.137 -52.234  1.00  0.00     0.012 A 
HETATM   19  C   UNL     1     -39.445  49.789 -52.725  1.00  0.00     0.068 C 
HETATM   20  H   UNL     1     -39.637  50.785 -50.151  1.00  0.00     0.166 HD
ENDBRANCH   7   9
ENDBRANCH   6   7
ENDBRANCH   5   6
ENDBRANCH   1   5
BRANCH   2  21
HETATM   21  N   UNL     1     -43.286  57.062 -55.661  1.00  0.00    -0.167 N 
HETATM   22  C   UNL     1     -42.643  55.913 -56.033  1.00  0.00     0.345 A 
HETATM   23  O   UNL     1     -42.337  54.960 -55.335  1.00  0.00    -0.245 OA
HETATM   24  N   UNL     1     -42.428  55.976 -57.395  1.00  0.00    -0.319 N 
HETATM   25  C   UNL     1     -43.073  57.131 -58.005  1.00  0.00     0.141 A 
HETATM   26  H   UNL     1     -42.083  55.167 -57.894  1.00  0.00     0.166 HD
HETATM   27  C   UNL     1     -42.041  58.045 -58.672  1.00  0.00     0.055 C 
HETATM   28  C   UNL     1     -43.600  57.853 -56.737  1.00  0.00     0.279 A 
HETATM   29  O   UNL     1     -44.210  58.917 -56.714  1.00  0.00    -0.268 OA
BRANCH  25  30
HETATM   30  C   UNL     1     -44.153  56.650 -58.972  1.00  0.00    -0.021 A 
HETATM   31  C   UNL     1     -45.387  57.307 -59.121  1.00  0.00     0.010 A 
HETATM   32  C   UNL     1     -46.364  56.818 -59.995  1.00  0.00     0.001 A 
HETATM   33  C   UNL     1     -46.129  55.663 -60.735  1.00  0.00     0.000 A 
HETATM   34  C   UNL     1     -44.918  54.994 -60.603  1.00  0.00     0.001 A 
HETATM   35  C   UNL     1     -43.941  55.480 -59.731  1.00  0.00     0.010 A 
ENDBRANCH  25  30
ENDBRANCH   2  21
TORSDOF 6
ENDMDL
MODEL 2
REMARK VINA RESULT:      -9.0      1.983      7.593
REMARK  6 active torsions:
REMARK  status: ('A' for Active; 'I' for Inactive)
REMARK    1  A    between atoms: C_7  and  C_8 
REMARK    2  A    between atoms: C_8  and  O_9 
REMARK    3  A    between atoms: O_9  and  C_10 
REMARK    4  A    between atoms: C_10  and  C_11 
REMARK       I    between atoms: C_11  and  N_12 
REMARK    5  A    between atoms: N_12  and  N_13 
REMARK    6  A    between atoms: C_17  and  C_18 
ROOT
HETATM    1  C   UNL     1     -42.551  58.877 -53.412  1.00  0.00     0.261 C 
HETATM    2  N   UNL     1     -41.723  57.848 -53.810  1.00  0.00    -0.255 N 
HETATM    3  O   UNL     1     -43.515  58.731 -52.662  1.00  0.00    -0.269 OA
HETATM    4  H   UNL     1     -41.129  57.975 -54.632  1.00  0.00     0.191 HD
ENDROOT
BRANCH   1   5
HETATM    5  C   UNL     1     -42.135  60.247 -53.956  1.00  0.00     0.283 C 
BRANCH   5   6
HETATM    6  O   UNL     1     -41.811  60.273 -55.347  1.00  0.00    -0.308 OA
BRANCH   6   7
HETATM    7  C   UNL     1     -42.765  60.789 -56.159  1.00  0.00     0.293 C 
HETATM    8  O   UNL     1     -42.973  61.985 -56.317  1.00  0.00    -0.259 OA
BRANCH   7   9
HETATM    9  C   UNL     1     -43.528  59.720 -56.854  1.00  0.00     0.040 A 
HETATM   10  C   UNL     1     -44.893  59.597 -56.566  1.00  0.00     0.020 A 
HETATM   11  C   UNL     1     -45.679  58.616 -57.179  1.00  0.00     0.031 A 
HETATM   12  C   UNL     1     -45.049  57.762 -58.091  1.00  0.00     0.043 A 
HETATM   13  C   UNL     1     -43.693  57.847 -58.400  1.00  0.00    -0.001 A 
HETATM   14  N   UNL     1     -45.570  56.731 -58.836  1.00  0.00    -0.359 N 
HETATM   15  C   UNL     1     -43.405  56.819 -59.357  1.00  0.00    -0.027 A 
HETATM   16  C   UNL     1     -42.919  58.846 -57.771  1.00  0.00     0.032 A 
HETATM   17  C   UNL     1     -42.085  56.526 -59.977  1.00  0.00     0.051 C 
HETATM   18  C   UNL     1     -44.596  56.156 -59.612  1.00  0.00     0.012 A 
HETATM   19  C   UNL     1     -44.897  55.025 -60.527  1.00  0.00     0.068 C 
HETATM   20  H   UNL     1     -46.540  56.448 -58.816  1.00  0.00     0.166 HD
ENDBRANCH   7   9
ENDBRANCH   6   7
ENDBRANCH   5   6
ENDBRANCH   1   5
BRANCH   2  21
HETATM   21  N   UNL     1     -42.130  56.555 -53.543  1.00  0.00    -0.167 N 
HETATM   22  C   UNL     1     -42.930  55.820 -54.374  1.00  0.00     0.345 A 
HETATM   23  O   UNL     1     -43.361  56.128 -55.474  1.00  0.00    -0.245 OA
HETATM   24  N   UNL     1     -43.143  54.595 -53.774  1.00  0.00    -0.319 N 
HETATM   25  C   UNL     1     -42.349  54.425 -52.566  1.00  0.00     0.141 A 
HETATM   26  H   UNL     1     -43.602  53.852 -54.284  1.00  0.00     0.166 HD
HETATM   27  C   UNL     1     -43.248  54.210 -51.345  1.00  0.00     0.055 C 
HETATM   28  C   UNL     1     -41.717  55.837 -52.450  1.00  0.00     0.279 A 
HETATM   29  O   UNL     1     -40.965  56.219 -51.560  1.00  0.00    -0.268 OA
BRANCH  25  30
HETATM   30  C   UNL     1     -41.353  53.285 -52.777  1.00  0.00    -0.021 A 
HETATM   31  C   UNL     1     -40.568  52.759 -51.737  1.00  0.00     0.010 A 
HETATM   32  C   UNL     1     -39.644  51.736 -51.976  1.00  0.00     0.001 A 
HETATM   33  C   UNL     1     -39.485  51.220 -53.259  1.00  0.00     0.000 A 
HETATM   34  C   UNL     1     -40.248  51.726 -54.305  1.00  0.00     0.001 A 
HETATM   35  C   UNL     1     -41.170  52.748 -54.069  1.00  0.00     0.010 A 
ENDBRANCH  25  30
ENDBRANCH   2  21
TORSDOF 6
ENDMDL
MODEL 3
REMARK VINA RESULT:      -9.0      2.154      3.278
REMARK  6 active torsions:
REMARK  status: ('A' for Active; 'I' for Inactive)
REMARK    1  A    between atoms: C_7  and  C_8 
REMARK    2  A    between atoms: C_8  and  O_9 
REMARK    3  A    between atoms: O_9  and  C_10 
REMARK    4  A    between atoms: C_10  and  C_11 
REMARK       I    between atoms: C_11  and  N_12 
REMARK    5  A    between atoms: N_12  and  N_13 
REMARK    6  A    between atoms: C_17  and  C_18 
ROOT
HETATM    1  C   UNL     1     -42.926  56.683 -56.942  1.00  0.00     0.261 C 
HETATM    2  N   UNL     1     -43.978  56.261 -57.729  1.00  0.00    -0.255 N 
HETATM    3  O   UNL     1     -42.469  57.825 -56.963  1.00  0.00    -0.269 OA
HETATM    4  H   UNL     1     -44.124  55.259 -57.870  1.00  0.00     0.191 HD
ENDROOT
BRANCH   1   5
HETATM    5  C   UNL     1     -42.399  55.605 -55.991  1.00  0.00     0.283 C 
BRANCH   5   6
HETATM    6  O   UNL     1     -42.636  55.853 -54.603  1.00  0.00    -0.308 OA
BRANCH   6   7
HETATM    7  C   UNL     1     -41.539  56.157 -53.868  1.00  0.00     0.293 C 
HETATM    8  O   UNL     1     -40.924  57.213 -53.938  1.00  0.00    -0.259 OA
BRANCH   7   9
HETATM    9  C   UNL     1     -41.176  55.049 -52.946  1.00  0.00     0.040 A 
HETATM   10  C   UNL     1     -41.344  55.259 -51.573  1.00  0.00     0.020 A 
HETATM   11  C   UNL     1     -41.025  54.266 -50.641  1.00  0.00     0.031 A 
HETATM   12  C   UNL     1     -40.532  53.054 -51.135  1.00  0.00     0.043 A 
HETATM   13  C   UNL     1     -40.344  52.807 -52.494  1.00  0.00    -0.001 A 
HETATM   14  N   UNL     1     -40.152  51.917 -50.462  1.00  0.00    -0.359 N 
HETATM   15  C   UNL     1     -39.825  51.477 -52.621  1.00  0.00    -0.027 A 
HETATM   16  C   UNL     1     -40.674  53.823 -53.416  1.00  0.00     0.032 A 
HETATM   17  C   UNL     1     -39.469  50.778 -53.886  1.00  0.00     0.051 C 
HETATM   18  C   UNL     1     -39.731  50.952 -51.341  1.00  0.00     0.012 A 
HETATM   19  C   UNL     1     -39.279  49.617 -50.873  1.00  0.00     0.068 C 
HETATM   20  H   UNL     1     -40.190  51.812 -49.457  1.00  0.00     0.166 HD
ENDBRANCH   7   9
ENDBRANCH   6   7
ENDBRANCH   5   6
ENDBRANCH   1   5
BRANCH   2  21
HETATM   21  N   UNL     1     -44.384  57.089 -58.757  1.00  0.00    -0.167 N 
HETATM   22  C   UNL     1     -43.781  57.138 -59.983  1.00  0.00     0.345 A 
HETATM   23  O   UNL     1     -42.859  56.454 -60.398  1.00  0.00    -0.245 OA
HETATM   24  N   UNL     1     -44.439  58.088 -60.737  1.00  0.00    -0.319 N 
HETATM   25  C   UNL     1     -45.623  58.605 -60.065  1.00  0.00     0.141 A 
HETATM   26  H   UNL     1     -44.234  58.189 -61.722  1.00  0.00     0.166 HD
HETATM   27  C   UNL     1     -45.508  60.115 -59.836  1.00  0.00     0.055 C 
HETATM   28  C   UNL     1     -45.486  57.903 -58.688  1.00  0.00     0.279 A 
HETATM   29  O   UNL     1     -46.246  58.033 -57.734  1.00  0.00    -0.268 OA
BRANCH  25  30
HETATM   30  C   UNL     1     -46.864  58.219 -60.868  1.00  0.00    -0.021 A 
HETATM   31  C   UNL     1     -47.242  56.883 -61.088  1.00  0.00     0.010 A 
HETATM   32  C   UNL     1     -48.368  56.568 -61.855  1.00  0.00     0.001 A 
HETATM   33  C   UNL     1     -49.139  57.581 -62.420  1.00  0.00     0.000 A 
HETATM   34  C   UNL     1     -48.784  58.910 -62.218  1.00  0.00     0.001 A 
HETATM   35  C   UNL     1     -47.659  59.227 -61.453  1.00  0.00     0.010 A 
ENDBRANCH  25  30
ENDBRANCH   2  21
TORSDOF 6
ENDMDL
MODEL 4
REMARK VINA RESULT:      -8.9      2.949      4.738
REMARK  6 active torsions:
REMARK  status: ('A' for Active; 'I' for Inactive)
REMARK    1  A    between atoms: C_7  and  C_8 
REMARK    2  A    between atoms: C_8  and  O_9 
REMARK    3  A    between atoms: O_9  and  C_10 
REMARK    4  A    between atoms: C_10  and  C_11 
REMARK       I    between atoms: C_11  and  N_12 
REMARK    5  A    between atoms: N_12  and  N_13 
REMARK    6  A    between atoms: C_17  and  C_18 
ROOT
HETATM    1  C   UNL     1     -43.049  56.673 -57.542  1.00  0.00     0.261 C 
HETATM    2  N   UNL     1     -42.006  57.557 -57.731  1.00  0.00    -0.255 N 
HETATM    3  O   UNL     1     -44.183  56.846 -57.986  1.00  0.00    -0.269 OA
HETATM    4  H   UNL     1     -41.189  57.502 -57.119  1.00  0.00     0.191 HD
ENDROOT
BRANCH   1   5
HETATM    5  C   UNL     1     -42.656  55.416 -56.761  1.00  0.00     0.283 C 
BRANCH   5   6
HETATM    6  O   UNL     1     -42.894  55.480 -55.353  1.00  0.00    -0.308 OA
BRANCH   6   7
HETATM    7  C   UNL     1     -41.877  55.979 -54.610  1.00  0.00     0.293 C 
HETATM    8  O   UNL     1     -41.416  57.106 -54.728  1.00  0.00    -0.259 OA
BRANCH   7   9
HETATM    9  C   UNL     1     -41.391  54.989 -53.613  1.00  0.00     0.040 A 
HETATM   10  C   UNL     1     -41.378  55.369 -52.266  1.00  0.00     0.020 A 
HETATM   11  C   UNL     1     -40.936  54.495 -51.269  1.00  0.00     0.031 A 
HETATM   12  C   UNL     1     -40.507  53.225 -51.669  1.00  0.00     0.043 A 
HETATM   13  C   UNL     1     -40.499  52.810 -53.000  1.00  0.00    -0.001 A 
HETATM   14  N   UNL     1     -40.038  52.175 -50.915  1.00  0.00    -0.359 N 
HETATM   15  C   UNL     1     -39.996  51.468 -53.027  1.00  0.00    -0.027 A 
HETATM   16  C   UNL     1     -40.951  53.708 -53.989  1.00  0.00     0.032 A 
HETATM   17  C   UNL     1     -39.807  50.614 -54.231  1.00  0.00     0.051 C 
HETATM   18  C   UNL     1     -39.733  51.104 -51.716  1.00  0.00     0.012 A 
HETATM   19  C   UNL     1     -39.219  49.831 -51.149  1.00  0.00     0.068 C 
HETATM   20  H   UNL     1     -39.943  52.196 -49.909  1.00  0.00     0.166 HD
ENDBRANCH   7   9
ENDBRANCH   6   7
ENDBRANCH   5   6
ENDBRANCH   1   5
BRANCH   2  21
HETATM   21  N   UNL     1     -42.306  58.805 -58.240  1.00  0.00    -0.167 N 
HETATM   22  C   UNL     1     -42.691  59.871 -57.474  1.00  0.00     0.345 A 
HETATM   23  O   UNL     1     -42.779  59.933 -56.258  1.00  0.00    -0.245 OA
HETATM   24  N   UNL     1     -42.926  60.933 -58.323  1.00  0.00    -0.319 N 
HETATM   25  C   UNL     1     -42.549  60.638 -59.698  1.00  0.00     0.141 A 
HETATM   26  H   UNL     1     -43.094  61.857 -57.947  1.00  0.00     0.166 HD
HETATM   27  C   UNL     1     -43.759  60.743 -60.632  1.00  0.00     0.055 C 
HETATM   28  C   UNL     1     -42.179  59.137 -59.565  1.00  0.00     0.279 A 
HETATM   29  O   UNL     1     -41.811  58.402 -60.475  1.00  0.00    -0.268 OA
BRANCH  25  30
HETATM   30  C   UNL     1     -41.399  61.554 -60.112  1.00  0.00    -0.021 A 
HETATM   31  C   UNL     1     -40.539  62.162 -59.180  1.00  0.00     0.010 A 
HETATM   32  C   UNL     1     -39.515  63.020 -59.596  1.00  0.00     0.001 A 
HETATM   33  C   UNL     1     -39.332  63.290 -60.949  1.00  0.00     0.000 A 
HETATM   34  C   UNL     1     -40.171  62.703 -61.889  1.00  0.00     0.001 A 
HETATM   35  C   UNL     1     -41.195  61.847 -61.477  1.00  0.00     0.010 A 
ENDBRANCH  25  30
ENDBRANCH   2  21
TORSDOF 6
ENDMDL
MODEL 5
REMARK VINA RESULT:      -8.7      1.810      7.811
REMARK  6 active torsions:
REMARK  status: ('A' for Active; 'I' for Inactive)
REMARK    1  A    between atoms: C_7  and  C_8 
REMARK    2  A    between atoms: C_8  and  O_9 
REMARK    3  A    between atoms: O_9  and  C_10 
REMARK    4  A    between atoms: C_10  and  C_11 
REMARK       I    between atoms: C_11  and  N_12 
REMARK    5  A    between atoms: N_12  and  N_13 
REMARK    6  A    between atoms: C_17  and  C_18 
ROOT
HETATM    1  C   UNL     1     -43.990  57.321 -52.611  1.00  0.00     0.261 C 
HETATM    2  N   UNL     1     -43.499  57.208 -51.326  1.00  0.00    -0.255 N 
HETATM    3  O   UNL     1     -44.022  56.392 -53.417  1.00  0.00    -0.269 OA
HETATM    4  H   UNL     1     -43.244  58.055 -50.814  1.00  0.00     0.191 HD
ENDROOT
BRANCH   1   5
HETATM    5  C   UNL     1     -44.544  58.710 -52.938  1.00  0.00     0.283 C 
BRANCH   5   6
HETATM    6  O   UNL     1     -43.869  59.398 -53.993  1.00  0.00    -0.308 OA
BRANCH   6   7
HETATM    7  C   UNL     1     -44.613  59.645 -55.098  1.00  0.00     0.293 C 
HETATM    8  O   UNL     1     -45.445  60.538 -55.193  1.00  0.00    -0.259 OA
BRANCH   7   9
HETATM    9  C   UNL     1     -44.284  58.703 -56.200  1.00  0.00     0.040 A 
HETATM   10  C   UNL     1     -42.977  58.210 -56.270  1.00  0.00     0.020 A 
HETATM   11  C   UNL     1     -42.589  57.319 -57.277  1.00  0.00     0.031 A 
HETATM   12  C   UNL     1     -43.559  56.941 -58.211  1.00  0.00     0.043 A 
HETATM   13  C   UNL     1     -44.870  57.414 -58.180  1.00  0.00    -0.001 A 
HETATM   14  N   UNL     1     -43.464  56.086 -59.283  1.00  0.00    -0.359 N 
HETATM   15  C   UNL     1     -45.567  56.821 -59.283  1.00  0.00    -0.027 A 
HETATM   16  C   UNL     1     -45.239  58.310 -57.154  1.00  0.00     0.032 A 
HETATM   17  C   UNL     1     -46.993  57.033 -59.651  1.00  0.00     0.051 C 
HETATM   18  C   UNL     1     -44.666  55.995 -59.937  1.00  0.00     0.012 A 
HETATM   19  C   UNL     1     -44.841  55.122 -61.126  1.00  0.00     0.068 C 
HETATM   20  H   UNL     1     -42.622  55.591 -59.542  1.00  0.00     0.166 HD
ENDBRANCH   7   9
ENDBRANCH   6   7
ENDBRANCH   5   6
ENDBRANCH   1   5
BRANCH   2  21
HETATM   21  N   UNL     1     -42.795  56.064 -51.005  1.00  0.00    -0.167 N 
HETATM   22  C   UNL     1     -43.361  54.948 -50.452  1.00  0.00     0.345 A 
HETATM   23  O   UNL     1     -44.539  54.743 -50.206  1.00  0.00    -0.245 OA
HETATM   24  N   UNL     1     -42.356  54.024 -50.251  1.00  0.00    -0.319 N 
HETATM   25  C   UNL     1     -41.086  54.456 -50.819  1.00  0.00     0.141 A 
HETATM   26  H   UNL     1     -42.581  53.079 -49.971  1.00  0.00     0.166 HD
HETATM   27  C   UNL     1     -40.012  54.574 -49.733  1.00  0.00     0.055 C 
HETATM   28  C   UNL     1     -41.461  55.890 -51.275  1.00  0.00     0.279 A 
HETATM   29  O   UNL     1     -40.707  56.698 -51.807  1.00  0.00    -0.268 OA
BRANCH  25  30
HETATM   30  C   UNL     1     -40.689  53.501 -51.944  1.00  0.00    -0.021 A 
HETATM   31  C   UNL     1     -41.198  53.613 -53.250  1.00  0.00     0.010 A 
HETATM   32  C   UNL     1     -40.835  52.701 -54.246  1.00  0.00     0.001 A 
HETATM   33  C   UNL     1     -39.958  51.658 -53.957  1.00  0.00     0.000 A 
HETATM   34  C   UNL     1     -39.444  51.525 -52.673  1.00  0.00     0.001 A 
HETATM   35  C   UNL     1     -39.806  52.434 -51.676  1.00  0.00     0.010 A 
ENDBRANCH  25  30
ENDBRANCH   2  21
TORSDOF 6
ENDMDL
MODEL 6
REMARK VINA RESULT:      -8.4      1.833      2.730
REMARK  6 active torsions:
REMARK  status: ('A' for Active; 'I' for Inactive)
REMARK    1  A    between atoms: C_7  and  C_8 
REMARK    2  A    between atoms: C_8  and  O_9 
REMARK    3  A    between atoms: O_9  and  C_10 
REMARK    4  A    between atoms: C_10  and  C_11 
REMARK       I    between atoms: C_11  and  N_12 
REMARK    5  A    between atoms: N_12  and  N_13 
REMARK    6  A    between atoms: C_17  and  C_18 
ROOT
HETATM    1  C   UNL     1     -42.418  59.730 -54.365  1.00  0.00     0.261 C 
HETATM    2  N   UNL     1     -43.732  60.106 -54.556  1.00  0.00    -0.255 N 
HETATM    3  O   UNL     1     -41.697  59.283 -55.256  1.00  0.00    -0.269 OA
HETATM    4  H   UNL     1     -44.346  60.199 -53.743  1.00  0.00     0.191 HD
ENDROOT
BRANCH   1   5
HETATM    5  C   UNL     1     -41.912  59.962 -52.939  1.00  0.00     0.283 C 
BRANCH   5   6
HETATM    6  O   UNL     1     -41.377  58.806 -52.290  1.00  0.00    -0.308 OA
BRANCH   6   7
HETATM    7  C   UNL     1     -42.291  57.963 -51.753  1.00  0.00     0.293 C 
HETATM    8  O   UNL     1     -43.391  58.301 -51.335  1.00  0.00    -0.259 OA
BRANCH   7   9
HETATM    9  C   UNL     1     -41.801  56.559 -51.745  1.00  0.00     0.040 A 
HETATM   10  C   UNL     1     -41.751  55.891 -50.516  1.00  0.00     0.020 A 
HETATM   11  C   UNL     1     -41.303  54.570 -50.426  1.00  0.00     0.031 A 
HETATM   12  C   UNL     1     -40.906  53.941 -51.611  1.00  0.00     0.043 A 
HETATM   13  C   UNL     1     -40.934  54.573 -52.853  1.00  0.00    -0.001 A 
HETATM   14  N   UNL     1     -40.438  52.665 -51.818  1.00  0.00    -0.359 N 
HETATM   15  C   UNL     1     -40.456  53.634 -53.824  1.00  0.00    -0.027 A 
HETATM   16  C   UNL     1     -41.392  55.906 -52.921  1.00  0.00     0.032 A 
HETATM   17  C   UNL     1     -40.310  53.864 -55.287  1.00  0.00     0.051 C 
HETATM   18  C   UNL     1     -40.170  52.458 -53.147  1.00  0.00     0.012 A 
HETATM   19  C   UNL     1     -39.666  51.152 -53.645  1.00  0.00     0.068 C 
HETATM   20  H   UNL     1     -40.321  51.977 -51.087  1.00  0.00     0.166 HD
ENDBRANCH   7   9
ENDBRANCH   6   7
ENDBRANCH   5   6
ENDBRANCH   1   5
BRANCH   2  21
HETATM   21  N   UNL     1     -44.338  59.747 -55.743  1.00  0.00    -0.167 N 
HETATM   22  C   UNL     1     -44.276  60.492 -56.889  1.00  0.00     0.345 A 
HETATM   23  O   UNL     1     -43.658  61.526 -57.083  1.00  0.00    -0.245 OA
HETATM   24  N   UNL     1     -45.012  59.837 -57.855  1.00  0.00    -0.319 N 
HETATM   25  C   UNL     1     -45.472  58.529 -57.409  1.00  0.00     0.141 A 
HETATM   26  H   UNL     1     -44.987  60.153 -58.815  1.00  0.00     0.166 HD
HETATM   27  C   UNL     1     -47.001  58.453 -57.421  1.00  0.00     0.055 C 
HETATM   28  C   UNL     1     -45.009  58.565 -55.929  1.00  0.00     0.279 A 
HETATM   29  O   UNL     1     -45.185  57.681 -55.096  1.00  0.00    -0.268 OA
BRANCH  25  30
HETATM   30  C   UNL     1     -44.817  57.447 -58.266  1.00  0.00    -0.021 A 
HETATM   31  C   UNL     1     -45.469  56.841 -59.354  1.00  0.00     0.010 A 
HETATM   32  C   UNL     1     -44.847  55.832 -60.097  1.00  0.00     0.001 A 
HETATM   33  C   UNL     1     -43.563  55.407 -59.767  1.00  0.00     0.000 A 
HETATM   34  C   UNL     1     -42.899  55.990 -58.694  1.00  0.00     0.001 A 
HETATM   35  C   UNL     1     -43.518  56.997 -57.950  1.00  0.00     0.010 A 
ENDBRANCH  25  30
ENDBRANCH   2  21
TORSDOF 6
ENDMDL
MODEL 7
REMARK VINA RESULT:      -8.3      2.165      7.902
REMARK  6 active torsions:
REMARK  status: ('A' for Active; 'I' for Inactive)
REMARK    1  A    between atoms: C_7  and  C_8 
REMARK    2  A    between atoms: C_8  and  O_9 
REMARK    3  A    between atoms: O_9  and  C_10 
REMARK    4  A    between atoms: C_10  and  C_11 
REMARK       I    between atoms: C_11  and  N_12 
REMARK    5  A    between atoms: N_12  and  N_13 
REMARK    6  A    between atoms: C_17  and  C_18 
ROOT
HETATM    1  C   UNL     1     -44.419  58.528 -53.425  1.00  0.00     0.261 C 
HETATM    2  N   UNL     1     -43.775  58.589 -52.205  1.00  0.00    -0.255 N 
HETATM    3  O   UNL     1     -44.682  57.478 -54.009  1.00  0.00    -0.269 OA
HETATM    4  H   UNL     1     -43.345  59.469 -51.913  1.00  0.00     0.191 HD
ENDROOT
BRANCH   1   5
HETATM    5  C   UNL     1     -44.827  59.898 -53.974  1.00  0.00     0.283 C 
BRANCH   5   6
HETATM    6  O   UNL     1     -44.258  60.235 -55.241  1.00  0.00    -0.308 OA
BRANCH   6   7
HETATM    7  C   UNL     1     -45.141  60.605 -56.199  1.00  0.00     0.293 C 
HETATM    8  O   UNL     1     -45.594  61.734 -56.330  1.00  0.00    -0.259 OA
BRANCH   7   9
HETATM    9  C   UNL     1     -45.489  59.467 -57.090  1.00  0.00     0.040 A 
HETATM   10  C   UNL     1     -46.844  59.182 -57.289  1.00  0.00     0.020 A 
HETATM   11  C   UNL     1     -47.252  58.129 -58.113  1.00  0.00     0.031 A 
HETATM   12  C   UNL     1     -46.252  57.371 -58.732  1.00  0.00     0.043 A 
HETATM   13  C   UNL     1     -44.891  57.618 -58.555  1.00  0.00    -0.001 A 
HETATM   14  N   UNL     1     -46.360  56.300 -59.587  1.00  0.00    -0.359 N 
HETATM   15  C   UNL     1     -44.175  56.648 -59.330  1.00  0.00    -0.027 A 
HETATM   16  C   UNL     1     -44.503  58.687 -57.720  1.00  0.00     0.032 A 
HETATM   17  C   UNL     1     -42.697  56.522 -59.449  1.00  0.00     0.051 C 
HETATM   18  C   UNL     1     -45.119  55.856 -59.965  1.00  0.00     0.012 A 
HETATM   19  C   UNL     1     -44.952  54.716 -60.903  1.00  0.00     0.068 C 
HETATM   20  H   UNL     1     -47.238  55.907 -59.897  1.00  0.00     0.166 HD
ENDBRANCH   7   9
ENDBRANCH   6   7
ENDBRANCH   5   6
ENDBRANCH   1   5
BRANCH   2  21
HETATM   21  N   UNL     1     -43.189  57.433 -51.729  1.00  0.00    -0.167 N 
HETATM   22  C   UNL     1     -43.856  56.477 -51.013  1.00  0.00     0.345 A 
HETATM   23  O   UNL     1     -45.042  56.439 -50.726  1.00  0.00    -0.245 OA
HETATM   24  N   UNL     1     -42.950  55.487 -50.691  1.00  0.00    -0.319 N 
HETATM   25  C   UNL     1     -41.657  55.690 -51.330  1.00  0.00     0.141 A 
HETATM   26  H   UNL     1     -43.267  54.623 -50.274  1.00  0.00     0.166 HD
HETATM   27  C   UNL     1     -40.548  55.845 -50.285  1.00  0.00     0.055 C 
HETATM   28  C   UNL     1     -41.889  57.077 -51.986  1.00  0.00     0.279 A 
HETATM   29  O   UNL     1     -41.068  57.713 -52.638  1.00  0.00    -0.268 OA
BRANCH  25  30
HETATM   30  C   UNL     1     -41.395  54.547 -52.308  1.00  0.00    -0.021 A 
HETATM   31  C   UNL     1     -42.095  54.408 -53.520  1.00  0.00     0.010 A 
HETATM   32  C   UNL     1     -41.849  53.329 -54.376  1.00  0.00     0.001 A 
HETATM   33  C   UNL     1     -40.901  52.367 -54.038  1.00  0.00     0.000 A 
HETATM   34  C   UNL     1     -40.198  52.482 -52.845  1.00  0.00     0.001 A 
HETATM   35  C   UNL     1     -40.442  53.557 -51.988  1.00  0.00     0.010 A 
ENDBRANCH  25  30
ENDBRANCH   2  21
TORSDOF 6
ENDMDL
MODEL 8
REMARK VINA RESULT:      -8.3      5.196      9.103
REMARK  6 active torsions:
REMARK  status: ('A' for Active; 'I' for Inactive)
REMARK    1  A    between atoms: C_7  and  C_8 
REMARK    2  A    between atoms: C_8  and  O_9 
REMARK    3  A    between atoms: O_9  and  C_10 
REMARK    4  A    between atoms: C_10  and  C_11 
REMARK       I    between atoms: C_11  and  N_12 
REMARK    5  A    between atoms: N_12  and  N_13 
REMARK    6  A    between atoms: C_17  and  C_18 
ROOT
HETATM    1  C   UNL     1     -42.047  59.395 -51.422  1.00  0.00     0.261 C 
HETATM    2  N   UNL     1     -43.069  58.590 -50.960  1.00  0.00    -0.255 N 
HETATM    3  O   UNL     1     -41.424  59.183 -52.461  1.00  0.00    -0.269 OA
HETATM    4  H   UNL     1     -43.349  58.655 -49.979  1.00  0.00     0.191 HD
ENDROOT
BRANCH   1   5
HETATM    5  C   UNL     1     -41.783  60.620 -50.542  1.00  0.00     0.283 C 
BRANCH   5   6
HETATM    6  O   UNL     1     -42.905  61.073 -49.782  1.00  0.00    -0.308 OA
BRANCH   6   7
HETATM    7  C   UNL     1     -43.757  61.900 -50.434  1.00  0.00     0.293 C 
HETATM    8  O   UNL     1     -43.639  62.241 -51.604  1.00  0.00    -0.259 OA
BRANCH   7   9
HETATM    9  C   UNL     1     -44.873  62.338 -49.556  1.00  0.00     0.040 A 
HETATM   10  C   UNL     1     -46.089  62.674 -50.161  1.00  0.00     0.020 A 
HETATM   11  C   UNL     1     -47.187  63.095 -49.403  1.00  0.00     0.031 A 
HETATM   12  C   UNL     1     -47.022  63.167 -48.016  1.00  0.00     0.043 A 
HETATM   13  C   UNL     1     -45.826  62.847 -47.375  1.00  0.00    -0.001 A 
HETATM   14  N   UNL     1     -47.919  63.533 -47.040  1.00  0.00    -0.359 N 
HETATM   15  C   UNL     1     -46.027  63.043 -45.969  1.00  0.00    -0.027 A 
HETATM   16  C   UNL     1     -44.733  62.423 -48.160  1.00  0.00     0.032 A 
HETATM   17  C   UNL     1     -45.026  62.827 -44.889  1.00  0.00     0.051 C 
HETATM   18  C   UNL     1     -47.340  63.456 -45.799  1.00  0.00     0.012 A 
HETATM   19  C   UNL     1     -48.099  63.784 -44.565  1.00  0.00     0.068 C 
HETATM   20  H   UNL     1     -48.874  63.810 -47.221  1.00  0.00     0.166 HD
ENDBRANCH   7   9
ENDBRANCH   6   7
ENDBRANCH   5   6
ENDBRANCH   1   5
BRANCH   2  21
HETATM   21  N   UNL     1     -43.244  57.362 -51.566  1.00  0.00    -0.167 N 
HETATM   22  C   UNL     1     -44.102  57.139 -52.608  1.00  0.00     0.345 A 
HETATM   23  O   UNL     1     -44.791  57.951 -53.204  1.00  0.00    -0.245 OA
HETATM   24  N   UNL     1     -44.027  55.800 -52.933  1.00  0.00    -0.319 N 
HETATM   25  C   UNL     1     -42.979  55.109 -52.195  1.00  0.00     0.141 A 
HETATM   26  H   UNL     1     -44.485  55.452 -53.764  1.00  0.00     0.166 HD
HETATM   27  C   UNL     1     -43.565  53.981 -51.340  1.00  0.00     0.055 C 
HETATM   28  C   UNL     1     -42.522  56.242 -51.240  1.00  0.00     0.279 A 
HETATM   29  O   UNL     1     -41.652  56.153 -50.380  1.00  0.00    -0.268 OA
BRANCH  25  30
HETATM   30  C   UNL     1     -41.915  54.618 -53.175  1.00  0.00    -0.021 A 
HETATM   31  C   UNL     1     -41.145  55.493 -53.962  1.00  0.00     0.010 A 
HETATM   32  C   UNL     1     -40.201  55.005 -54.871  1.00  0.00     0.001 A 
HETATM   33  C   UNL     1     -40.008  53.634 -55.015  1.00  0.00     0.000 A 
HETATM   34  C   UNL     1     -40.759  52.749 -54.250  1.00  0.00     0.001 A 
HETATM   35  C   UNL     1     -41.703  53.234 -53.342  1.00  0.00     0.010 A 
ENDBRANCH  25  30
ENDBRANCH   2  21
TORSDOF 6
ENDMDL
MODEL 9
REMARK VINA RESULT:      -8.2      2.814      8.413
REMARK  6 active torsions:
REMARK  status: ('A' for Active; 'I' for Inactive)
REMARK    1  A    between atoms: C_7  and  C_8 
REMARK    2  A    between atoms: C_8  and  O_9 
REMARK    3  A    between atoms: O_9  and  C_10 
REMARK    4  A    between atoms: C_10  and  C_11 
REMARK       I    between atoms: C_11  and  N_12 
REMARK    5  A    between atoms: N_12  and  N_13 
REMARK    6  A    between atoms: C_17  and  C_18 
ROOT
HETATM    1  C   UNL     1     -42.513  60.097 -55.121  1.00  0.00     0.261 C 
HETATM    2  N   UNL     1     -42.176  60.736 -53.945  1.00  0.00    -0.255 N 
HETATM    3  O   UNL     1     -42.935  58.943 -55.177  1.00  0.00    -0.269 OA
HETATM    4  H   UNL     1     -41.582  61.568 -53.983  1.00  0.00     0.191 HD
ENDROOT
BRANCH   1   5
HETATM    5  C   UNL     1     -42.360  60.976 -56.365  1.00  0.00     0.283 C 
BRANCH   5   6
HETATM    6  O   UNL     1     -41.207  60.700 -57.163  1.00  0.00    -0.308 OA
BRANCH   6   7
HETATM    7  C   UNL     1     -41.361  60.885 -58.496  1.00  0.00     0.293 C 
HETATM    8  O   UNL     1     -40.866  61.805 -59.134  1.00  0.00    -0.259 OA
BRANCH   7   9
HETATM    9  C   UNL     1     -42.200  59.818 -59.103  1.00  0.00     0.040 A 
HETATM   10  C   UNL     1     -42.886  60.118 -60.285  1.00  0.00     0.020 A 
HETATM   11  C   UNL     1     -43.694  59.168 -60.917  1.00  0.00     0.031 A 
HETATM   12  C   UNL     1     -43.791  57.906 -60.321  1.00  0.00     0.043 A 
HETATM   13  C   UNL     1     -43.130  57.570 -59.141  1.00  0.00    -0.001 A 
HETATM   14  N   UNL     1     -44.495  56.795 -60.721  1.00  0.00    -0.359 N 
HETATM   15  C   UNL     1     -43.466  56.211 -58.833  1.00  0.00    -0.027 A 
HETATM   16  C   UNL     1     -42.318  58.544 -58.522  1.00  0.00     0.032 A 
HETATM   17  C   UNL     1     -42.994  55.421 -57.663  1.00  0.00     0.051 C 
HETATM   18  C   UNL     1     -44.304  55.760 -59.841  1.00  0.00     0.012 A 
HETATM   19  C   UNL     1     -44.942  54.434 -60.049  1.00  0.00     0.068 C 
HETATM   20  H   UNL     1     -45.064  56.752 -61.555  1.00  0.00     0.166 HD
ENDBRANCH   7   9
ENDBRANCH   6   7
ENDBRANCH   5   6
ENDBRANCH   1   5
BRANCH   2  21
HETATM   21  N   UNL     1     -42.083  59.970 -52.800  1.00  0.00    -0.167 N 
HETATM   22  C   UNL     1     -43.128  59.739 -51.949  1.00  0.00     0.345 A 
HETATM   23  O   UNL     1     -44.289  60.098 -52.065  1.00  0.00    -0.245 OA
HETATM   24  N   UNL     1     -42.660  58.957 -50.913  1.00  0.00    -0.319 N 
HETATM   25  C   UNL     1     -41.291  58.511 -51.131  1.00  0.00     0.141 A 
HETATM   26  H   UNL     1     -43.304  58.562 -50.241  1.00  0.00     0.166 HD
HETATM   27  C   UNL     1     -40.366  59.017 -50.021  1.00  0.00     0.055 C 
HETATM   28  C   UNL     1     -40.951  59.292 -52.427  1.00  0.00     0.279 A 
HETATM   29  O   UNL     1     -39.876  59.274 -53.019  1.00  0.00    -0.268 OA
BRANCH  25  30
HETATM   30  C   UNL     1     -41.275  56.989 -51.269  1.00  0.00    -0.021 A 
HETATM   31  C   UNL     1     -41.569  56.332 -52.476  1.00  0.00     0.010 A 
HETATM   32  C   UNL     1     -41.575  54.936 -52.556  1.00  0.00     0.001 A 
HETATM   33  C   UNL     1     -41.289  54.168 -51.430  1.00  0.00     0.000 A 
HETATM   34  C   UNL     1     -40.997  54.794 -50.224  1.00  0.00     0.001 A 
HETATM   35  C   UNL     1     -40.992  56.189 -50.142  1.00  0.00     0.010 A 
ENDBRANCH  25  30
ENDBRANCH   2  21
TORSDOF 6
ENDMDL
MODEL 10
REMARK VINA RESULT:      -8.1      3.212      9.964
REMARK  6 active torsions:
REMARK  status: ('A' for Active; 'I' for Inactive)
REMARK    1  A    between atoms: C_7  and  C_8 
REMARK    2  A    between atoms: C_8  and  O_9 
REMARK    3  A    between atoms: O_9  and  C_10 
REMARK    4  A    between atoms: C_10  and  C_11 
REMARK       I    between atoms: C_11  and  N_12 
REMARK    5  A    between atoms: N_12  and  N_13 
REMARK    6  A    between atoms: C_17  and  C_18 
ROOT
HETATM    1  C   UNL     1     -42.639  56.805 -56.232  1.00  0.00     0.261 C 
HETATM    2  N   UNL     1     -42.234  55.486 -56.250  1.00  0.00    -0.255 N 
HETATM    3  O   UNL     1     -42.625  57.513 -55.226  1.00  0.00    -0.269 OA
HETATM    4  H   UNL     1     -42.527  54.886 -57.024  1.00  0.00     0.191 HD
ENDROOT
BRANCH   1   5
HETATM    5  C   UNL     1     -43.070  57.335 -57.602  1.00  0.00     0.283 C 
BRANCH   5   6
HETATM    6  O   UNL     1     -42.001  57.752 -58.454  1.00  0.00    -0.308 OA
BRANCH   6   7
HETATM    7  C   UNL     1     -42.186  57.527 -59.777  1.00  0.00     0.293 C 
HETATM    8  O   UNL     1     -41.947  56.469 -60.343  1.00  0.00    -0.259 OA
BRANCH   7   9
HETATM    9  C   UNL     1     -42.732  58.727 -60.464  1.00  0.00     0.040 A 
HETATM   10  C   UNL     1     -41.822  59.662 -60.969  1.00  0.00     0.020 A 
HETATM   11  C   UNL     1     -42.258  60.816 -61.629  1.00  0.00     0.031 A 
HETATM   12  C   UNL     1     -43.638  60.999 -61.764  1.00  0.00     0.043 A 
HETATM   13  C   UNL     1     -44.576  60.095 -61.270  1.00  0.00    -0.001 A 
HETATM   14  N   UNL     1     -44.336  62.019 -62.365  1.00  0.00    -0.359 N 
HETATM   15  C   UNL     1     -45.876  60.610 -61.586  1.00  0.00    -0.027 A 
HETATM   16  C   UNL     1     -44.114  58.937 -60.610  1.00  0.00     0.032 A 
HETATM   17  C   UNL     1     -47.185  59.984 -61.255  1.00  0.00     0.051 C 
HETATM   18  C   UNL     1     -45.687  61.798 -62.275  1.00  0.00     0.012 A 
HETATM   19  C   UNL     1     -46.671  62.745 -62.861  1.00  0.00     0.068 C 
HETATM   20  H   UNL     1     -43.906  62.814 -62.817  1.00  0.00     0.166 HD
ENDBRANCH   7   9
ENDBRANCH   6   7
ENDBRANCH   5   6
ENDBRANCH   1   5
BRANCH   2  21
HETATM   21  N   UNL     1     -42.025  54.861 -55.036  1.00  0.00    -0.167 N 
HETATM   22  C   UNL     1     -43.027  54.351 -54.257  1.00  0.00     0.345 A 
HETATM   23  O   UNL     1     -44.222  54.302 -54.501  1.00  0.00    -0.245 OA
HETATM   24  N   UNL     1     -42.447  53.828 -53.119  1.00  0.00    -0.319 N 
HETATM   25  C   UNL     1     -40.992  53.843 -53.182  1.00  0.00     0.141 A 
HETATM   26  H   UNL     1     -43.000  53.284 -52.470  1.00  0.00     0.166 HD
HETATM   27  C   UNL     1     -40.404  54.690 -52.049  1.00  0.00     0.055 C 
HETATM   28  C   UNL     1     -40.782  54.615 -54.511  1.00  0.00     0.279 A 
HETATM   29  O   UNL     1     -39.702  54.915 -55.008  1.00  0.00    -0.268 OA
BRANCH  25  30
HETATM   30  C   UNL     1     -40.475  52.406 -53.179  1.00  0.00    -0.021 A 
HETATM   31  C   UNL     1     -40.539  51.573 -54.309  1.00  0.00     0.010 A 
HETATM   32  C   UNL     1     -40.083  50.252 -54.259  1.00  0.00     0.001 A 
HETATM   33  C   UNL     1     -39.556  49.735 -53.078  1.00  0.00     0.000 A 
HETATM   34  C   UNL     1     -39.485  50.539 -51.946  1.00  0.00     0.001 A 
HETATM   35  C   UNL     1     -39.940  51.858 -51.994  1.00  0.00     0.010 A 
ENDBRANCH  25  30
ENDBRANCH   2  21
TORSDOF 6
ENDMDL
