MODEL 1
REMARK VINA RESULT:     -10.2      0.000      0.000
REMARK  6 active torsions:
REMARK  status: ('A' for Active; 'I' for Inactive)
REMARK    1  A    between atoms: C_8  and  N_9 
REMARK       I    between atoms: N_9  and  C_10 
REMARK    2  A    between atoms: C_10  and  C_12 
REMARK    3  A    between atoms: C_16  and  C_17 
REMARK    4  A    between atoms: C_17  and  N_18 
REMARK       I    between atoms: N_18  and  C_19 
REMARK    5  A    between atoms: C_19  and  C_21 
REMARK    6  A    between atoms: C_25  and  C_31 
REMARK       I    between atoms: C_31  and  N_33 
ROOT
HETATM    1  C   UNL     1     -42.520  60.161 -53.962  1.00  0.00     0.032 A 
HETATM    2  C   UNL     1     -43.191  61.357 -53.685  1.00  0.00     0.017 A 
HETATM    3  C   UNL     1     -43.222  61.849 -52.378  1.00  0.00     0.002 A 
HETATM    4  C   UNL     1     -42.593  61.149 -51.347  1.00  0.00     0.009 A 
HETATM    5  C   UNL     1     -41.917  59.949 -51.609  1.00  0.00    -0.040 A 
HETATM    6  C   UNL     1     -41.897  59.456 -52.922  1.00  0.00     0.026 A 
ENDROOT
BRANCH   5   7
HETATM    7  C   UNL     1     -41.265  59.175 -50.494  1.00  0.00     0.161 C 
BRANCH   7   8
HETATM    8  N   UNL     1     -40.916  57.843 -50.924  1.00  0.00    -0.351 N 
HETATM    9  C   UNL     1     -41.835  56.820 -50.967  1.00  0.00     0.268 C 
HETATM   10  O   UNL     1     -43.003  56.993 -50.630  1.00  0.00    -0.266 OA
HETATM   11  H   UNL     1     -40.002  57.707 -51.324  1.00  0.00     0.163 HD
BRANCH   9  12
HETATM   12  C   UNL     1     -41.312  55.537 -51.421  1.00  0.00     0.103 A 
HETATM   13  C   UNL     1     -40.962  54.411 -50.689  1.00  0.00     0.049 A 
HETATM   14  C   UNL     1     -40.563  53.381 -51.580  1.00  0.00    -0.006 A 
HETATM   15  C   UNL     1     -40.145  52.048 -51.394  1.00  0.00     0.030 A 
HETATM   16  C   UNL     1     -40.658  53.894 -52.872  1.00  0.00     0.045 A 
HETATM   17  C   UNL     1     -39.835  51.250 -52.508  1.00  0.00     0.032 A 
HETATM   18  C   UNL     1     -39.951  51.781 -53.794  1.00  0.00     0.019 A 
HETATM   19  C   UNL     1     -40.356  53.108 -53.996  1.00  0.00     0.031 A 
HETATM   20  N   UNL     1     -41.087  55.205 -52.752  1.00  0.00    -0.346 N 
HETATM   21  C   UNL     1     -41.292  56.110 -53.868  1.00  0.00     0.156 C 
BRANCH  17  22
HETATM   22  C   UNL     1     -39.422  49.840 -52.254  1.00  0.00     0.249 C 
HETATM   23  O   UNL     1     -39.393  49.007 -53.153  1.00  0.00    -0.268 OA
HETATM   24  N   UNL     1     -39.096  49.482 -50.976  1.00  0.00    -0.366 N 
HETATM   25  H   UNL     1     -39.290  50.050 -50.167  1.00  0.00     0.159 HD
HETATM   26  H   UNL     1     -38.899  48.500 -50.826  1.00  0.00     0.159 HD
ENDBRANCH  17  22
ENDBRANCH   9  12
ENDBRANCH   7   8
ENDBRANCH   5   7
BRANCH   1  27
HETATM   27  C   UNL     1     -42.475  59.571 -55.331  1.00  0.00     0.256 C 
HETATM   28  N   UNL     1     -43.347  58.519 -55.548  1.00  0.00    -0.323 N 
HETATM   29  H   UNL     1     -43.994  58.294 -54.806  1.00  0.00     0.169 HD
HETATM   30  O   UNL     1     -41.714  60.078 -56.146  1.00  0.00    -0.267 OA
BRANCH  28  31
HETATM   31  C   UNL     1     -43.505  57.775 -56.740  1.00  0.00     0.035 A 
HETATM   32  C   UNL     1     -42.520  56.946 -57.275  1.00  0.00     0.030 A 
HETATM   33  C   UNL     1     -42.749  56.246 -58.463  1.00  0.00     0.010 A 
HETATM   34  C   UNL     1     -43.973  56.356 -59.130  1.00  0.00    -0.048 A 
HETATM   35  C   UNL     1     -44.193  55.637 -60.436  1.00  0.00     0.069 C 
HETATM   36  C   UNL     1     -44.971  57.195 -58.610  1.00  0.00    -0.022 A 
HETATM   37  C   UNL     1     -45.675  55.560 -60.824  1.00  0.00     0.277 C 
HETATM   38  N   UNL     1     -46.312  56.878 -60.698  1.00  0.00     0.088 N 
HETATM   39  C   UNL     1     -47.673  56.851 -61.232  1.00  0.00     0.310 C 
HETATM   40  C   UNL     1     -46.324  57.300 -59.287  1.00  0.00     0.311 C 
HETATM   41  C   UNL     1     -44.731  57.887 -57.410  1.00  0.00     0.039 A 
ENDBRANCH  28  31
ENDBRANCH   1  27
TORSDOF 6
ENDMDL
MODEL 2
REMARK VINA RESULT:      -9.8      2.018      8.115
REMARK  6 active torsions:
REMARK  status: ('A' for Active; 'I' for Inactive)
REMARK    1  A    between atoms: C_8  and  N_9 
REMARK       I    between atoms: N_9  and  C_10 
REMARK    2  A    between atoms: C_10  and  C_12 
REMARK    3  A    between atoms: C_16  and  C_17 
REMARK    4  A    between atoms: C_17  and  N_18 
REMARK       I    between atoms: N_18  and  C_19 
REMARK    5  A    between atoms: C_19  and  C_21 
REMARK    6  A    between atoms: C_25  and  C_31 
REMARK       I    between atoms: C_31  and  N_33 
ROOT
HETATM    1  C   UNL     1     -42.101  58.209 -51.548  1.00  0.00     0.032 A 
HETATM    2  C   UNL     1     -41.545  58.903 -50.467  1.00  0.00     0.017 A 
HETATM    3  C   UNL     1     -41.708  60.286 -50.372  1.00  0.00     0.002 A 
HETATM    4  C   UNL     1     -42.416  60.981 -51.355  1.00  0.00     0.009 A 
HETATM    5  C   UNL     1     -42.978  60.300 -52.444  1.00  0.00    -0.040 A 
HETATM    6  C   UNL     1     -42.804  58.912 -52.538  1.00  0.00     0.026 A 
ENDROOT
BRANCH   5   7
HETATM    7  C   UNL     1     -43.714  61.051 -53.522  1.00  0.00     0.161 C 
BRANCH   7   8
HETATM    8  N   UNL     1     -44.058  60.178 -54.617  1.00  0.00    -0.351 N 
HETATM    9  C   UNL     1     -43.795  60.503 -55.928  1.00  0.00     0.268 C 
HETATM   10  O   UNL     1     -43.257  61.566 -56.229  1.00  0.00    -0.266 OA
HETATM   11  H   UNL     1     -44.381  59.251 -54.391  1.00  0.00     0.163 HD
BRANCH   9  12
HETATM   12  C   UNL     1     -44.212  59.509 -56.909  1.00  0.00     0.103 A 
HETATM   13  C   UNL     1     -43.505  58.444 -57.451  1.00  0.00     0.049 A 
HETATM   14  C   UNL     1     -44.357  57.715 -58.321  1.00  0.00    -0.006 A 
HETATM   15  C   UNL     1     -44.181  56.552 -59.097  1.00  0.00     0.030 A 
HETATM   16  C   UNL     1     -45.595  58.354 -58.317  1.00  0.00     0.045 A 
HETATM   17  C   UNL     1     -45.251  56.046 -59.853  1.00  0.00     0.032 A 
HETATM   18  C   UNL     1     -46.488  56.695 -59.824  1.00  0.00     0.019 A 
HETATM   19  C   UNL     1     -46.677  57.859 -59.064  1.00  0.00     0.031 A 
HETATM   20  N   UNL     1     -45.479  59.449 -57.479  1.00  0.00    -0.346 N 
HETATM   21  C   UNL     1     -46.542  60.402 -57.216  1.00  0.00     0.156 C 
BRANCH  17  22
HETATM   22  C   UNL     1     -45.016  54.800 -60.636  1.00  0.00     0.249 C 
HETATM   23  O   UNL     1     -44.990  54.805 -61.861  1.00  0.00    -0.268 OA
HETATM   24  N   UNL     1     -44.852  53.627 -59.952  1.00  0.00    -0.366 N 
HETATM   25  H   UNL     1     -45.060  53.515 -58.972  1.00  0.00     0.159 HD
HETATM   26  H   UNL     1     -44.776  52.790 -60.516  1.00  0.00     0.159 HD
ENDBRANCH  17  22
ENDBRANCH   9  12
ENDBRANCH   7   8
ENDBRANCH   5   7
BRANCH   1  27
HETATM   27  C   UNL     1     -41.937  56.737 -51.720  1.00  0.00     0.256 C 
HETATM   28  N   UNL     1     -41.252  56.348 -52.857  1.00  0.00    -0.323 N 
HETATM   29  H   UNL     1     -40.849  57.078 -53.426  1.00  0.00     0.169 HD
HETATM   30  O   UNL     1     -42.381  56.008 -50.841  1.00  0.00    -0.267 OA
BRANCH  28  31
HETATM   31  C   UNL     1     -40.965  55.027 -53.270  1.00  0.00     0.035 A 
HETATM   32  C   UNL     1     -41.055  54.587 -54.589  1.00  0.00     0.030 A 
HETATM   33  C   UNL     1     -40.760  53.261 -54.919  1.00  0.00     0.010 A 
HETATM   34  C   UNL     1     -40.359  52.355 -53.933  1.00  0.00    -0.048 A 
HETATM   35  C   UNL     1     -40.091  50.915 -54.288  1.00  0.00     0.069 C 
HETATM   36  C   UNL     1     -40.273  52.779 -52.597  1.00  0.00    -0.022 A 
HETATM   37  C   UNL     1     -39.314  50.173 -53.195  1.00  0.00     0.277 C 
HETATM   38  N   UNL     1     -39.921  50.408 -51.877  1.00  0.00     0.088 N 
HETATM   39  C   UNL     1     -39.296  49.567 -50.859  1.00  0.00     0.310 C 
HETATM   40  C   UNL     1     -39.798  51.831 -51.514  1.00  0.00     0.311 C 
HETATM   41  C   UNL     1     -40.565  54.117 -52.280  1.00  0.00     0.039 A 
ENDBRANCH  28  31
ENDBRANCH   1  27
TORSDOF 6
ENDMDL
MODEL 3
REMARK VINA RESULT:      -9.6      2.235      8.046
REMARK  6 active torsions:
REMARK  status: ('A' for Active; 'I' for Inactive)
REMARK    1  A    between atoms: C_8  and  N_9 
REMARK       I    between atoms: N_9  and  C_10 
REMARK    2  A    between atoms: C_10  and  C_12 
REMARK    3  A    between atoms: C_16  and  C_17 
REMARK    4  A    between atoms: C_17  and  N_18 
REMARK       I    between atoms: N_18  and  C_19 
REMARK    5  A    between atoms: C_19  and  C_21 
REMARK    6  A    between atoms: C_25  and  C_31 
REMARK       I    between atoms: C_31  and  N_33 
ROOT
HETATM    1  C   UNL     1     -42.393  59.298 -51.159  1.00  0.00     0.032 A 
HETATM    2  C   UNL     1     -42.067  60.423 -50.393  1.00  0.00     0.017 A 
HETATM    3  C   UNL     1     -42.940  61.513 -50.354  1.00  0.00     0.002 A 
HETATM    4  C   UNL     1     -44.132  61.486 -51.081  1.00  0.00     0.009 A 
HETATM    5  C   UNL     1     -44.472  60.366 -51.852  1.00  0.00    -0.040 A 
HETATM    6  C   UNL     1     -43.587  59.279 -51.894  1.00  0.00     0.026 A 
ENDROOT
BRANCH   5   7
HETATM    7  C   UNL     1     -45.741  60.348 -52.662  1.00  0.00     0.161 C 
BRANCH   7   8
HETATM    8  N   UNL     1     -45.591  59.527 -53.839  1.00  0.00    -0.351 N 
HETATM    9  C   UNL     1     -45.048  60.009 -55.008  1.00  0.00     0.268 C 
HETATM   10  O   UNL     1     -44.669  61.173 -55.106  1.00  0.00    -0.266 OA
HETATM   11  H   UNL     1     -45.775  58.541 -53.746  1.00  0.00     0.163 HD
BRANCH   9  12
HETATM   12  C   UNL     1     -44.976  59.046 -56.100  1.00  0.00     0.103 A 
HETATM   13  C   UNL     1     -45.884  58.789 -57.119  1.00  0.00     0.049 A 
HETATM   14  C   UNL     1     -45.343  57.805 -57.986  1.00  0.00    -0.006 A 
HETATM   15  C   UNL     1     -45.806  57.200 -59.172  1.00  0.00     0.030 A 
HETATM   16  C   UNL     1     -44.095  57.448 -57.479  1.00  0.00     0.045 A 
HETATM   17  C   UNL     1     -45.007  56.252 -59.832  1.00  0.00     0.032 A 
HETATM   18  C   UNL     1     -43.753  55.920 -59.314  1.00  0.00     0.019 A 
HETATM   19  C   UNL     1     -43.282  56.505 -58.129  1.00  0.00     0.031 A 
HETATM   20  N   UNL     1     -43.904  58.191 -56.327  1.00  0.00    -0.346 N 
HETATM   21  C   UNL     1     -42.733  58.102 -55.474  1.00  0.00     0.156 C 
BRANCH  17  22
HETATM   22  C   UNL     1     -45.536  55.663 -61.095  1.00  0.00     0.249 C 
HETATM   23  O   UNL     1     -44.913  54.809 -61.717  1.00  0.00    -0.268 OA
HETATM   24  N   UNL     1     -46.735  56.117 -61.569  1.00  0.00    -0.366 N 
HETATM   25  H   UNL     1     -47.196  56.945 -61.228  1.00  0.00     0.159 HD
HETATM   26  H   UNL     1     -47.023  55.754 -62.469  1.00  0.00     0.159 HD
ENDBRANCH  17  22
ENDBRANCH   9  12
ENDBRANCH   7   8
ENDBRANCH   5   7
BRANCH   1  27
HETATM   27  C   UNL     1     -41.489  58.116 -51.263  1.00  0.00     0.256 C 
HETATM   28  N   UNL     1     -42.012  56.929 -50.782  1.00  0.00    -0.323 N 
HETATM   29  H   UNL     1     -42.977  56.937 -50.483  1.00  0.00     0.169 HD
HETATM   30  O   UNL     1     -40.395  58.280 -51.790  1.00  0.00    -0.267 OA
BRANCH  28  31
HETATM   31  C   UNL     1     -41.375  55.668 -50.749  1.00  0.00     0.035 A 
HETATM   32  C   UNL     1     -40.756  55.139 -49.617  1.00  0.00     0.030 A 
HETATM   33  C   UNL     1     -40.140  53.885 -49.664  1.00  0.00     0.010 A 
HETATM   34  C   UNL     1     -40.143  53.134 -50.844  1.00  0.00    -0.048 A 
HETATM   35  C   UNL     1     -39.434  51.806 -50.899  1.00  0.00     0.069 C 
HETATM   36  C   UNL     1     -40.753  53.657 -51.995  1.00  0.00    -0.022 A 
HETATM   37  C   UNL     1     -39.851  50.966 -52.113  1.00  0.00     0.277 C 
HETATM   38  N   UNL     1     -39.805  51.773 -53.341  1.00  0.00     0.088 N 
HETATM   39  C   UNL     1     -40.028  50.938 -54.520  1.00  0.00     0.310 C 
HETATM   40  C   UNL     1     -40.812  52.847 -53.275  1.00  0.00     0.311 C 
HETATM   41  C   UNL     1     -41.375  54.916 -51.932  1.00  0.00     0.039 A 
ENDBRANCH  28  31
ENDBRANCH   1  27
TORSDOF 6
ENDMDL
MODEL 4
REMARK VINA RESULT:      -9.4      2.627      8.727
REMARK  6 active torsions:
REMARK  status: ('A' for Active; 'I' for Inactive)
REMARK    1  A    between atoms: C_8  and  N_9 
REMARK       I    between atoms: N_9  and  C_10 
REMARK    2  A    between atoms: C_10  and  C_12 
REMARK    3  A    between atoms: C_16  and  C_17 
REMARK    4  A    between atoms: C_17  and  N_18 
REMARK       I    between atoms: N_18  and  C_19 
REMARK    5  A    between atoms: C_19  and  C_21 
REMARK    6  A    between atoms: C_25  and  C_31 
REMARK       I    between atoms: C_31  and  N_33 
ROOT
HETATM    1  C   UNL     1     -43.116  56.024 -57.910  1.00  0.00     0.032 A 
HETATM    2  C   UNL     1     -43.357  55.575 -59.214  1.00  0.00     0.017 A 
HETATM    3  C   UNL     1     -43.630  56.496 -60.227  1.00  0.00     0.002 A 
HETATM    4  C   UNL     1     -43.671  57.863 -59.942  1.00  0.00     0.009 A 
HETATM    5  C   UNL     1     -43.433  58.328 -58.642  1.00  0.00    -0.040 A 
HETATM    6  C   UNL     1     -43.168  57.397 -57.627  1.00  0.00     0.026 A 
ENDROOT
BRANCH   5   7
HETATM    7  C   UNL     1     -43.509  59.799 -58.326  1.00  0.00     0.161 C 
BRANCH   7   8
HETATM    8  N   UNL     1     -43.507  60.022 -56.901  1.00  0.00    -0.351 N 
HETATM    9  C   UNL     1     -42.406  60.503 -56.233  1.00  0.00     0.268 C 
HETATM   10  O   UNL     1     -41.359  60.760 -56.823  1.00  0.00    -0.266 OA
HETATM   11  H   UNL     1     -44.386  59.941 -56.416  1.00  0.00     0.163 HD
BRANCH   9  12
HETATM   12  C   UNL     1     -42.575  60.664 -54.794  1.00  0.00     0.103 A 
HETATM   13  C   UNL     1     -43.310  61.605 -54.086  1.00  0.00     0.049 A 
HETATM   14  C   UNL     1     -43.222  61.318 -52.699  1.00  0.00    -0.006 A 
HETATM   15  C   UNL     1     -43.781  61.911 -51.550  1.00  0.00     0.030 A 
HETATM   16  C   UNL     1     -42.411  60.194 -52.562  1.00  0.00     0.045 A 
HETATM   17  C   UNL     1     -43.522  61.364 -50.282  1.00  0.00     0.032 A 
HETATM   18  C   UNL     1     -42.717  60.228 -50.169  1.00  0.00     0.019 A 
HETATM   19  C   UNL     1     -42.144  59.631 -51.302  1.00  0.00     0.031 A 
HETATM   20  N   UNL     1     -42.010  59.830 -53.836  1.00  0.00    -0.346 N 
HETATM   21  C   UNL     1     -41.128  58.717 -54.136  1.00  0.00     0.156 C 
BRANCH  17  22
HETATM   22  C   UNL     1     -44.160  62.018 -49.104  1.00  0.00     0.249 C 
HETATM   23  O   UNL     1     -44.274  63.236 -49.028  1.00  0.00    -0.268 OA
HETATM   24  N   UNL     1     -44.599  61.223 -48.082  1.00  0.00    -0.366 N 
HETATM   25  H   UNL     1     -44.358  60.249 -47.986  1.00  0.00     0.159 HD
HETATM   26  H   UNL     1     -44.952  61.704 -47.265  1.00  0.00     0.159 HD
ENDBRANCH  17  22
ENDBRANCH   9  12
ENDBRANCH   7   8
ENDBRANCH   5   7
BRANCH   1  27
HETATM   27  C   UNL     1     -42.847  55.088 -56.781  1.00  0.00     0.256 C 
HETATM   28  N   UNL     1     -41.700  55.354 -56.055  1.00  0.00    -0.323 N 
HETATM   29  H   UNL     1     -41.191  56.195 -56.287  1.00  0.00     0.169 HD
HETATM   30  O   UNL     1     -43.665  54.201 -56.568  1.00  0.00    -0.267 OA
BRANCH  28  31
HETATM   31  C   UNL     1     -41.203  54.627 -54.949  1.00  0.00     0.035 A 
HETATM   32  C   UNL     1     -40.508  53.424 -55.058  1.00  0.00     0.030 A 
HETATM   33  C   UNL     1     -40.053  52.759 -53.915  1.00  0.00     0.010 A 
HETATM   34  C   UNL     1     -40.276  53.296 -52.643  1.00  0.00    -0.048 A 
HETATM   35  C   UNL     1     -39.826  52.549 -51.414  1.00  0.00     0.069 C 
HETATM   36  C   UNL     1     -40.983  54.503 -52.516  1.00  0.00    -0.022 A 
HETATM   37  C   UNL     1     -39.807  53.433 -50.162  1.00  0.00     0.277 C 
HETATM   38  N   UNL     1     -41.067  54.181 -50.036  1.00  0.00     0.088 N 
HETATM   39  C   UNL     1     -41.127  54.886 -48.757  1.00  0.00     0.310 C 
HETATM   40  C   UNL     1     -41.201  55.131 -51.154  1.00  0.00     0.311 C 
HETATM   41  C   UNL     1     -41.429  55.164 -53.673  1.00  0.00     0.039 A 
ENDBRANCH  28  31
ENDBRANCH   1  27
TORSDOF 6
ENDMDL
MODEL 5
REMARK VINA RESULT:      -9.3      2.260      9.095
REMARK  6 active torsions:
REMARK  status: ('A' for Active; 'I' for Inactive)
REMARK    1  A    between atoms: C_8  and  N_9 
REMARK       I    between atoms: N_9  and  C_10 
REMARK    2  A    between atoms: C_10  and  C_12 
REMARK    3  A    between atoms: C_16  and  C_17 
REMARK    4  A    between atoms: C_17  and  N_18 
REMARK       I    between atoms: N_18  and  C_19 
REMARK    5  A    between atoms: C_19  and  C_21 
REMARK    6  A    between atoms: C_25  and  C_31 
REMARK       I    between atoms: C_31  and  N_33 
ROOT
HETATM    1  C   UNL     1     -42.828  58.346 -52.163  1.00  0.00     0.032 A 
HETATM    2  C   UNL     1     -43.269  59.355 -51.300  1.00  0.00     0.017 A 
HETATM    3  C   UNL     1     -43.418  60.660 -51.775  1.00  0.00     0.002 A 
HETATM    4  C   UNL     1     -43.121  60.962 -53.106  1.00  0.00     0.009 A 
HETATM    5  C   UNL     1     -42.677  59.962 -53.982  1.00  0.00    -0.040 A 
HETATM    6  C   UNL     1     -42.522  58.656 -53.496  1.00  0.00     0.026 A 
ENDROOT
BRANCH   5   7
HETATM    7  C   UNL     1     -42.326  60.292 -55.409  1.00  0.00     0.161 C 
BRANCH   7   8
HETATM    8  N   UNL     1     -43.251  59.672 -56.325  1.00  0.00    -0.351 N 
HETATM    9  C   UNL     1     -42.874  59.253 -57.580  1.00  0.00     0.268 C 
HETATM   10  O   UNL     1     -41.723  59.395 -57.985  1.00  0.00    -0.266 OA
HETATM   11  H   UNL     1     -44.163  59.430 -55.974  1.00  0.00     0.163 HD
BRANCH   9  12
HETATM   12  C   UNL     1     -43.937  58.652 -58.378  1.00  0.00     0.103 A 
HETATM   13  C   UNL     1     -44.957  59.258 -59.099  1.00  0.00     0.049 A 
HETATM   14  C   UNL     1     -45.711  58.260 -59.768  1.00  0.00    -0.006 A 
HETATM   15  C   UNL     1     -46.814  58.303 -60.643  1.00  0.00     0.030 A 
HETATM   16  C   UNL     1     -45.148  57.028 -59.438  1.00  0.00     0.045 A 
HETATM   17  C   UNL     1     -47.333  57.112 -61.177  1.00  0.00     0.032 A 
HETATM   18  C   UNL     1     -46.745  55.890 -60.843  1.00  0.00     0.019 A 
HETATM   19  C   UNL     1     -45.652  55.827 -59.966  1.00  0.00     0.031 A 
HETATM   20  N   UNL     1     -44.095  57.286 -58.578  1.00  0.00    -0.346 N 
HETATM   21  C   UNL     1     -43.256  56.267 -57.974  1.00  0.00     0.156 C 
BRANCH  17  22
HETATM   22  C   UNL     1     -48.485  57.219 -62.116  1.00  0.00     0.249 C 
HETATM   23  O   UNL     1     -48.847  56.269 -62.800  1.00  0.00    -0.268 OA
HETATM   24  N   UNL     1     -49.125  58.423 -62.220  1.00  0.00    -0.366 N 
HETATM   25  H   UNL     1     -48.762  59.286 -61.848  1.00  0.00     0.159 HD
HETATM   26  H   UNL     1     -49.849  58.482 -62.925  1.00  0.00     0.159 HD
ENDBRANCH  17  22
ENDBRANCH   9  12
ENDBRANCH   7   8
ENDBRANCH   5   7
BRANCH   1  27
HETATM   27  C   UNL     1     -42.622  56.941 -51.708  1.00  0.00     0.256 C 
HETATM   28  N   UNL     1     -41.414  56.373 -52.071  1.00  0.00    -0.323 N 
HETATM   29  H   UNL     1     -40.743  56.971 -52.532  1.00  0.00     0.169 HD
HETATM   30  O   UNL     1     -43.505  56.426 -51.031  1.00  0.00    -0.267 OA
BRANCH  28  31
HETATM   31  C   UNL     1     -40.966  55.063 -51.783  1.00  0.00     0.035 A 
HETATM   32  C   UNL     1     -40.641  54.617 -50.503  1.00  0.00     0.030 A 
HETATM   33  C   UNL     1     -40.199  53.307 -50.298  1.00  0.00     0.010 A 
HETATM   34  C   UNL     1     -40.086  52.418 -51.371  1.00  0.00    -0.048 A 
HETATM   35  C   UNL     1     -39.561  51.023 -51.148  1.00  0.00     0.069 C 
HETATM   36  C   UNL     1     -40.400  52.854 -52.668  1.00  0.00    -0.022 A 
HETATM   37  C   UNL     1     -39.855  50.087 -52.327  1.00  0.00     0.277 C 
HETATM   38  N   UNL     1     -39.479  50.722 -53.599  1.00  0.00     0.088 N 
HETATM   39  C   UNL     1     -39.591  49.774 -54.706  1.00  0.00     0.310 C 
HETATM   40  C   UNL     1     -40.330  51.900 -53.844  1.00  0.00     0.311 C 
HETATM   41  C   UNL     1     -40.850  54.172 -52.859  1.00  0.00     0.039 A 
ENDBRANCH  28  31
ENDBRANCH   1  27
TORSDOF 6
ENDMDL
MODEL 6
REMARK VINA RESULT:      -9.3      2.638      8.306
REMARK  6 active torsions:
REMARK  status: ('A' for Active; 'I' for Inactive)
REMARK    1  A    between atoms: C_8  and  N_9 
REMARK       I    between atoms: N_9  and  C_10 
REMARK    2  A    between atoms: C_10  and  C_12 
REMARK    3  A    between atoms: C_16  and  C_17 
REMARK    4  A    between atoms: C_17  and  N_18 
REMARK       I    between atoms: N_18  and  C_19 
REMARK    5  A    between atoms: C_19  and  C_21 
REMARK    6  A    between atoms: C_25  and  C_31 
REMARK       I    between atoms: C_31  and  N_33 
ROOT
HETATM    1  C   UNL     1     -44.879  59.147 -51.138  1.00  0.00     0.032 A 
HETATM    2  C   UNL     1     -45.450  59.848 -50.070  1.00  0.00     0.017 A 
HETATM    3  C   UNL     1     -45.962  61.131 -50.275  1.00  0.00     0.002 A 
HETATM    4  C   UNL     1     -45.898  61.719 -51.541  1.00  0.00     0.009 A 
HETATM    5  C   UNL     1     -45.329  61.030 -52.620  1.00  0.00    -0.040 A 
HETATM    6  C   UNL     1     -44.810  59.745 -52.404  1.00  0.00     0.026 A 
ENDROOT
BRANCH   5   7
HETATM    7  C   UNL     1     -45.230  61.674 -53.977  1.00  0.00     0.161 C 
BRANCH   7   8
HETATM    8  N   UNL     1     -45.361  60.693 -55.026  1.00  0.00    -0.351 N 
HETATM    9  C   UNL     1     -44.782  60.855 -56.263  1.00  0.00     0.268 C 
HETATM   10  O   UNL     1     -44.126  61.857 -56.537  1.00  0.00    -0.266 OA
HETATM   11  H   UNL     1     -45.784  59.810 -54.788  1.00  0.00     0.163 HD
BRANCH   9  12
HETATM   12  C   UNL     1     -45.020  59.769 -57.206  1.00  0.00     0.103 A 
HETATM   13  C   UNL     1     -44.200  58.708 -57.564  1.00  0.00     0.049 A 
HETATM   14  C   UNL     1     -44.893  57.870 -58.475  1.00  0.00    -0.006 A 
HETATM   15  C   UNL     1     -44.564  56.664 -59.125  1.00  0.00     0.030 A 
HETATM   16  C   UNL     1     -46.149  58.437 -58.684  1.00  0.00     0.045 A 
HETATM   17  C   UNL     1     -45.499  56.045 -59.970  1.00  0.00     0.032 A 
HETATM   18  C   UNL     1     -46.757  56.624 -60.154  1.00  0.00     0.019 A 
HETATM   19  C   UNL     1     -47.098  57.829 -59.522  1.00  0.00     0.031 A 
HETATM   20  N   UNL     1     -46.196  59.597 -57.929  1.00  0.00    -0.346 N 
HETATM   21  C   UNL     1     -47.326  60.506 -57.883  1.00  0.00     0.156 C 
BRANCH  17  22
HETATM   22  C   UNL     1     -45.106  54.759 -60.612  1.00  0.00     0.249 C 
HETATM   23  O   UNL     1     -44.894  54.680 -61.817  1.00  0.00    -0.268 OA
HETATM   24  N   UNL     1     -45.007  53.645 -59.824  1.00  0.00    -0.366 N 
HETATM   25  H   UNL     1     -45.358  53.593 -58.881  1.00  0.00     0.159 HD
HETATM   26  H   UNL     1     -44.818  52.775 -60.306  1.00  0.00     0.159 HD
ENDBRANCH  17  22
ENDBRANCH   9  12
ENDBRANCH   7   8
ENDBRANCH   5   7
BRANCH   1  27
HETATM   27  C   UNL     1     -44.292  57.786 -50.975  1.00  0.00     0.256 C 
HETATM   28  N   UNL     1     -42.915  57.720 -51.091  1.00  0.00    -0.323 N 
HETATM   29  H   UNL     1     -42.417  58.593 -51.188  1.00  0.00     0.169 HD
HETATM   30  O   UNL     1     -45.056  56.862 -50.720  1.00  0.00    -0.267 OA
BRANCH  28  31
HETATM   31  C   UNL     1     -42.106  56.565 -50.991  1.00  0.00     0.035 A 
HETATM   32  C   UNL     1     -41.342  56.246 -49.869  1.00  0.00     0.030 A 
HETATM   33  C   UNL     1     -40.560  55.087 -49.847  1.00  0.00     0.010 A 
HETATM   34  C   UNL     1     -40.540  54.222 -50.945  1.00  0.00    -0.048 A 
HETATM   35  C   UNL     1     -39.656  53.001 -50.933  1.00  0.00     0.069 C 
HETATM   36  C   UNL     1     -41.295  54.534 -52.087  1.00  0.00    -0.022 A 
HETATM   37  C   UNL     1     -40.033  51.990 -52.022  1.00  0.00     0.277 C 
HETATM   38  N   UNL     1     -40.186  52.661 -53.321  1.00  0.00     0.088 N 
HETATM   39  C   UNL     1     -40.370  51.684 -54.392  1.00  0.00     0.310 C 
HETATM   40  C   UNL     1     -41.327  53.593 -53.274  1.00  0.00     0.311 C 
HETATM   41  C   UNL     1     -42.082  55.698 -52.092  1.00  0.00     0.039 A 
ENDBRANCH  28  31
ENDBRANCH   1  27
TORSDOF 6
ENDMDL
MODEL 7
REMARK VINA RESULT:      -8.8      2.556      8.949
REMARK  6 active torsions:
REMARK  status: ('A' for Active; 'I' for Inactive)
REMARK    1  A    between atoms: C_8  and  N_9 
REMARK       I    between atoms: N_9  and  C_10 
REMARK    2  A    between atoms: C_10  and  C_12 
REMARK    3  A    between atoms: C_16  and  C_17 
REMARK    4  A    between atoms: C_17  and  N_18 
REMARK       I    between atoms: N_18  and  C_19 
REMARK    5  A    between atoms: C_19  and  C_21 
REMARK    6  A    between atoms: C_25  and  C_31 
REMARK       I    between atoms: C_31  and  N_33 
ROOT
HETATM    1  C   UNL     1     -42.991  56.245 -57.878  1.00  0.00     0.032 A 
HETATM    2  C   UNL     1     -42.946  55.767 -59.193  1.00  0.00     0.017 A 
HETATM    3  C   UNL     1     -43.184  56.640 -60.257  1.00  0.00     0.002 A 
HETATM    4  C   UNL     1     -43.474  57.985 -60.013  1.00  0.00     0.009 A 
HETATM    5  C   UNL     1     -43.523  58.477 -58.701  1.00  0.00    -0.040 A 
HETATM    6  C   UNL     1     -43.291  57.593 -57.637  1.00  0.00     0.026 A 
ENDROOT
BRANCH   5   7
HETATM    7  C   UNL     1     -43.867  59.919 -58.435  1.00  0.00     0.161 C 
BRANCH   7   8
HETATM    8  N   UNL     1     -43.788  60.216 -57.025  1.00  0.00    -0.351 N 
HETATM    9  C   UNL     1     -42.806  61.021 -56.497  1.00  0.00     0.268 C 
HETATM   10  O   UNL     1     -41.937  61.522 -57.206  1.00  0.00    -0.266 OA
HETATM   11  H   UNL     1     -44.557  59.923 -56.444  1.00  0.00     0.163 HD
BRANCH   9  12
HETATM   12  C   UNL     1     -42.872  61.212 -55.053  1.00  0.00     0.103 A 
HETATM   13  C   UNL     1     -43.480  62.221 -54.318  1.00  0.00     0.049 A 
HETATM   14  C   UNL     1     -43.331  61.943 -52.934  1.00  0.00    -0.006 A 
HETATM   15  C   UNL     1     -43.766  62.595 -51.763  1.00  0.00     0.030 A 
HETATM   16  C   UNL     1     -42.611  60.755 -52.828  1.00  0.00     0.045 A 
HETATM   17  C   UNL     1     -43.476  62.043 -50.505  1.00  0.00     0.032 A 
HETATM   18  C   UNL     1     -42.765  60.843 -50.422  1.00  0.00     0.019 A 
HETATM   19  C   UNL     1     -42.316  60.186 -51.577  1.00  0.00     0.031 A 
HETATM   20  N   UNL     1     -42.322  60.344 -54.117  1.00  0.00    -0.346 N 
HETATM   21  C   UNL     1     -41.559  59.156 -54.452  1.00  0.00     0.156 C 
BRANCH  17  22
HETATM   22  C   UNL     1     -43.982  62.762 -49.301  1.00  0.00     0.249 C 
HETATM   23  O   UNL     1     -44.670  62.198 -48.457  1.00  0.00    -0.268 OA
HETATM   24  N   UNL     1     -43.681  64.088 -49.166  1.00  0.00    -0.366 N 
HETATM   25  H   UNL     1     -43.301  64.656 -49.907  1.00  0.00     0.159 HD
HETATM   26  H   UNL     1     -44.108  64.563 -48.380  1.00  0.00     0.159 HD
ENDBRANCH  17  22
ENDBRANCH   9  12
ENDBRANCH   7   8
ENDBRANCH   5   7
BRANCH   1  27
HETATM   27  C   UNL     1     -42.773  55.357 -56.699  1.00  0.00     0.256 C 
HETATM   28  N   UNL     1     -41.729  55.724 -55.869  1.00  0.00    -0.323 N 
HETATM   29  H   UNL     1     -41.261  56.595 -56.073  1.00  0.00     0.169 HD
HETATM   30  O   UNL     1     -43.543  54.416 -56.545  1.00  0.00    -0.267 OA
BRANCH  28  31
HETATM   31  C   UNL     1     -41.299  55.061 -54.697  1.00  0.00     0.035 A 
HETATM   32  C   UNL     1     -41.183  55.679 -53.453  1.00  0.00     0.030 A 
HETATM   33  C   UNL     1     -40.744  54.958 -52.339  1.00  0.00     0.010 A 
HETATM   34  C   UNL     1     -40.425  53.601 -52.449  1.00  0.00    -0.048 A 
HETATM   35  C   UNL     1     -39.906  52.844 -51.255  1.00  0.00     0.069 C 
HETATM   36  C   UNL     1     -40.528  52.966 -53.697  1.00  0.00    -0.022 A 
HETATM   37  C   UNL     1     -39.970  51.324 -51.447  1.00  0.00     0.277 C 
HETATM   38  N   UNL     1     -39.403  50.942 -52.749  1.00  0.00     0.088 N 
HETATM   39  C   UNL     1     -39.299  49.489 -52.864  1.00  0.00     0.310 C 
HETATM   40  C   UNL     1     -40.233  51.486 -53.838  1.00  0.00     0.311 C 
HETATM   41  C   UNL     1     -40.978  53.701 -54.808  1.00  0.00     0.039 A 
ENDBRANCH  28  31
ENDBRANCH   1  27
TORSDOF 6
ENDMDL
MODEL 8
REMARK VINA RESULT:      -8.8      3.333      4.197
REMARK  6 active torsions:
REMARK  status: ('A' for Active; 'I' for Inactive)
REMARK    1  A    between atoms: C_8  and  N_9 
REMARK       I    between atoms: N_9  and  C_10 
REMARK    2  A    between atoms: C_10  and  C_12 
REMARK    3  A    between atoms: C_16  and  C_17 
REMARK    4  A    between atoms: C_17  and  N_18 
REMARK       I    between atoms: N_18  and  C_19 
REMARK    5  A    between atoms: C_19  and  C_21 
REMARK    6  A    between atoms: C_25  and  C_31 
REMARK       I    between atoms: C_31  and  N_33 
ROOT
HETATM    1  C   UNL     1     -44.451  59.697 -54.197  1.00  0.00     0.032 A 
HETATM    2  C   UNL     1     -45.531  60.563 -53.989  1.00  0.00     0.017 A 
HETATM    3  C   UNL     1     -46.172  60.589 -52.749  1.00  0.00     0.002 A 
HETATM    4  C   UNL     1     -45.743  59.750 -51.718  1.00  0.00     0.009 A 
HETATM    5  C   UNL     1     -44.663  58.877 -51.911  1.00  0.00    -0.040 A 
HETATM    6  C   UNL     1     -44.030  58.850 -53.162  1.00  0.00     0.026 A 
ENDROOT
BRANCH   5   7
HETATM    7  C   UNL     1     -44.220  57.948 -50.811  1.00  0.00     0.161 C 
BRANCH   7   8
HETATM    8  N   UNL     1     -43.496  56.822 -51.347  1.00  0.00    -0.351 N 
HETATM    9  C   UNL     1     -42.145  56.653 -51.146  1.00  0.00     0.268 C 
HETATM   10  O   UNL     1     -41.486  57.465 -50.501  1.00  0.00    -0.266 OA
HETATM   11  H   UNL     1     -44.032  56.081 -51.769  1.00  0.00     0.163 HD
BRANCH   9  12
HETATM   12  C   UNL     1     -41.572  55.462 -51.763  1.00  0.00     0.103 A 
HETATM   13  C   UNL     1     -41.372  54.196 -51.231  1.00  0.00     0.049 A 
HETATM   14  C   UNL     1     -40.840  53.347 -52.237  1.00  0.00    -0.006 A 
HETATM   15  C   UNL     1     -40.481  51.985 -52.265  1.00  0.00     0.030 A 
HETATM   16  C   UNL     1     -40.702  54.114 -53.392  1.00  0.00     0.045 A 
HETATM   17  C   UNL     1     -39.996  51.413 -53.451  1.00  0.00     0.032 A 
HETATM   18  C   UNL     1     -39.879  52.196 -54.602  1.00  0.00     0.019 A 
HETATM   19  C   UNL     1     -40.222  53.556 -54.589  1.00  0.00     0.031 A 
HETATM   20  N   UNL     1     -41.125  55.394 -53.078  1.00  0.00    -0.346 N 
HETATM   21  C   UNL     1     -41.119  56.514 -54.000  1.00  0.00     0.156 C 
BRANCH  17  22
HETATM   22  C   UNL     1     -39.655  49.962 -53.430  1.00  0.00     0.249 C 
HETATM   23  O   UNL     1     -39.543  49.312 -54.463  1.00  0.00    -0.268 OA
HETATM   24  N   UNL     1     -39.493  49.353 -52.217  1.00  0.00    -0.366 N 
HETATM   25  H   UNL     1     -39.765  49.768 -51.340  1.00  0.00     0.159 HD
HETATM   26  H   UNL     1     -39.343  48.352 -52.238  1.00  0.00     0.159 HD
ENDBRANCH  17  22
ENDBRANCH   9  12
ENDBRANCH   7   8
ENDBRANCH   5   7
BRANCH   1  27
HETATM   27  C   UNL     1     -43.744  59.604 -55.507  1.00  0.00     0.256 C 
HETATM   28  N   UNL     1     -43.709  60.775 -56.243  1.00  0.00    -0.323 N 
HETATM   29  H   UNL     1     -44.080  61.606 -55.807  1.00  0.00     0.169 HD
HETATM   30  O   UNL     1     -43.231  58.531 -55.803  1.00  0.00    -0.267 OA
BRANCH  28  31
HETATM   31  C   UNL     1     -43.118  60.965 -57.513  1.00  0.00     0.035 A 
HETATM   32  C   UNL     1     -43.528  60.303 -58.669  1.00  0.00     0.030 A 
HETATM   33  C   UNL     1     -42.890  60.540 -59.889  1.00  0.00     0.010 A 
HETATM   34  C   UNL     1     -41.836  61.455 -59.975  1.00  0.00    -0.048 A 
HETATM   35  C   UNL     1     -41.121  61.668 -61.284  1.00  0.00     0.069 C 
HETATM   36  C   UNL     1     -41.404  62.124 -58.819  1.00  0.00    -0.022 A 
HETATM   37  C   UNL     1     -40.273  62.946 -61.291  1.00  0.00     0.277 C 
HETATM   38  N   UNL     1     -39.440  63.021 -60.082  1.00  0.00     0.088 N 
HETATM   39  C   UNL     1     -38.503  64.139 -60.165  1.00  0.00     0.310 C 
HETATM   40  C   UNL     1     -40.294  63.154 -58.890  1.00  0.00     0.311 C 
HETATM   41  C   UNL     1     -42.060  61.881 -57.599  1.00  0.00     0.039 A 
ENDBRANCH  28  31
ENDBRANCH   1  27
TORSDOF 6
ENDMDL
MODEL 9
REMARK VINA RESULT:      -8.8     16.212     18.742
REMARK  6 active torsions:
REMARK  status: ('A' for Active; 'I' for Inactive)
REMARK    1  A    between atoms: C_8  and  N_9 
REMARK       I    between atoms: N_9  and  C_10 
REMARK    2  A    between atoms: C_10  and  C_12 
REMARK    3  A    between atoms: C_16  and  C_17 
REMARK    4  A    between atoms: C_17  and  N_18 
REMARK       I    between atoms: N_18  and  C_19 
REMARK    5  A    between atoms: C_19  and  C_21 
REMARK    6  A    between atoms: C_25  and  C_31 
REMARK       I    between atoms: C_31  and  N_33 
ROOT
HETATM    1  C   UNL     1     -36.665  41.466 -57.434  1.00  0.00     0.032 A 
HETATM    2  C   UNL     1     -37.392  42.069 -56.400  1.00  0.00     0.017 A 
HETATM    3  C   UNL     1     -36.773  42.327 -55.175  1.00  0.00     0.002 A 
HETATM    4  C   UNL     1     -35.435  41.981 -54.976  1.00  0.00     0.009 A 
HETATM    5  C   UNL     1     -34.694  41.377 -56.001  1.00  0.00    -0.040 A 
HETATM    6  C   UNL     1     -35.324  41.112 -57.225  1.00  0.00     0.026 A 
ENDROOT
BRANCH   5   7
HETATM    7  C   UNL     1     -33.261  40.974 -55.777  1.00  0.00     0.161 C 
BRANCH   7   8
HETATM    8  N   UNL     1     -33.020  40.670 -54.387  1.00  0.00    -0.351 N 
HETATM    9  C   UNL     1     -33.145  39.397 -53.880  1.00  0.00     0.268 C 
HETATM   10  O   UNL     1     -33.478  38.453 -54.592  1.00  0.00    -0.266 OA
HETATM   11  H   UNL     1     -32.625  41.397 -53.813  1.00  0.00     0.163 HD
BRANCH   9  12
HETATM   12  C   UNL     1     -32.871  39.269 -52.454  1.00  0.00     0.103 A 
HETATM   13  C   UNL     1     -31.821  39.780 -51.702  1.00  0.00     0.049 A 
HETATM   14  C   UNL     1     -32.018  39.443 -50.338  1.00  0.00    -0.006 A 
HETATM   15  C   UNL     1     -31.300  39.720 -49.158  1.00  0.00     0.030 A 
HETATM   16  C   UNL     1     -33.198  38.706 -50.262  1.00  0.00     0.045 A 
HETATM   17  C   UNL     1     -31.778  39.259 -47.921  1.00  0.00     0.032 A 
HETATM   18  C   UNL     1     -32.971  38.534 -47.867  1.00  0.00     0.019 A 
HETATM   19  C   UNL     1     -33.694  38.240 -49.032  1.00  0.00     0.031 A 
HETATM   20  N   UNL     1     -33.684  38.590 -51.553  1.00  0.00    -0.346 N 
HETATM   21  C   UNL     1     -34.889  37.870 -51.919  1.00  0.00     0.156 C 
BRANCH  17  22
HETATM   22  C   UNL     1     -30.991  39.603 -46.703  1.00  0.00     0.249 C 
HETATM   23  O   UNL     1     -31.119  38.978 -45.657  1.00  0.00    -0.268 OA
HETATM   24  N   UNL     1     -30.127  40.661 -46.769  1.00  0.00    -0.366 N 
HETATM   25  H   UNL     1     -30.120  41.334 -47.518  1.00  0.00     0.159 HD
HETATM   26  H   UNL     1     -29.670  40.916 -45.902  1.00  0.00     0.159 HD
ENDBRANCH  17  22
ENDBRANCH   9  12
ENDBRANCH   7   8
ENDBRANCH   5   7
BRANCH   1  27
HETATM   27  C   UNL     1     -37.277  41.139 -58.753  1.00  0.00     0.256 C 
HETATM   28  N   UNL     1     -37.577  39.804 -58.950  1.00  0.00    -0.323 N 
HETATM   29  H   UNL     1     -37.442  39.180 -58.167  1.00  0.00     0.169 HD
HETATM   30  O   UNL     1     -37.494  42.065 -59.526  1.00  0.00    -0.267 OA
BRANCH  28  31
HETATM   31  C   UNL     1     -38.150  39.219 -60.103  1.00  0.00     0.035 A 
HETATM   32  C   UNL     1     -37.481  39.080 -61.318  1.00  0.00     0.030 A 
HETATM   33  C   UNL     1     -38.117  38.496 -62.417  1.00  0.00     0.010 A 
HETATM   34  C   UNL     1     -39.432  38.030 -62.314  1.00  0.00    -0.048 A 
HETATM   35  C   UNL     1     -40.127  37.447 -63.517  1.00  0.00     0.069 C 
HETATM   36  C   UNL     1     -40.123  38.171 -61.100  1.00  0.00    -0.022 A 
HETATM   37  C   UNL     1     -41.388  36.658 -63.144  1.00  0.00     0.277 C 
HETATM   38  N   UNL     1     -42.232  37.436 -62.226  1.00  0.00     0.088 N 
HETATM   39  C   UNL     1     -43.514  36.768 -62.007  1.00  0.00     0.310 C 
HETATM   40  C   UNL     1     -41.532  37.636 -60.945  1.00  0.00     0.311 C 
HETATM   41  C   UNL     1     -39.469  38.754 -60.000  1.00  0.00     0.039 A 
ENDBRANCH  28  31
ENDBRANCH   1  27
TORSDOF 6
ENDMDL
MODEL 10
REMARK VINA RESULT:      -8.7      1.979      2.530
REMARK  6 active torsions:
REMARK  status: ('A' for Active; 'I' for Inactive)
REMARK    1  A    between atoms: C_8  and  N_9 
REMARK       I    between atoms: N_9  and  C_10 
REMARK    2  A    between atoms: C_10  and  C_12 
REMARK    3  A    between atoms: C_16  and  C_17 
REMARK    4  A    between atoms: C_17  and  N_18 
REMARK       I    between atoms: N_18  and  C_19 
REMARK    5  A    between atoms: C_19  and  C_21 
REMARK    6  A    between atoms: C_25  and  C_31 
REMARK       I    between atoms: C_31  and  N_33 
ROOT
HETATM    1  C   UNL     1     -45.830  61.043 -53.790  1.00  0.00     0.032 A 
HETATM    2  C   UNL     1     -46.933  61.843 -53.473  1.00  0.00     0.017 A 
HETATM    3  C   UNL     1     -47.134  62.259 -52.155  1.00  0.00     0.002 A 
HETATM    4  C   UNL     1     -46.242  61.872 -51.152  1.00  0.00     0.009 A 
HETATM    5  C   UNL     1     -45.133  61.070 -51.454  1.00  0.00    -0.040 A 
HETATM    6  C   UNL     1     -44.942  60.650 -52.778  1.00  0.00     0.026 A 
ENDROOT
BRANCH   5   7
HETATM    7  C   UNL     1     -44.189  60.626 -50.368  1.00  0.00     0.161 C 
BRANCH   7   8
HETATM    8  N   UNL     1     -43.561  59.373 -50.711  1.00  0.00    -0.351 N 
HETATM    9  C   UNL     1     -42.195  59.236 -50.806  1.00  0.00     0.268 C 
HETATM   10  O   UNL     1     -41.441  60.185 -50.609  1.00  0.00    -0.266 OA
HETATM   11  H   UNL     1     -44.146  58.554 -50.753  1.00  0.00     0.163 HD
BRANCH   9  12
HETATM   12  C   UNL     1     -41.730  57.902 -51.168  1.00  0.00     0.103 A 
HETATM   13  C   UNL     1     -41.332  56.850 -50.355  1.00  0.00     0.049 A 
HETATM   14  C   UNL     1     -41.025  55.726 -51.165  1.00  0.00    -0.006 A 
HETATM   15  C   UNL     1     -40.609  54.411 -50.879  1.00  0.00     0.030 A 
HETATM   16  C   UNL     1     -41.226  56.106 -52.491  1.00  0.00     0.045 A 
HETATM   17  C   UNL     1     -40.408  53.496 -51.926  1.00  0.00     0.032 A 
HETATM   18  C   UNL     1     -40.629  53.895 -53.246  1.00  0.00     0.019 A 
HETATM   19  C   UNL     1     -41.033  55.203 -53.550  1.00  0.00     0.031 A 
HETATM   20  N   UNL     1     -41.627  57.431 -52.472  1.00  0.00    -0.346 N 
HETATM   21  C   UNL     1     -41.916  58.222 -53.654  1.00  0.00     0.156 C 
BRANCH  17  22
HETATM   22  C   UNL     1     -39.992  52.111 -51.563  1.00  0.00     0.249 C 
HETATM   23  O   UNL     1     -39.391  51.393 -52.354  1.00  0.00    -0.268 OA
HETATM   24  N   UNL     1     -40.321  51.641 -50.322  1.00  0.00    -0.366 N 
HETATM   25  H   UNL     1     -40.979  52.093 -49.707  1.00  0.00     0.159 HD
HETATM   26  H   UNL     1     -40.095  50.671 -50.141  1.00  0.00     0.159 HD
ENDBRANCH  17  22
ENDBRANCH   9  12
ENDBRANCH   7   8
ENDBRANCH   5   7
BRANCH   1  27
HETATM   27  C   UNL     1     -45.578  60.545 -55.173  1.00  0.00     0.256 C 
HETATM   28  N   UNL     1     -45.343  59.185 -55.276  1.00  0.00    -0.323 N 
HETATM   29  H   UNL     1     -45.444  58.633 -54.437  1.00  0.00     0.169 HD
HETATM   30  O   UNL     1     -45.634  61.355 -56.090  1.00  0.00    -0.267 OA
BRANCH  28  31
HETATM   31  C   UNL     1     -45.068  58.455 -56.455  1.00  0.00     0.035 A 
HETATM   32  C   UNL     1     -43.816  57.929 -56.769  1.00  0.00     0.030 A 
HETATM   33  C   UNL     1     -43.620  57.222 -57.959  1.00  0.00     0.010 A 
HETATM   34  C   UNL     1     -44.679  57.020 -58.850  1.00  0.00    -0.048 A 
HETATM   35  C   UNL     1     -44.447  56.301 -60.154  1.00  0.00     0.069 C 
HETATM   36  C   UNL     1     -45.943  57.553 -58.554  1.00  0.00    -0.022 A 
HETATM   37  C   UNL     1     -45.753  55.843 -60.814  1.00  0.00     0.277 C 
HETATM   38  N   UNL     1     -46.728  56.943 -60.850  1.00  0.00     0.088 N 
HETATM   39  C   UNL     1     -47.905  56.570 -61.632  1.00  0.00     0.310 C 
HETATM   40  C   UNL     1     -47.120  57.313 -59.478  1.00  0.00     0.311 C 
HETATM   41  C   UNL     1     -46.128  58.255 -57.350  1.00  0.00     0.039 A 
ENDBRANCH  28  31
ENDBRANCH   1  27
TORSDOF 6
ENDMDL
