MODEL 1
REMARK VINA RESULT:      -8.2      0.000      0.000
REMARK  6 active torsions:
REMARK  status: ('A' for Active; 'I' for Inactive)
REMARK    1  A    between atoms: C_3  and  N_4 
REMARK       I    between atoms: N_4  and  C_5 
REMARK    2  A    between atoms: C_5  and  C_6 
REMARK    3  A    between atoms: C_6  and  N_7 
REMARK    4  A    between atoms: N_7  and  C_9 
REMARK    5  A    between atoms: C_9  and  C_10 
REMARK    6  A    between atoms: C_18  and  O_19 
ROOT
HETATM    1  N   UNL     1     -43.165  57.752 -52.837  1.00  0.00    -0.063 N 
HETATM    2  H   UNL     1     -43.386  56.897 -53.372  1.00  0.00     0.280 HD
HETATM    3  C   UNL     1     -44.146  57.816 -51.707  1.00  0.00     0.270 C 
ENDROOT
BRANCH   1   4
HETATM    4  C   UNL     1     -43.377  58.888 -53.846  1.00  0.00     0.337 C 
BRANCH   4   5
HETATM    5  C   UNL     1     -43.628  58.377 -55.269  1.00  0.00     0.248 C 
HETATM    6  N   UNL     1     -42.489  57.937 -55.921  1.00  0.00    -0.325 N 
HETATM    7  H   UNL     1     -41.607  58.334 -55.617  1.00  0.00     0.169 HD
HETATM    8  O   UNL     1     -44.762  58.438 -55.739  1.00  0.00    -0.271 OA
BRANCH   6   9
HETATM    9  C   UNL     1     -42.494  57.465 -57.261  1.00  0.00     0.046 A 
HETATM   10  C   UNL     1     -42.107  58.367 -58.281  1.00  0.00    -0.035 A 
HETATM   11  C   UNL     1     -41.695  59.789 -58.003  1.00  0.00     0.050 C 
HETATM   12  C   UNL     1     -42.124  57.942 -59.620  1.00  0.00     0.009 A 
HETATM   13  C   UNL     1     -42.515  56.651 -59.951  1.00  0.00     0.001 A 
HETATM   14  C   UNL     1     -42.858  55.754 -58.946  1.00  0.00     0.009 A 
HETATM   15  C   UNL     1     -42.822  56.132 -57.592  1.00  0.00    -0.035 A 
HETATM   16  C   UNL     1     -43.094  55.051 -56.583  1.00  0.00     0.050 C 
ENDBRANCH   6   9
ENDBRANCH   4   5
ENDBRANCH   1   4
BRANCH   1  17
HETATM   17  C   UNL     1     -41.727  57.504 -52.393  1.00  0.00     0.276 C 
BRANCH  17  18
HETATM   18  C   UNL     1     -41.264  56.081 -52.301  1.00  0.00     0.009 A 
HETATM   19  C   UNL     1     -41.060  55.416 -51.100  1.00  0.00     0.134 A 
HETATM   20 CL   UNL     1     -41.330  56.150 -49.568  1.00  0.00    -0.062 Cl
HETATM   21  N   UNL     1     -40.643  54.143 -50.989  1.00  0.00    -0.235 NA
HETATM   22  C   UNL     1     -40.451  53.431 -52.111  1.00  0.00     0.071 A 
HETATM   23  C   UNL     1     -40.651  53.987 -53.388  1.00  0.00    -0.006 A 
HETATM   24  C   UNL     1     -40.055  52.104 -52.023  1.00  0.00     0.069 A 
HETATM   25  C   UNL     1     -41.058  55.328 -53.465  1.00  0.00     0.026 A 
HETATM   26  C   UNL     1     -40.452  53.202 -54.535  1.00  0.00     0.016 A 
HETATM   27  C   UNL     1     -40.060  51.866 -54.419  1.00  0.00     0.038 A 
HETATM   28  C   UNL     1     -39.864  51.310 -53.159  1.00  0.00     0.070 A 
BRANCH  28  29
HETATM   29  O   UNL     1     -39.488  50.023 -52.897  1.00  0.00    -0.356 OA
HETATM   30  C   UNL     1     -39.514  49.603 -51.538  1.00  0.00     0.210 C 
ENDBRANCH  28  29
ENDBRANCH  17  18
ENDBRANCH   1  17
TORSDOF 6
ENDMDL
MODEL 2
REMARK VINA RESULT:      -8.1      1.880      2.304
REMARK  6 active torsions:
REMARK  status: ('A' for Active; 'I' for Inactive)
REMARK    1  A    between atoms: C_3  and  N_4 
REMARK       I    between atoms: N_4  and  C_5 
REMARK    2  A    between atoms: C_5  and  C_6 
REMARK    3  A    between atoms: C_6  and  N_7 
REMARK    4  A    between atoms: N_7  and  C_9 
REMARK    5  A    between atoms: C_9  and  C_10 
REMARK    6  A    between atoms: C_18  and  O_19 
ROOT
HETATM    1  N   UNL     1     -42.989  57.523 -54.151  1.00  0.00    -0.063 N 
HETATM    2  H   UNL     1     -43.277  56.538 -54.261  1.00  0.00     0.280 HD
HETATM    3  C   UNL     1     -44.141  58.239 -53.517  1.00  0.00     0.270 C 
ENDROOT
BRANCH   1   4
HETATM    4  C   UNL     1     -42.738  57.999 -55.588  1.00  0.00     0.337 C 
BRANCH   4   5
HETATM    5  C   UNL     1     -43.409  57.104 -56.634  1.00  0.00     0.248 C 
HETATM    6  N   UNL     1     -43.968  57.795 -57.695  1.00  0.00    -0.325 N 
HETATM    7  H   UNL     1     -44.247  58.753 -57.519  1.00  0.00     0.169 HD
HETATM    8  O   UNL     1     -43.453  55.890 -56.448  1.00  0.00    -0.271 OA
BRANCH   6   9
HETATM    9  C   UNL     1     -44.675  57.159 -58.751  1.00  0.00     0.046 A 
HETATM   10  C   UNL     1     -46.080  57.329 -58.803  1.00  0.00    -0.035 A 
HETATM   11  C   UNL     1     -46.842  58.148 -57.795  1.00  0.00     0.050 C 
HETATM   12  C   UNL     1     -46.814  56.694 -59.818  1.00  0.00     0.009 A 
HETATM   13  C   UNL     1     -46.178  55.905 -60.769  1.00  0.00     0.001 A 
HETATM   14  C   UNL     1     -44.795  55.769 -60.740  1.00  0.00     0.009 A 
HETATM   15  C   UNL     1     -44.022  56.416 -59.758  1.00  0.00    -0.035 A 
HETATM   16  C   UNL     1     -42.528  56.301 -59.892  1.00  0.00     0.050 C 
ENDBRANCH   6   9
ENDBRANCH   4   5
ENDBRANCH   1   4
BRANCH   1  17
HETATM   17  C   UNL     1     -41.761  57.412 -53.253  1.00  0.00     0.276 C 
BRANCH  17  18
HETATM   18  C   UNL     1     -41.294  56.037 -52.882  1.00  0.00     0.009 A 
HETATM   19  C   UNL     1     -41.154  55.602 -51.571  1.00  0.00     0.134 A 
HETATM   20 CL   UNL     1     -41.515  56.594 -50.213  1.00  0.00    -0.062 Cl
HETATM   21  N   UNL     1     -40.735  54.376 -51.210  1.00  0.00    -0.235 NA
HETATM   22  C   UNL     1     -40.474  53.478 -52.173  1.00  0.00     0.071 A 
HETATM   23  C   UNL     1     -40.606  53.793 -53.539  1.00  0.00    -0.006 A 
HETATM   24  C   UNL     1     -40.074  52.196 -51.826  1.00  0.00     0.069 A 
HETATM   25  C   UNL     1     -41.018  55.091 -53.878  1.00  0.00     0.026 A 
HETATM   26  C   UNL     1     -40.337  52.818 -54.513  1.00  0.00     0.016 A 
HETATM   27  C   UNL     1     -39.943  51.531 -54.137  1.00  0.00     0.038 A 
HETATM   28  C   UNL     1     -39.815  51.214 -52.788  1.00  0.00     0.070 A 
BRANCH  28  29
HETATM   29  O   UNL     1     -39.445  50.002 -52.279  1.00  0.00    -0.356 OA
HETATM   30  C   UNL     1     -39.433  49.869 -50.862  1.00  0.00     0.210 C 
ENDBRANCH  28  29
ENDBRANCH  17  18
ENDBRANCH   1  17
TORSDOF 6
ENDMDL
MODEL 3
REMARK VINA RESULT:      -8.1      2.069      7.061
REMARK  6 active torsions:
REMARK  status: ('A' for Active; 'I' for Inactive)
REMARK    1  A    between atoms: C_3  and  N_4 
REMARK       I    between atoms: N_4  and  C_5 
REMARK    2  A    between atoms: C_5  and  C_6 
REMARK    3  A    between atoms: C_6  and  N_7 
REMARK    4  A    between atoms: N_7  and  C_9 
REMARK    5  A    between atoms: C_9  and  C_10 
REMARK    6  A    between atoms: C_18  and  O_19 
ROOT
HETATM    1  N   UNL     1     -41.435  56.588 -51.575  1.00  0.00    -0.063 N 
HETATM    2  H   UNL     1     -40.842  56.303 -52.369  1.00  0.00     0.280 HD
HETATM    3  C   UNL     1     -40.704  57.686 -50.866  1.00  0.00     0.270 C 
ENDROOT
BRANCH   1   4
HETATM    4  C   UNL     1     -41.541  55.321 -50.716  1.00  0.00     0.337 C 
BRANCH   4   5
HETATM    5  C   UNL     1     -41.554  54.038 -51.552  1.00  0.00     0.248 C 
HETATM    6  N   UNL     1     -40.302  53.484 -51.756  1.00  0.00    -0.325 N 
HETATM    7  H   UNL     1     -39.511  54.116 -51.715  1.00  0.00     0.169 HD
HETATM    8  O   UNL     1     -42.618  53.630 -52.013  1.00  0.00    -0.271 OA
BRANCH   6   9
HETATM    9  C   UNL     1     -40.086  52.318 -52.540  1.00  0.00     0.046 A 
HETATM   10  C   UNL     1     -39.976  51.078 -51.865  1.00  0.00    -0.035 A 
HETATM   11  C   UNL     1     -40.077  50.951 -50.368  1.00  0.00     0.050 C 
HETATM   12  C   UNL     1     -39.737  49.909 -52.605  1.00  0.00     0.009 A 
HETATM   13  C   UNL     1     -39.610  49.957 -53.988  1.00  0.00     0.001 A 
HETATM   14  C   UNL     1     -39.758  51.168 -54.654  1.00  0.00     0.009 A 
HETATM   15  C   UNL     1     -40.029  52.355 -53.950  1.00  0.00    -0.035 A 
HETATM   16  C   UNL     1     -40.290  53.585 -54.776  1.00  0.00     0.050 C 
ENDBRANCH   6   9
ENDBRANCH   4   5
ENDBRANCH   1   4
BRANCH   1  17
HETATM   17  C   UNL     1     -42.717  57.046 -52.264  1.00  0.00     0.276 C 
BRANCH  17  18
HETATM   18  C   UNL     1     -42.674  57.244 -53.749  1.00  0.00     0.009 A 
HETATM   19  C   UNL     1     -42.312  58.441 -54.353  1.00  0.00     0.134 A 
HETATM   20 CL   UNL     1     -41.856  59.838 -53.459  1.00  0.00    -0.062 Cl
HETATM   21  N   UNL     1     -42.267  58.647 -55.681  1.00  0.00    -0.235 NA
HETATM   22  C   UNL     1     -42.543  57.620 -56.499  1.00  0.00     0.071 A 
HETATM   23  C   UNL     1     -42.896  56.350 -56.006  1.00  0.00    -0.006 A 
HETATM   24  C   UNL     1     -42.469  57.798 -57.873  1.00  0.00     0.069 A 
HETATM   25  C   UNL     1     -42.961  56.179 -54.614  1.00  0.00     0.026 A 
HETATM   26  C   UNL     1     -43.162  55.299 -56.898  1.00  0.00     0.016 A 
HETATM   27  C   UNL     1     -43.074  55.501 -58.277  1.00  0.00     0.038 A 
HETATM   28  C   UNL     1     -42.721  56.754 -58.771  1.00  0.00     0.070 A 
BRANCH  28  29
HETATM   29  O   UNL     1     -42.592  57.093 -60.088  1.00  0.00    -0.356 OA
HETATM   30  C   UNL     1     -41.866  58.280 -60.385  1.00  0.00     0.210 C 
ENDBRANCH  28  29
ENDBRANCH  17  18
ENDBRANCH   1  17
TORSDOF 6
ENDMDL
MODEL 4
REMARK VINA RESULT:      -7.9      2.153      6.859
REMARK  6 active torsions:
REMARK  status: ('A' for Active; 'I' for Inactive)
REMARK    1  A    between atoms: C_3  and  N_4 
REMARK       I    between atoms: N_4  and  C_5 
REMARK    2  A    between atoms: C_5  and  C_6 
REMARK    3  A    between atoms: C_6  and  N_7 
REMARK    4  A    between atoms: N_7  and  C_9 
REMARK    5  A    between atoms: C_9  and  C_10 
REMARK    6  A    between atoms: C_18  and  O_19 
ROOT
HETATM    1  N   UNL     1     -42.065  57.098 -51.829  1.00  0.00    -0.063 N 
HETATM    2  H   UNL     1     -41.468  56.659 -52.547  1.00  0.00     0.280 HD
HETATM    3  C   UNL     1     -41.204  58.083 -51.099  1.00  0.00     0.270 C 
ENDROOT
BRANCH   1   4
HETATM    4  C   UNL     1     -42.487  55.928 -50.931  1.00  0.00     0.337 C 
BRANCH   4   5
HETATM    5  C   UNL     1     -42.228  54.563 -51.575  1.00  0.00     0.248 C 
HETATM    6  N   UNL     1     -40.900  54.326 -51.884  1.00  0.00    -0.325 N 
HETATM    7  H   UNL     1     -40.316  55.139 -52.046  1.00  0.00     0.169 HD
HETATM    8  O   UNL     1     -43.177  53.820 -51.815  1.00  0.00    -0.271 OA
BRANCH   6   9
HETATM    9  C   UNL     1     -40.450  53.141 -52.527  1.00  0.00     0.046 A 
HETATM   10  C   UNL     1     -40.244  53.184 -53.927  1.00  0.00    -0.035 A 
HETATM   11  C   UNL     1     -40.480  54.423 -54.750  1.00  0.00     0.050 C 
HETATM   12  C   UNL     1     -39.824  52.024 -54.598  1.00  0.00     0.009 A 
HETATM   13  C   UNL     1     -39.609  50.840 -53.905  1.00  0.00     0.001 A 
HETATM   14  C   UNL     1     -39.774  50.808 -52.525  1.00  0.00     0.009 A 
HETATM   15  C   UNL     1     -40.163  51.957 -51.813  1.00  0.00    -0.035 A 
HETATM   16  C   UNL     1     -40.193  51.843 -50.314  1.00  0.00     0.050 C 
ENDBRANCH   6   9
ENDBRANCH   4   5
ENDBRANCH   1   4
BRANCH   1  17
HETATM   17  C   UNL     1     -43.169  57.742 -52.662  1.00  0.00     0.276 C 
BRANCH  17  18
HETATM   18  C   UNL     1     -42.954  57.840 -54.142  1.00  0.00     0.009 A 
HETATM   19  C   UNL     1     -42.455  58.973 -54.771  1.00  0.00     0.134 A 
HETATM   20 CL   UNL     1     -42.009  60.397 -53.916  1.00  0.00    -0.062 Cl
HETATM   21  N   UNL     1     -42.255  59.089 -56.096  1.00  0.00    -0.235 NA
HETATM   22  C   UNL     1     -42.506  58.027 -56.878  1.00  0.00     0.071 A 
HETATM   23  C   UNL     1     -42.990  56.814 -56.353  1.00  0.00    -0.006 A 
HETATM   24  C   UNL     1     -42.274  58.111 -58.243  1.00  0.00     0.069 A 
HETATM   25  C   UNL     1     -43.214  56.739 -54.969  1.00  0.00     0.026 A 
HETATM   26  C   UNL     1     -43.225  55.724 -57.206  1.00  0.00     0.016 A 
HETATM   27  C   UNL     1     -42.977  55.831 -58.577  1.00  0.00     0.038 A 
HETATM   28  C   UNL     1     -42.495  57.027 -59.100  1.00  0.00     0.070 A 
BRANCH  28  29
HETATM   29  O   UNL     1     -42.204  57.271 -60.413  1.00  0.00    -0.356 OA
HETATM   30  C   UNL     1     -41.916  58.617 -60.775  1.00  0.00     0.210 C 
ENDBRANCH  28  29
ENDBRANCH  17  18
ENDBRANCH   1  17
TORSDOF 6
ENDMDL
MODEL 5
REMARK VINA RESULT:      -7.8      2.436      7.104
REMARK  6 active torsions:
REMARK  status: ('A' for Active; 'I' for Inactive)
REMARK    1  A    between atoms: C_3  and  N_4 
REMARK       I    between atoms: N_4  and  C_5 
REMARK    2  A    between atoms: C_5  and  C_6 
REMARK    3  A    between atoms: C_6  and  N_7 
REMARK    4  A    between atoms: N_7  and  C_9 
REMARK    5  A    between atoms: C_9  and  C_10 
REMARK    6  A    between atoms: C_18  and  O_19 
ROOT
HETATM    1  N   UNL     1     -41.821  57.547 -52.487  1.00  0.00    -0.063 N 
HETATM    2  H   UNL     1     -41.037  56.954 -52.173  1.00  0.00     0.280 HD
HETATM    3  C   UNL     1     -42.005  58.603 -51.442  1.00  0.00     0.270 C 
ENDROOT
BRANCH   1   4
HETATM    4  C   UNL     1     -43.015  56.585 -52.548  1.00  0.00     0.337 C 
BRANCH   4   5
HETATM    5  C   UNL     1     -42.592  55.114 -52.507  1.00  0.00     0.248 C 
HETATM    6  N   UNL     1     -41.224  54.916 -52.558  1.00  0.00    -0.325 N 
HETATM    7  H   UNL     1     -40.674  55.642 -53.003  1.00  0.00     0.169 HD
HETATM    8  O   UNL     1     -43.457  54.240 -52.487  1.00  0.00    -0.271 OA
BRANCH   6   9
HETATM    9  C   UNL     1     -40.624  53.628 -52.576  1.00  0.00     0.046 A 
HETATM   10  C   UNL     1     -40.320  53.057 -53.836  1.00  0.00    -0.035 A 
HETATM   11  C   UNL     1     -40.605  53.755 -55.140  1.00  0.00     0.050 C 
HETATM   12  C   UNL     1     -39.750  51.774 -53.892  1.00  0.00     0.009 A 
HETATM   13  C   UNL     1     -39.481  51.064 -52.729  1.00  0.00     0.001 A 
HETATM   14  C   UNL     1     -39.744  51.640 -51.491  1.00  0.00     0.009 A 
HETATM   15  C   UNL     1     -40.285  52.935 -51.394  1.00  0.00    -0.035 A 
HETATM   16  C   UNL     1     -40.415  53.509 -50.009  1.00  0.00     0.050 C 
ENDBRANCH   6   9
ENDBRANCH   4   5
ENDBRANCH   1   4
BRANCH   1  17
HETATM   17  C   UNL     1     -41.317  58.083 -53.824  1.00  0.00     0.276 C 
BRANCH  17  18
HETATM   18  C   UNL     1     -42.254  58.023 -54.992  1.00  0.00     0.009 A 
HETATM   19  C   UNL     1     -43.177  59.018 -55.286  1.00  0.00     0.134 A 
HETATM   20 CL   UNL     1     -43.343  60.448 -54.346  1.00  0.00    -0.062 Cl
HETATM   21  N   UNL     1     -44.030  58.988 -56.325  1.00  0.00    -0.235 NA
HETATM   22  C   UNL     1     -43.968  57.953 -57.178  1.00  0.00     0.071 A 
HETATM   23  C   UNL     1     -43.055  56.897 -57.000  1.00  0.00    -0.006 A 
HETATM   24  C   UNL     1     -44.814  57.917 -58.277  1.00  0.00     0.069 A 
HETATM   25  C   UNL     1     -42.199  56.947 -55.888  1.00  0.00     0.026 A 
HETATM   26  C   UNL     1     -43.013  55.841 -57.925  1.00  0.00     0.016 A 
HETATM   27  C   UNL     1     -43.871  55.832 -59.028  1.00  0.00     0.038 A 
HETATM   28  C   UNL     1     -44.773  56.876 -59.211  1.00  0.00     0.070 A 
BRANCH  28  29
HETATM   29  O   UNL     1     -45.662  56.999 -60.240  1.00  0.00    -0.356 OA
HETATM   30  C   UNL     1     -46.880  56.271 -60.138  1.00  0.00     0.210 C 
ENDBRANCH  28  29
ENDBRANCH  17  18
ENDBRANCH   1  17
TORSDOF 6
ENDMDL
MODEL 6
REMARK VINA RESULT:      -7.5      2.154      7.195
REMARK  6 active torsions:
REMARK  status: ('A' for Active; 'I' for Inactive)
REMARK    1  A    between atoms: C_3  and  N_4 
REMARK       I    between atoms: N_4  and  C_5 
REMARK    2  A    between atoms: C_5  and  C_6 
REMARK    3  A    between atoms: C_6  and  N_7 
REMARK    4  A    between atoms: N_7  and  C_9 
REMARK    5  A    between atoms: C_9  and  C_10 
REMARK    6  A    between atoms: C_18  and  O_19 
ROOT
HETATM    1  N   UNL     1     -41.790  56.777 -51.557  1.00  0.00    -0.063 N 
HETATM    2  H   UNL     1     -41.185  56.389 -52.297  1.00  0.00     0.280 HD
HETATM    3  C   UNL     1     -41.024  57.893 -50.917  1.00  0.00     0.270 C 
ENDROOT
BRANCH   1   4
HETATM    4  C   UNL     1     -42.003  55.601 -50.595  1.00  0.00     0.337 C 
BRANCH   4   5
HETATM    5  C   UNL     1     -41.885  54.240 -51.288  1.00  0.00     0.248 C 
HETATM    6  N   UNL     1     -40.619  53.959 -51.772  1.00  0.00    -0.325 N 
HETATM    7  H   UNL     1     -40.030  54.753 -51.996  1.00  0.00     0.169 HD
HETATM    8  O   UNL     1     -42.887  53.539 -51.412  1.00  0.00    -0.271 OA
BRANCH   6   9
HETATM    9  C   UNL     1     -40.305  52.771 -52.485  1.00  0.00     0.046 A 
HETATM   10  C   UNL     1     -40.174  52.859 -53.892  1.00  0.00    -0.035 A 
HETATM   11  C   UNL     1     -40.352  54.147 -54.651  1.00  0.00     0.050 C 
HETATM   12  C   UNL     1     -39.888  51.699 -54.631  1.00  0.00     0.009 A 
HETATM   13  C   UNL     1     -39.734  50.472 -53.998  1.00  0.00     0.001 A 
HETATM   14  C   UNL     1     -39.824  50.393 -52.613  1.00  0.00     0.009 A 
HETATM   15  C   UNL     1     -40.077  51.538 -51.836  1.00  0.00    -0.035 A 
HETATM   16  C   UNL     1     -40.034  51.362 -50.343  1.00  0.00     0.050 C 
ENDBRANCH   6   9
ENDBRANCH   4   5
ENDBRANCH   1   4
BRANCH   1  17
HETATM   17  C   UNL     1     -43.017  57.240 -52.339  1.00  0.00     0.276 C 
BRANCH  17  18
HETATM   18  C   UNL     1     -42.862  57.442 -53.816  1.00  0.00     0.009 A 
HETATM   19  C   UNL     1     -43.175  56.474 -54.760  1.00  0.00     0.134 A 
HETATM   20 CL   UNL     1     -43.794  54.925 -54.340  1.00  0.00    -0.062 Cl
HETATM   21  N   UNL     1     -43.043  56.628 -56.089  1.00  0.00    -0.235 NA
HETATM   22  C   UNL     1     -42.624  57.813 -56.559  1.00  0.00     0.071 A 
HETATM   23  C   UNL     1     -42.302  58.882 -55.702  1.00  0.00    -0.006 A 
HETATM   24  C   UNL     1     -42.513  58.008 -57.928  1.00  0.00     0.069 A 
HETATM   25  C   UNL     1     -42.424  58.675 -54.318  1.00  0.00     0.026 A 
HETATM   26  C   UNL     1     -41.882  60.110 -56.237  1.00  0.00     0.016 A 
HETATM   27  C   UNL     1     -41.785  60.284 -57.620  1.00  0.00     0.038 A 
HETATM   28  C   UNL     1     -42.106  59.232 -58.472  1.00  0.00     0.070 A 
BRANCH  28  29
HETATM   29  O   UNL     1     -42.063  59.261 -59.837  1.00  0.00    -0.356 OA
HETATM   30  C   UNL     1     -42.212  58.021 -60.519  1.00  0.00     0.210 C 
ENDBRANCH  28  29
ENDBRANCH  17  18
ENDBRANCH   1  17
TORSDOF 6
ENDMDL
MODEL 7
REMARK VINA RESULT:      -7.4      3.000      8.365
REMARK  6 active torsions:
REMARK  status: ('A' for Active; 'I' for Inactive)
REMARK    1  A    between atoms: C_3  and  N_4 
REMARK       I    between atoms: N_4  and  C_5 
REMARK    2  A    between atoms: C_5  and  C_6 
REMARK    3  A    between atoms: C_6  and  N_7 
REMARK    4  A    between atoms: N_7  and  C_9 
REMARK    5  A    between atoms: C_9  and  C_10 
REMARK    6  A    between atoms: C_18  and  O_19 
ROOT
HETATM    1  N   UNL     1     -43.348  57.669 -54.592  1.00  0.00    -0.063 N 
HETATM    2  H   UNL     1     -43.060  58.642 -54.775  1.00  0.00     0.280 HD
HETATM    3  C   UNL     1     -44.845  57.659 -54.582  1.00  0.00     0.270 C 
ENDROOT
BRANCH   1   4
HETATM    4  C   UNL     1     -42.762  57.362 -53.207  1.00  0.00     0.337 C 
BRANCH   4   5
HETATM    5  C   UNL     1     -42.476  55.872 -53.002  1.00  0.00     0.248 C 
HETATM    6  N   UNL     1     -41.130  55.555 -52.956  1.00  0.00    -0.325 N 
HETATM    7  H   UNL     1     -40.496  56.184 -53.436  1.00  0.00     0.169 HD
HETATM    8  O   UNL     1     -43.415  55.081 -52.946  1.00  0.00    -0.271 OA
BRANCH   6   9
HETATM    9  C   UNL     1     -40.648  54.225 -52.817  1.00  0.00     0.046 A 
HETATM   10  C   UNL     1     -40.374  53.494 -53.997  1.00  0.00    -0.035 A 
HETATM   11  C   UNL     1     -40.572  54.064 -55.377  1.00  0.00     0.050 C 
HETATM   12  C   UNL     1     -39.921  52.168 -53.897  1.00  0.00     0.009 A 
HETATM   13  C   UNL     1     -39.738  51.571 -52.657  1.00  0.00     0.001 A 
HETATM   14  C   UNL     1     -39.970  52.302 -51.497  1.00  0.00     0.009 A 
HETATM   15  C   UNL     1     -40.394  53.642 -51.556  1.00  0.00    -0.035 A 
HETATM   16  C   UNL     1     -40.497  54.375 -50.247  1.00  0.00     0.050 C 
ENDBRANCH   6   9
ENDBRANCH   4   5
ENDBRANCH   1   4
BRANCH   1  17
HETATM   17  C   UNL     1     -42.734  56.913 -55.766  1.00  0.00     0.276 C 
BRANCH  17  18
HETATM   18  C   UNL     1     -42.522  57.669 -57.043  1.00  0.00     0.009 A 
HETATM   19  C   UNL     1     -42.815  57.152 -58.298  1.00  0.00     0.134 A 
HETATM   20 CL   UNL     1     -43.473  55.580 -58.532  1.00  0.00    -0.062 Cl
HETATM   21  N   UNL     1     -42.632  57.807 -59.458  1.00  0.00    -0.235 NA
HETATM   22  C   UNL     1     -42.178  59.070 -59.418  1.00  0.00     0.071 A 
HETATM   23  C   UNL     1     -41.871  59.711 -58.204  1.00  0.00    -0.006 A 
HETATM   24  C   UNL     1     -42.014  59.778 -60.599  1.00  0.00     0.069 A 
HETATM   25  C   UNL     1     -42.047  58.987 -57.014  1.00  0.00     0.026 A 
HETATM   26  C   UNL     1     -41.413  61.039 -58.206  1.00  0.00     0.016 A 
HETATM   27  C   UNL     1     -41.264  61.733 -59.409  1.00  0.00     0.038 A 
HETATM   28  C   UNL     1     -41.569  61.105 -60.613  1.00  0.00     0.070 A 
BRANCH  28  29
HETATM   29  O   UNL     1     -41.476  61.661 -61.857  1.00  0.00    -0.356 OA
HETATM   30  C   UNL     1     -41.129  63.040 -61.928  1.00  0.00     0.210 C 
ENDBRANCH  28  29
ENDBRANCH  17  18
ENDBRANCH   1  17
TORSDOF 6
ENDMDL
MODEL 8
REMARK VINA RESULT:      -7.1     15.331     18.019
REMARK  6 active torsions:
REMARK  status: ('A' for Active; 'I' for Inactive)
REMARK    1  A    between atoms: C_3  and  N_4 
REMARK       I    between atoms: N_4  and  C_5 
REMARK    2  A    between atoms: C_5  and  C_6 
REMARK    3  A    between atoms: C_6  and  N_7 
REMARK    4  A    between atoms: N_7  and  C_9 
REMARK    5  A    between atoms: C_9  and  C_10 
REMARK    6  A    between atoms: C_18  and  O_19 
ROOT
HETATM    1  N   UNL     1     -35.505  39.448 -51.291  1.00  0.00    -0.063 N 
HETATM    2  H   UNL     1     -35.864  39.262 -52.240  1.00  0.00     0.280 HD
HETATM    3  C   UNL     1     -36.576  39.020 -50.335  1.00  0.00     0.270 C 
ENDROOT
BRANCH   1   4
HETATM    4  C   UNL     1     -35.287  40.967 -51.266  1.00  0.00     0.337 C 
BRANCH   4   5
HETATM    5  C   UNL     1     -35.564  41.627 -52.620  1.00  0.00     0.248 C 
HETATM    6  N   UNL     1     -35.680  40.734 -53.672  1.00  0.00    -0.325 N 
HETATM    7  H   UNL     1     -35.203  39.845 -53.571  1.00  0.00     0.169 HD
HETATM    8  O   UNL     1     -35.610  42.853 -52.694  1.00  0.00    -0.271 OA
BRANCH   6   9
HETATM    9  C   UNL     1     -35.894  41.140 -55.016  1.00  0.00     0.046 A 
HETATM   10  C   UNL     1     -34.769  41.209 -55.873  1.00  0.00    -0.035 A 
HETATM   11  C   UNL     1     -33.373  40.871 -55.419  1.00  0.00     0.050 C 
HETATM   12  C   UNL     1     -34.938  41.630 -57.202  1.00  0.00     0.009 A 
HETATM   13  C   UNL     1     -36.195  41.979 -57.682  1.00  0.00     0.001 A 
HETATM   14  C   UNL     1     -37.305  41.875 -56.852  1.00  0.00     0.009 A 
HETATM   15  C   UNL     1     -37.179  41.426 -55.525  1.00  0.00    -0.035 A 
HETATM   16  C   UNL     1     -38.457  41.235 -54.754  1.00  0.00     0.050 C 
ENDBRANCH   6   9
ENDBRANCH   4   5
ENDBRANCH   1   4
BRANCH   1  17
HETATM   17  C   UNL     1     -34.248  38.585 -51.235  1.00  0.00     0.276 C 
BRANCH  17  18
HETATM   18  C   UNL     1     -33.278  38.844 -50.122  1.00  0.00     0.009 A 
HETATM   19  C   UNL     1     -32.164  39.663 -50.250  1.00  0.00     0.134 A 
HETATM   20 CL   UNL     1     -31.776  40.492 -51.706  1.00  0.00    -0.062 Cl
HETATM   21  N   UNL     1     -31.277  39.910 -49.270  1.00  0.00    -0.235 NA
HETATM   22  C   UNL     1     -31.492  39.371 -48.059  1.00  0.00     0.071 A 
HETATM   23  C   UNL     1     -32.602  38.545 -47.799  1.00  0.00    -0.006 A 
HETATM   24  C   UNL     1     -30.611  39.639 -47.022  1.00  0.00     0.069 A 
HETATM   25  C   UNL     1     -33.491  38.286 -48.854  1.00  0.00     0.026 A 
HETATM   26  C   UNL     1     -32.797  38.015 -46.514  1.00  0.00     0.016 A 
HETATM   27  C   UNL     1     -31.898  38.305 -45.484  1.00  0.00     0.038 A 
HETATM   28  C   UNL     1     -30.802  39.125 -45.735  1.00  0.00     0.070 A 
BRANCH  28  29
HETATM   29  O   UNL     1     -29.851  39.495 -44.827  1.00  0.00    -0.356 OA
HETATM   30  C   UNL     1     -29.934  40.815 -44.300  1.00  0.00     0.210 C 
ENDBRANCH  28  29
ENDBRANCH  17  18
ENDBRANCH   1  17
TORSDOF 6
ENDMDL
MODEL 9
REMARK VINA RESULT:      -7.0      2.609      8.206
REMARK  6 active torsions:
REMARK  status: ('A' for Active; 'I' for Inactive)
REMARK    1  A    between atoms: C_3  and  N_4 
REMARK       I    between atoms: N_4  and  C_5 
REMARK    2  A    between atoms: C_5  and  C_6 
REMARK    3  A    between atoms: C_6  and  N_7 
REMARK    4  A    between atoms: N_7  and  C_9 
REMARK    5  A    between atoms: C_9  and  C_10 
REMARK    6  A    between atoms: C_18  and  O_19 
ROOT
HETATM    1  N   UNL     1     -41.818  55.910 -54.574  1.00  0.00    -0.063 N 
HETATM    2  H   UNL     1     -42.473  55.504 -53.889  1.00  0.00     0.280 HD
HETATM    3  C   UNL     1     -42.575  56.053 -55.859  1.00  0.00     0.270 C 
ENDROOT
BRANCH   1   4
HETATM    4  C   UNL     1     -40.697  54.868 -54.681  1.00  0.00     0.337 C 
BRANCH   4   5
HETATM    5  C   UNL     1     -40.954  53.631 -53.815  1.00  0.00     0.248 C 
HETATM    6  N   UNL     1     -39.804  52.998 -53.376  1.00  0.00    -0.325 N 
HETATM    7  H   UNL     1     -38.972  53.120 -53.942  1.00  0.00     0.169 HD
HETATM    8  O   UNL     1     -42.110  53.265 -53.617  1.00  0.00    -0.271 OA
BRANCH   6   9
HETATM    9  C   UNL     1     -39.819  51.810 -52.598  1.00  0.00     0.046 A 
HETATM   10  C   UNL     1     -39.949  51.939 -51.194  1.00  0.00    -0.035 A 
HETATM   11  C   UNL     1     -40.071  53.272 -50.504  1.00  0.00     0.050 C 
HETATM   12  C   UNL     1     -39.943  50.787 -50.392  1.00  0.00     0.009 A 
HETATM   13  C   UNL     1     -39.812  49.526 -50.960  1.00  0.00     0.001 A 
HETATM   14  C   UNL     1     -39.723  49.396 -52.341  1.00  0.00     0.009 A 
HETATM   15  C   UNL     1     -39.758  50.524 -53.180  1.00  0.00    -0.035 A 
HETATM   16  C   UNL     1     -39.778  50.263 -54.661  1.00  0.00     0.050 C 
ENDBRANCH   6   9
ENDBRANCH   4   5
ENDBRANCH   1   4
BRANCH   1  17
HETATM   17  C   UNL     1     -41.443  57.241 -53.928  1.00  0.00     0.276 C 
BRANCH  17  18
HETATM   18  C   UNL     1     -42.469  57.903 -53.059  1.00  0.00     0.009 A 
HETATM   19  C   UNL     1     -42.968  57.337 -51.894  1.00  0.00     0.134 A 
HETATM   20 CL   UNL     1     -42.454  55.806 -51.303  1.00  0.00    -0.062 Cl
HETATM   21  N   UNL     1     -43.890  57.907 -51.098  1.00  0.00    -0.235 NA
HETATM   22  C   UNL     1     -44.337  59.134 -51.410  1.00  0.00     0.071 A 
HETATM   23  C   UNL     1     -43.885  59.822 -52.552  1.00  0.00    -0.006 A 
HETATM   24  C   UNL     1     -45.262  59.758 -50.586  1.00  0.00     0.069 A 
HETATM   25  C   UNL     1     -42.944  59.183 -53.375  1.00  0.00     0.026 A 
HETATM   26  C   UNL     1     -44.368  61.110 -52.833  1.00  0.00     0.016 A 
HETATM   27  C   UNL     1     -45.293  61.720 -51.983  1.00  0.00     0.038 A 
HETATM   28  C   UNL     1     -45.741  61.046 -50.851  1.00  0.00     0.070 A 
BRANCH  28  29
HETATM   29  O   UNL     1     -46.636  61.520 -49.934  1.00  0.00    -0.356 OA
HETATM   30  C   UNL     1     -46.107  62.205 -48.804  1.00  0.00     0.210 C 
ENDBRANCH  28  29
ENDBRANCH  17  18
ENDBRANCH   1  17
TORSDOF 6
ENDMDL
MODEL 10
REMARK VINA RESULT:      -6.9      3.158      6.082
REMARK  6 active torsions:
REMARK  status: ('A' for Active; 'I' for Inactive)
REMARK    1  A    between atoms: C_3  and  N_4 
REMARK       I    between atoms: N_4  and  C_5 
REMARK    2  A    between atoms: C_5  and  C_6 
REMARK    3  A    between atoms: C_6  and  N_7 
REMARK    4  A    between atoms: N_7  and  C_9 
REMARK    5  A    between atoms: C_9  and  C_10 
REMARK    6  A    between atoms: C_18  and  O_19 
ROOT
HETATM    1  N   UNL     1     -43.405  57.897 -52.700  1.00  0.00    -0.063 N 
HETATM    2  H   UNL     1     -43.491  58.849 -53.088  1.00  0.00     0.280 HD
HETATM    3  C   UNL     1     -44.122  56.982 -53.645  1.00  0.00     0.270 C 
ENDROOT
BRANCH   1   4
HETATM    4  C   UNL     1     -44.109  57.984 -51.340  1.00  0.00     0.337 C 
BRANCH   4   5
HETATM    5  C   UNL     1     -44.550  59.408 -50.991  1.00  0.00     0.248 C 
HETATM    6  N   UNL     1     -43.783  60.015 -50.013  1.00  0.00    -0.325 N 
HETATM    7  H   UNL     1     -43.307  59.403 -49.360  1.00  0.00     0.169 HD
HETATM    8  O   UNL     1     -45.545  59.880 -51.538  1.00  0.00    -0.271 OA
BRANCH   6   9
HETATM    9  C   UNL     1     -44.049  61.318 -49.513  1.00  0.00     0.046 A 
HETATM   10  C   UNL     1     -43.512  62.421 -50.220  1.00  0.00    -0.035 A 
HETATM   11  C   UNL     1     -42.681  62.267 -51.466  1.00  0.00     0.050 C 
HETATM   12  C   UNL     1     -43.735  63.722 -49.740  1.00  0.00     0.009 A 
HETATM   13  C   UNL     1     -44.474  63.937 -48.584  1.00  0.00     0.001 A 
HETATM   14  C   UNL     1     -45.033  62.857 -47.911  1.00  0.00     0.009 A 
HETATM   15  C   UNL     1     -44.860  61.541 -48.379  1.00  0.00    -0.035 A 
HETATM   16  C   UNL     1     -45.607  60.461 -47.646  1.00  0.00     0.050 C 
ENDBRANCH   6   9
ENDBRANCH   4   5
ENDBRANCH   1   4
BRANCH   1  17
HETATM   17  C   UNL     1     -41.894  57.687 -52.667  1.00  0.00     0.276 C 
BRANCH  17  18
HETATM   18  C   UNL     1     -41.392  56.287 -52.487  1.00  0.00     0.009 A 
HETATM   19  C   UNL     1     -41.144  55.714 -51.248  1.00  0.00     0.134 A 
HETATM   20 CL   UNL     1     -41.399  56.546 -49.764  1.00  0.00    -0.062 Cl
HETATM   21  N   UNL     1     -40.691  54.461 -51.058  1.00  0.00    -0.235 NA
HETATM   22  C   UNL     1     -40.504  53.678 -52.132  1.00  0.00     0.071 A 
HETATM   23  C   UNL     1     -40.747  54.137 -53.440  1.00  0.00    -0.006 A 
HETATM   24  C   UNL     1     -40.071  52.371 -51.961  1.00  0.00     0.069 A 
HETATM   25  C   UNL     1     -41.192  55.459 -53.601  1.00  0.00     0.026 A 
HETATM   26  C   UNL     1     -40.553  53.278 -54.534  1.00  0.00     0.016 A 
HETATM   27  C   UNL     1     -40.123  51.964 -54.334  1.00  0.00     0.038 A 
HETATM   28  C   UNL     1     -39.885  51.503 -53.043  1.00  0.00     0.070 A 
BRANCH  28  29
HETATM   29  O   UNL     1     -39.469  50.248 -52.701  1.00  0.00    -0.356 OA
HETATM   30  C   UNL     1     -39.484  49.913 -51.318  1.00  0.00     0.210 C 
ENDBRANCH  28  29
ENDBRANCH  17  18
ENDBRANCH   1  17
TORSDOF 6
ENDMDL
