MODEL 1
REMARK VINA RESULT:      -8.1      0.000      0.000
REMARK  9 active torsions:
REMARK  status: ('A' for Active; 'I' for Inactive)
REMARK    1  A    between atoms: O_2  and  C_3 
REMARK    2  A    between atoms: C_5  and  O_6 
REMARK    3  A    between atoms: C_9  and  C_10 
REMARK       I    between atoms: C_10  and  N_11 
REMARK    4  A    between atoms: N_11  and  C_12 
REMARK    5  A    between atoms: C_12  and  N_13 
REMARK    6  A    between atoms: N_13  and  C_14 
REMARK    7  A    between atoms: C_17  and  N_18 
REMARK    8  A    between atoms: N_21  and  C_23 
REMARK    9  A    between atoms: C_23  and  C_24 
ROOT
HETATM    1  C   UNL     1     -45.498  59.199 -53.389  1.00  0.00     0.034 A 
HETATM    2  C   UNL     1     -45.303  59.044 -54.760  1.00  0.00     0.032 A 
HETATM    3  C   UNL     1     -44.577  57.955 -55.277  1.00  0.00     0.031 A 
HETATM    4  C   UNL     1     -44.004  56.987 -54.448  1.00  0.00     0.030 A 
HETATM    5  C   UNL     1     -44.157  57.198 -53.066  1.00  0.00     0.031 A 
HETATM    6  C   UNL     1     -44.888  58.280 -52.541  1.00  0.00     0.032 A 
ENDROOT
BRANCH   1   7
HETATM    7  N   UNL     1     -46.197  60.288 -52.811  1.00  0.00    -0.333 N 
HETATM    8  H   UNL     1     -46.959  60.039 -52.191  1.00  0.00     0.168 HD
BRANCH   7   9
HETATM    9  C   UNL     1     -46.111  61.617 -53.118  1.00  0.00     0.179 C 
HETATM   10  S   UNL     1     -47.040  62.453 -54.240  1.00  0.00    -0.040 SA
BRANCH   9  11
HETATM   11  N   UNL     1     -45.159  62.374 -52.445  1.00  0.00    -0.299 N 
HETATM   12  C   UNL     1     -43.795  62.458 -52.146  1.00  0.00     0.258 C 
HETATM   13  O   UNL     1     -43.381  63.483 -51.602  1.00  0.00    -0.267 OA
HETATM   14  H   UNL     1     -45.599  63.205 -52.061  1.00  0.00     0.171 HD
BRANCH  12  15
HETATM   15  C   UNL     1     -42.844  61.353 -52.353  1.00  0.00     0.037 A 
HETATM   16  C   UNL     1     -42.369  60.536 -51.327  1.00  0.00     0.054 A 
HETATM   17  C   UNL     1     -41.492  59.484 -51.621  1.00  0.00     0.071 A 
HETATM   18  C   UNL     1     -41.172  59.193 -52.951  1.00  0.00     0.073 A 
HETATM   19  C   UNL     1     -41.720  59.957 -53.981  1.00  0.00     0.071 A 
HETATM   20  C   UNL     1     -42.525  61.053 -53.682  1.00  0.00     0.054 A 
BRANCH  17  21
HETATM   21  O   UNL     1     -41.013  58.817 -50.524  1.00  0.00    -0.356 OA
HETATM   22  C   UNL     1     -40.962  57.396 -50.611  1.00  0.00     0.210 C 
ENDBRANCH  17  21
BRANCH  19  23
HETATM   23  O   UNL     1     -41.479  59.728 -55.308  1.00  0.00    -0.356 OA
HETATM   24  C   UNL     1     -42.216  60.584 -56.182  1.00  0.00     0.210 C 
ENDBRANCH  19  23
ENDBRANCH  12  15
ENDBRANCH   9  11
ENDBRANCH   7   9
ENDBRANCH   1   7
BRANCH   4  25
HETATM   25  N   UNL     1     -43.268  55.905 -54.929  1.00  0.00    -0.378 N 
HETATM   26  C   UNL     1     -43.596  54.517 -54.543  1.00  0.00     0.150 C 
HETATM   27  C   UNL     1     -42.724  54.038 -53.361  1.00  0.00     0.255 C 
HETATM   28  N   UNL     1     -41.242  54.231 -53.681  1.00  0.00    -0.064 N 
HETATM   29  H   UNL     1     -41.037  53.665 -54.519  1.00  0.00     0.280 HD
HETATM   30  C   UNL     1     -40.957  55.690 -54.046  1.00  0.00     0.255 C 
HETATM   31  C   UNL     1     -41.839  56.121 -55.238  1.00  0.00     0.150 C 
BRANCH  28  32
HETATM   32  C   UNL     1     -40.344  53.700 -52.591  1.00  0.00     0.276 C 
BRANCH  32  33
HETATM   33  C   UNL     1     -40.063  52.228 -52.692  1.00  0.00     0.006 A 
HETATM   34  C   UNL     1     -39.821  51.478 -51.536  1.00  0.00     0.124 A 
HETATM   35  F   UNL     1     -39.881  52.089 -50.343  1.00  0.00    -0.206 F 
HETATM   36  C   UNL     1     -39.569  50.112 -51.590  1.00  0.00     0.043 A 
HETATM   37  C   UNL     1     -39.545  49.472 -52.827  1.00  0.00     0.003 A 
HETATM   38  C   UNL     1     -39.766  50.204 -53.995  1.00  0.00     0.001 A 
HETATM   39  C   UNL     1     -40.020  51.577 -53.932  1.00  0.00     0.012 A 
ENDBRANCH  32  33
ENDBRANCH  28  32
ENDBRANCH   4  25
TORSDOF 9
ENDMDL
MODEL 2
REMARK VINA RESULT:      -8.1      1.695      2.750
REMARK  9 active torsions:
REMARK  status: ('A' for Active; 'I' for Inactive)
REMARK    1  A    between atoms: O_2  and  C_3 
REMARK    2  A    between atoms: C_5  and  O_6 
REMARK    3  A    between atoms: C_9  and  C_10 
REMARK       I    between atoms: C_10  and  N_11 
REMARK    4  A    between atoms: N_11  and  C_12 
REMARK    5  A    between atoms: C_12  and  N_13 
REMARK    6  A    between atoms: N_13  and  C_14 
REMARK    7  A    between atoms: C_17  and  N_18 
REMARK    8  A    between atoms: N_21  and  C_23 
REMARK    9  A    between atoms: C_23  and  C_24 
ROOT
HETATM    1  C   UNL     1     -44.974  59.099 -54.528  1.00  0.00     0.034 A 
HETATM    2  C   UNL     1     -43.629  59.240 -54.868  1.00  0.00     0.032 A 
HETATM    3  C   UNL     1     -42.830  58.124 -55.176  1.00  0.00     0.031 A 
HETATM    4  C   UNL     1     -43.335  56.822 -55.143  1.00  0.00     0.030 A 
HETATM    5  C   UNL     1     -44.675  56.695 -54.735  1.00  0.00     0.031 A 
HETATM    6  C   UNL     1     -45.483  57.807 -54.433  1.00  0.00     0.032 A 
ENDROOT
BRANCH   1   7
HETATM    7  N   UNL     1     -45.818  60.183 -54.184  1.00  0.00    -0.333 N 
HETATM    8  H   UNL     1     -46.306  60.619 -54.957  1.00  0.00     0.168 HD
BRANCH   7   9
HETATM    9  C   UNL     1     -45.920  60.839 -52.989  1.00  0.00     0.179 C 
HETATM   10  S   UNL     1     -45.770  62.492 -52.733  1.00  0.00    -0.040 SA
BRANCH   9  11
HETATM   11  N   UNL     1     -46.171  60.077 -51.854  1.00  0.00    -0.299 N 
HETATM   12  C   UNL     1     -45.580  59.216 -50.925  1.00  0.00     0.258 C 
HETATM   13  O   UNL     1     -46.232  58.898 -49.929  1.00  0.00    -0.267 OA
HETATM   14  H   UNL     1     -47.128  60.231 -51.550  1.00  0.00     0.171 HD
BRANCH  12  15
HETATM   15  C   UNL     1     -44.262  58.588 -51.116  1.00  0.00     0.037 A 
HETATM   16  C   UNL     1     -43.082  59.306 -51.308  1.00  0.00     0.054 A 
HETATM   17  C   UNL     1     -41.864  58.625 -51.447  1.00  0.00     0.071 A 
HETATM   18  C   UNL     1     -41.820  57.236 -51.293  1.00  0.00     0.073 A 
HETATM   19  C   UNL     1     -42.990  56.531 -51.012  1.00  0.00     0.071 A 
HETATM   20  C   UNL     1     -44.209  57.198 -50.958  1.00  0.00     0.054 A 
BRANCH  17  21
HETATM   21  O   UNL     1     -40.791  59.428 -51.734  1.00  0.00    -0.356 OA
HETATM   22  C   UNL     1     -39.621  59.237 -50.944  1.00  0.00     0.210 C 
ENDBRANCH  17  21
BRANCH  19  23
HETATM   23  O   UNL     1     -43.033  55.176 -50.824  1.00  0.00    -0.356 OA
HETATM   24  C   UNL     1     -44.278  54.707 -50.305  1.00  0.00     0.210 C 
ENDBRANCH  19  23
ENDBRANCH  12  15
ENDBRANCH   9  11
ENDBRANCH   7   9
ENDBRANCH   1   7
BRANCH   4  25
HETATM   25  N   UNL     1     -42.565  55.694 -55.430  1.00  0.00    -0.378 N 
HETATM   26  C   UNL     1     -43.034  54.335 -55.093  1.00  0.00     0.150 C 
HETATM   27  C   UNL     1     -42.461  53.857 -53.741  1.00  0.00     0.255 C 
HETATM   28  N   UNL     1     -40.937  53.978 -53.737  1.00  0.00    -0.064 N 
HETATM   29  H   UNL     1     -40.585  53.377 -54.498  1.00  0.00     0.280 HD
HETATM   30  C   UNL     1     -40.511  55.411 -54.063  1.00  0.00     0.255 C 
HETATM   31  C   UNL     1     -41.095  55.841 -55.427  1.00  0.00     0.150 C 
BRANCH  28  32
HETATM   32  C   UNL     1     -40.320  53.445 -52.467  1.00  0.00     0.276 C 
BRANCH  32  33
HETATM   33  C   UNL     1     -40.012  51.975 -52.507  1.00  0.00     0.006 A 
HETATM   34  C   UNL     1     -39.856  51.257 -51.316  1.00  0.00     0.124 A 
HETATM   35  F   UNL     1     -40.023  51.897 -50.148  1.00  0.00    -0.206 F 
HETATM   36  C   UNL     1     -39.582  49.895 -51.314  1.00  0.00     0.043 A 
HETATM   37  C   UNL     1     -39.446  49.226 -52.527  1.00  0.00     0.003 A 
HETATM   38  C   UNL     1     -39.580  49.924 -53.728  1.00  0.00     0.001 A 
HETATM   39  C   UNL     1     -39.858  51.295 -53.722  1.00  0.00     0.012 A 
ENDBRANCH  32  33
ENDBRANCH  28  32
ENDBRANCH   4  25
TORSDOF 9
ENDMDL
MODEL 3
REMARK VINA RESULT:      -8.1      1.697      2.396
REMARK  9 active torsions:
REMARK  status: ('A' for Active; 'I' for Inactive)
REMARK    1  A    between atoms: O_2  and  C_3 
REMARK    2  A    between atoms: C_5  and  O_6 
REMARK    3  A    between atoms: C_9  and  C_10 
REMARK       I    between atoms: C_10  and  N_11 
REMARK    4  A    between atoms: N_11  and  C_12 
REMARK    5  A    between atoms: C_12  and  N_13 
REMARK    6  A    between atoms: N_13  and  C_14 
REMARK    7  A    between atoms: C_17  and  N_18 
REMARK    8  A    between atoms: N_21  and  C_23 
REMARK    9  A    between atoms: C_23  and  C_24 
ROOT
HETATM    1  C   UNL     1     -45.014  59.032 -54.548  1.00  0.00     0.034 A 
HETATM    2  C   UNL     1     -43.672  59.197 -54.885  1.00  0.00     0.032 A 
HETATM    3  C   UNL     1     -42.858  58.097 -55.210  1.00  0.00     0.031 A 
HETATM    4  C   UNL     1     -43.346  56.787 -55.197  1.00  0.00     0.030 A 
HETATM    5  C   UNL     1     -44.684  56.636 -54.791  1.00  0.00     0.031 A 
HETATM    6  C   UNL     1     -45.506  57.732 -54.473  1.00  0.00     0.032 A 
ENDROOT
BRANCH   1   7
HETATM    7  N   UNL     1     -45.874  60.100 -54.188  1.00  0.00    -0.333 N 
HETATM    8  H   UNL     1     -46.489  60.432 -54.920  1.00  0.00     0.168 HD
BRANCH   7   9
HETATM    9  C   UNL     1     -45.855  60.864 -53.055  1.00  0.00     0.179 C 
HETATM   10  S   UNL     1     -45.512  62.505 -52.954  1.00  0.00    -0.040 SA
BRANCH   9  11
HETATM   11  N   UNL     1     -46.146  60.237 -51.848  1.00  0.00    -0.299 N 
HETATM   12  C   UNL     1     -45.620  59.393 -50.865  1.00  0.00     0.258 C 
HETATM   13  O   UNL     1     -46.262  59.242 -49.825  1.00  0.00    -0.267 OA
HETATM   14  H   UNL     1     -47.064  60.529 -51.529  1.00  0.00     0.171 HD
BRANCH  12  15
HETATM   15  C   UNL     1     -44.393  58.599 -51.041  1.00  0.00     0.037 A 
HETATM   16  C   UNL     1     -44.370  57.205 -51.086  1.00  0.00     0.054 A 
HETATM   17  C   UNL     1     -43.159  56.531 -51.293  1.00  0.00     0.071 A 
HETATM   18  C   UNL     1     -41.992  57.257 -51.552  1.00  0.00     0.073 A 
HETATM   19  C   UNL     1     -42.036  58.651 -51.595  1.00  0.00     0.071 A 
HETATM   20  C   UNL     1     -43.222  59.319 -51.307  1.00  0.00     0.054 A 
BRANCH  17  21
HETATM   21  O   UNL     1     -43.245  55.166 -51.215  1.00  0.00    -0.356 OA
HETATM   22  C   UNL     1     -44.194  54.637 -50.293  1.00  0.00     0.210 C 
ENDBRANCH  17  21
BRANCH  19  23
HETATM   23  O   UNL     1     -40.949  59.436 -51.863  1.00  0.00    -0.356 OA
HETATM   24  C   UNL     1     -40.036  58.856 -52.796  1.00  0.00     0.210 C 
ENDBRANCH  19  23
ENDBRANCH  12  15
ENDBRANCH   9  11
ENDBRANCH   7   9
ENDBRANCH   1   7
BRANCH   4  25
HETATM   25  N   UNL     1     -42.561  55.675 -55.501  1.00  0.00    -0.378 N 
HETATM   26  C   UNL     1     -43.019  54.303 -55.202  1.00  0.00     0.150 C 
HETATM   27  C   UNL     1     -42.457  53.799 -53.854  1.00  0.00     0.255 C 
HETATM   28  N   UNL     1     -40.935  53.936 -53.829  1.00  0.00    -0.064 N 
HETATM   29  H   UNL     1     -40.567  53.357 -54.600  1.00  0.00     0.280 HD
HETATM   30  C   UNL     1     -40.520  55.380 -54.117  1.00  0.00     0.255 C 
HETATM   31  C   UNL     1     -41.092  55.836 -55.477  1.00  0.00     0.150 C 
BRANCH  28  32
HETATM   32  C   UNL     1     -40.328  53.379 -52.565  1.00  0.00     0.276 C 
BRANCH  32  33
HETATM   33  C   UNL     1     -39.996  51.916 -52.638  1.00  0.00     0.006 A 
HETATM   34  C   UNL     1     -39.820  51.175 -51.464  1.00  0.00     0.124 A 
HETATM   35  F   UNL     1     -39.987  51.788 -50.281  1.00  0.00    -0.206 F 
HETATM   36  C   UNL     1     -39.524  49.818 -51.492  1.00  0.00     0.043 A 
HETATM   37  C   UNL     1     -39.388  49.176 -52.721  1.00  0.00     0.003 A 
HETATM   38  C   UNL     1     -39.543  49.898 -53.906  1.00  0.00     0.001 A 
HETATM   39  C   UNL     1     -39.842  51.263 -53.868  1.00  0.00     0.012 A 
ENDBRANCH  32  33
ENDBRANCH  28  32
ENDBRANCH   4  25
TORSDOF 9
ENDMDL
MODEL 4
REMARK VINA RESULT:      -7.9      1.916      2.999
REMARK  9 active torsions:
REMARK  status: ('A' for Active; 'I' for Inactive)
REMARK    1  A    between atoms: O_2  and  C_3 
REMARK    2  A    between atoms: C_5  and  O_6 
REMARK    3  A    between atoms: C_9  and  C_10 
REMARK       I    between atoms: C_10  and  N_11 
REMARK    4  A    between atoms: N_11  and  C_12 
REMARK    5  A    between atoms: C_12  and  N_13 
REMARK    6  A    between atoms: N_13  and  C_14 
REMARK    7  A    between atoms: C_17  and  N_18 
REMARK    8  A    between atoms: N_21  and  C_23 
REMARK    9  A    between atoms: C_23  and  C_24 
ROOT
HETATM    1  C   UNL     1     -44.945  58.471 -53.451  1.00  0.00     0.034 A 
HETATM    2  C   UNL     1     -44.741  58.669 -52.086  1.00  0.00     0.032 A 
HETATM    3  C   UNL     1     -44.258  57.638 -51.260  1.00  0.00     0.031 A 
HETATM    4  C   UNL     1     -43.973  56.364 -51.758  1.00  0.00     0.030 A 
HETATM    5  C   UNL     1     -44.247  56.165 -53.123  1.00  0.00     0.031 A 
HETATM    6  C   UNL     1     -44.722  57.194 -53.957  1.00  0.00     0.032 A 
ENDROOT
BRANCH   1   7
HETATM    7  N   UNL     1     -45.453  59.463 -54.325  1.00  0.00    -0.333 N 
HETATM    8  H   UNL     1     -46.193  59.161 -54.947  1.00  0.00     0.168 HD
BRANCH   7   9
HETATM    9  C   UNL     1     -44.958  60.712 -54.577  1.00  0.00     0.179 C 
HETATM   10  S   UNL     1     -45.625  62.175 -54.091  1.00  0.00    -0.040 SA
BRANCH   9  11
HETATM   11  N   UNL     1     -43.781  60.804 -55.312  1.00  0.00    -0.299 N 
HETATM   12  C   UNL     1     -42.474  60.316 -55.407  1.00  0.00     0.258 C 
HETATM   13  O   UNL     1     -41.815  60.610 -56.405  1.00  0.00    -0.267 OA
HETATM   14  H   UNL     1     -43.928  61.418 -56.107  1.00  0.00     0.171 HD
BRANCH  12  15
HETATM   15  C   UNL     1     -41.807  59.555 -54.338  1.00  0.00     0.037 A 
HETATM   16  C   UNL     1     -41.628  60.032 -53.040  1.00  0.00     0.054 A 
HETATM   17  C   UNL     1     -41.012  59.224 -52.075  1.00  0.00     0.071 A 
HETATM   18  C   UNL     1     -40.667  57.905 -52.388  1.00  0.00     0.073 A 
HETATM   19  C   UNL     1     -40.929  57.402 -53.662  1.00  0.00     0.071 A 
HETATM   20  C   UNL     1     -41.464  58.232 -54.642  1.00  0.00     0.054 A 
BRANCH  17  21
HETATM   21  O   UNL     1     -40.800  59.837 -50.868  1.00  0.00    -0.356 OA
HETATM   22  C   UNL     1     -39.467  59.810 -50.364  1.00  0.00     0.210 C 
ENDBRANCH  17  21
BRANCH  19  23
HETATM   23  O   UNL     1     -40.645  56.119 -54.045  1.00  0.00    -0.356 OA
HETATM   24  C   UNL     1     -41.380  55.685 -55.189  1.00  0.00     0.210 C 
ENDBRANCH  19  23
ENDBRANCH  12  15
ENDBRANCH   9  11
ENDBRANCH   7   9
ENDBRANCH   1   7
BRANCH   4  25
HETATM   25  N   UNL     1     -43.506  55.318 -50.962  1.00  0.00    -0.378 N 
HETATM   26  C   UNL     1     -42.446  55.528 -49.957  1.00  0.00     0.150 C 
HETATM   27  C   UNL     1     -41.054  55.158 -50.516  1.00  0.00     0.255 C 
HETATM   28  N   UNL     1     -41.067  53.737 -51.077  1.00  0.00    -0.064 N 
HETATM   29  H   UNL     1     -41.309  53.106 -50.297  1.00  0.00     0.280 HD
HETATM   30  C   UNL     1     -42.165  53.585 -52.132  1.00  0.00     0.255 C 
HETATM   31  C   UNL     1     -43.537  53.952 -51.526  1.00  0.00     0.150 C 
BRANCH  28  32
HETATM   32  C   UNL     1     -39.708  53.295 -51.561  1.00  0.00     0.276 C 
BRANCH  32  33
HETATM   33  C   UNL     1     -39.696  51.934 -52.196  1.00  0.00     0.006 A 
HETATM   34  C   UNL     1     -39.749  51.807 -53.588  1.00  0.00     0.124 A 
HETATM   35  F   UNL     1     -39.774  52.920 -54.339  1.00  0.00    -0.206 F 
HETATM   36  C   UNL     1     -39.729  50.565 -54.211  1.00  0.00     0.043 A 
HETATM   37  C   UNL     1     -39.665  49.413 -53.431  1.00  0.00     0.003 A 
HETATM   38  C   UNL     1     -39.629  49.514 -52.040  1.00  0.00     0.001 A 
HETATM   39  C   UNL     1     -39.648  50.768 -51.421  1.00  0.00     0.012 A 
ENDBRANCH  32  33
ENDBRANCH  28  32
ENDBRANCH   4  25
TORSDOF 9
ENDMDL
MODEL 5
REMARK VINA RESULT:      -7.8      2.488      4.609
REMARK  9 active torsions:
REMARK  status: ('A' for Active; 'I' for Inactive)
REMARK    1  A    between atoms: O_2  and  C_3 
REMARK    2  A    between atoms: C_5  and  O_6 
REMARK    3  A    between atoms: C_9  and  C_10 
REMARK       I    between atoms: C_10  and  N_11 
REMARK    4  A    between atoms: N_11  and  C_12 
REMARK    5  A    between atoms: C_12  and  N_13 
REMARK    6  A    between atoms: N_13  and  C_14 
REMARK    7  A    between atoms: C_17  and  N_18 
REMARK    8  A    between atoms: N_21  and  C_23 
REMARK    9  A    between atoms: C_23  and  C_24 
ROOT
HETATM    1  C   UNL     1     -42.947  59.347 -52.596  1.00  0.00     0.034 A 
HETATM    2  C   UNL     1     -44.046  58.496 -52.490  1.00  0.00     0.032 A 
HETATM    3  C   UNL     1     -43.962  57.273 -51.801  1.00  0.00     0.031 A 
HETATM    4  C   UNL     1     -42.776  56.841 -51.202  1.00  0.00     0.030 A 
HETATM    5  C   UNL     1     -41.662  57.682 -51.376  1.00  0.00     0.031 A 
HETATM    6  C   UNL     1     -41.740  58.911 -52.057  1.00  0.00     0.032 A 
ENDROOT
BRANCH   1   7
HETATM    7  N   UNL     1     -42.966  60.577 -53.299  1.00  0.00    -0.333 N 
HETATM    8  H   UNL     1     -42.789  61.402 -52.740  1.00  0.00     0.168 HD
BRANCH   7   9
HETATM    9  C   UNL     1     -43.376  60.821 -54.580  1.00  0.00     0.179 C 
HETATM   10  S   UNL     1     -44.941  61.153 -55.090  1.00  0.00    -0.040 SA
BRANCH   9  11
HETATM   11  N   UNL     1     -42.412  60.793 -55.581  1.00  0.00    -0.299 N 
HETATM   12  C   UNL     1     -41.951  60.058 -56.678  1.00  0.00     0.258 C 
HETATM   13  O   UNL     1     -41.093  60.568 -57.401  1.00  0.00    -0.267 OA
HETATM   14  H   UNL     1     -41.856  61.642 -55.538  1.00  0.00     0.171 HD
BRANCH  12  15
HETATM   15  C   UNL     1     -42.359  58.672 -56.963  1.00  0.00     0.037 A 
HETATM   16  C   UNL     1     -42.492  58.152 -58.249  1.00  0.00     0.054 A 
HETATM   17  C   UNL     1     -42.852  56.809 -58.427  1.00  0.00     0.071 A 
HETATM   18  C   UNL     1     -42.980  55.968 -57.316  1.00  0.00     0.073 A 
HETATM   19  C   UNL     1     -42.758  56.472 -56.035  1.00  0.00     0.071 A 
HETATM   20  C   UNL     1     -42.483  57.824 -55.856  1.00  0.00     0.054 A 
BRANCH  17  21
HETATM   21  O   UNL     1     -43.053  56.439 -59.731  1.00  0.00    -0.356 OA
HETATM   22  C   UNL     1     -43.982  55.384 -59.960  1.00  0.00     0.210 C 
ENDBRANCH  17  21
BRANCH  19  23
HETATM   23  O   UNL     1     -42.839  55.716 -54.897  1.00  0.00    -0.356 OA
HETATM   24  C   UNL     1     -43.096  54.333 -55.143  1.00  0.00     0.210 C 
ENDBRANCH  19  23
ENDBRANCH  12  15
ENDBRANCH   9  11
ENDBRANCH   7   9
ENDBRANCH   1   7
BRANCH   4  25
HETATM   25  N   UNL     1     -42.657  55.628 -50.524  1.00  0.00    -0.378 N 
HETATM   26  C   UNL     1     -41.695  55.455 -49.418  1.00  0.00     0.150 C 
HETATM   27  C   UNL     1     -40.375  54.820 -49.910  1.00  0.00     0.255 C 
HETATM   28  N   UNL     1     -40.658  53.520 -50.660  1.00  0.00    -0.064 N 
HETATM   29  H   UNL     1     -41.125  52.883 -49.996  1.00  0.00     0.280 HD
HETATM   30  C   UNL     1     -41.638  53.765 -51.810  1.00  0.00     0.255 C 
HETATM   31  C   UNL     1     -42.944  54.386 -51.271  1.00  0.00     0.150 C 
BRANCH  28  32
HETATM   32  C   UNL     1     -39.395  52.816 -51.090  1.00  0.00     0.276 C 
BRANCH  32  33
HETATM   33  C   UNL     1     -39.604  51.777 -52.155  1.00  0.00     0.006 A 
HETATM   34  C   UNL     1     -39.534  50.417 -51.834  1.00  0.00     0.124 A 
HETATM   35  F   UNL     1     -39.313  50.064 -50.558  1.00  0.00    -0.206 F 
HETATM   36  C   UNL     1     -39.733  49.429 -52.791  1.00  0.00     0.043 A 
HETATM   37  C   UNL     1     -40.000  49.799 -54.107  1.00  0.00     0.003 A 
HETATM   38  C   UNL     1     -40.057  51.149 -54.454  1.00  0.00     0.001 A 
HETATM   39  C   UNL     1     -39.857  52.137 -53.485  1.00  0.00     0.012 A 
ENDBRANCH  32  33
ENDBRANCH  28  32
ENDBRANCH   4  25
TORSDOF 9
ENDMDL
MODEL 6
REMARK VINA RESULT:      -7.6      2.766      4.446
REMARK  9 active torsions:
REMARK  status: ('A' for Active; 'I' for Inactive)
REMARK    1  A    between atoms: O_2  and  C_3 
REMARK    2  A    between atoms: C_5  and  O_6 
REMARK    3  A    between atoms: C_9  and  C_10 
REMARK       I    between atoms: C_10  and  N_11 
REMARK    4  A    between atoms: N_11  and  C_12 
REMARK    5  A    between atoms: C_12  and  N_13 
REMARK    6  A    between atoms: N_13  and  C_14 
REMARK    7  A    between atoms: C_17  and  N_18 
REMARK    8  A    between atoms: N_21  and  C_23 
REMARK    9  A    between atoms: C_23  and  C_24 
ROOT
HETATM    1  C   UNL     1     -43.404  59.293 -53.683  1.00  0.00     0.034 A 
HETATM    2  C   UNL     1     -44.549  58.553 -53.394  1.00  0.00     0.032 A 
HETATM    3  C   UNL     1     -44.485  57.375 -52.628  1.00  0.00     0.031 A 
HETATM    4  C   UNL     1     -43.276  56.879 -52.134  1.00  0.00     0.030 A 
HETATM    5  C   UNL     1     -42.125  57.604 -52.492  1.00  0.00     0.031 A 
HETATM    6  C   UNL     1     -42.182  58.788 -53.250  1.00  0.00     0.032 A 
ENDROOT
BRANCH   1   7
HETATM    7  N   UNL     1     -43.406  60.472 -54.469  1.00  0.00    -0.333 N 
HETATM    8  H   UNL     1     -43.270  61.337 -53.960  1.00  0.00     0.168 HD
BRANCH   7   9
HETATM    9  C   UNL     1     -43.751  60.621 -55.784  1.00  0.00     0.179 C 
HETATM   10  S   UNL     1     -45.293  60.884 -56.395  1.00  0.00    -0.040 SA
BRANCH   9  11
HETATM   11  N   UNL     1     -42.735  60.546 -56.730  1.00  0.00    -0.299 N 
HETATM   12  C   UNL     1     -42.152  59.712 -57.689  1.00  0.00     0.258 C 
HETATM   13  O   UNL     1     -41.305  60.197 -58.442  1.00  0.00    -0.267 OA
HETATM   14  H   UNL     1     -42.262  61.443 -56.787  1.00  0.00     0.171 HD
BRANCH  12  15
HETATM   15  C   UNL     1     -42.418  58.268 -57.787  1.00  0.00     0.037 A 
HETATM   16  C   UNL     1     -42.487  57.416 -56.686  1.00  0.00     0.054 A 
HETATM   17  C   UNL     1     -42.781  56.058 -56.869  1.00  0.00     0.071 A 
HETATM   18  C   UNL     1     -43.101  55.579 -58.144  1.00  0.00     0.073 A 
HETATM   19  C   UNL     1     -43.117  56.454 -59.230  1.00  0.00     0.071 A 
HETATM   20  C   UNL     1     -42.744  57.783 -59.059  1.00  0.00     0.054 A 
BRANCH  17  21
HETATM   21  O   UNL     1     -42.720  55.301 -55.728  1.00  0.00    -0.356 OA
HETATM   22  C   UNL     1     -43.298  54.001 -55.792  1.00  0.00     0.210 C 
ENDBRANCH  17  21
BRANCH  19  23
HETATM   23  O   UNL     1     -43.440  56.075 -60.505  1.00  0.00    -0.356 OA
HETATM   24  C   UNL     1     -44.554  55.185 -60.575  1.00  0.00     0.210 C 
ENDBRANCH  19  23
ENDBRANCH  12  15
ENDBRANCH   9  11
ENDBRANCH   7   9
ENDBRANCH   1   7
BRANCH   4  25
HETATM   25  N   UNL     1     -43.177  55.707 -51.384  1.00  0.00    -0.378 N 
HETATM   26  C   UNL     1     -42.367  55.646 -50.152  1.00  0.00     0.150 C 
HETATM   27  C   UNL     1     -40.956  55.081 -50.429  1.00  0.00     0.255 C 
HETATM   28  N   UNL     1     -41.054  53.733 -51.143  1.00  0.00    -0.064 N 
HETATM   29  H   UNL     1     -41.568  53.096 -50.515  1.00  0.00     0.280 HD
HETATM   30  C   UNL     1     -41.879  53.862 -52.425  1.00  0.00     0.255 C 
HETATM   31  C   UNL     1     -43.283  54.417 -52.098  1.00  0.00     0.150 C 
BRANCH  28  32
HETATM   32  C   UNL     1     -39.703  53.099 -51.363  1.00  0.00     0.276 C 
BRANCH  32  33
HETATM   33  C   UNL     1     -39.730  51.898 -52.265  1.00  0.00     0.006 A 
HETATM   34  C   UNL     1     -39.642  50.610 -51.726  1.00  0.00     0.124 A 
HETATM   35  F   UNL     1     -39.571  50.471 -50.392  1.00  0.00    -0.206 F 
HETATM   36  C   UNL     1     -39.676  49.476 -52.529  1.00  0.00     0.043 A 
HETATM   37  C   UNL     1     -39.788  49.623 -53.909  1.00  0.00     0.003 A 
HETATM   38  C   UNL     1     -39.859  50.898 -54.472  1.00  0.00     0.001 A 
HETATM   39  C   UNL     1     -39.826  52.034 -53.657  1.00  0.00     0.012 A 
ENDBRANCH  32  33
ENDBRANCH  28  32
ENDBRANCH   4  25
TORSDOF 9
ENDMDL
MODEL 7
REMARK VINA RESULT:      -7.5      2.394      3.769
REMARK  9 active torsions:
REMARK  status: ('A' for Active; 'I' for Inactive)
REMARK    1  A    between atoms: O_2  and  C_3 
REMARK    2  A    between atoms: C_5  and  O_6 
REMARK    3  A    between atoms: C_9  and  C_10 
REMARK       I    between atoms: C_10  and  N_11 
REMARK    4  A    between atoms: N_11  and  C_12 
REMARK    5  A    between atoms: C_12  and  N_13 
REMARK    6  A    between atoms: N_13  and  C_14 
REMARK    7  A    between atoms: C_17  and  N_18 
REMARK    8  A    between atoms: N_21  and  C_23 
REMARK    9  A    between atoms: C_23  and  C_24 
ROOT
HETATM    1  C   UNL     1     -44.206  57.238 -55.220  1.00  0.00     0.034 A 
HETATM    2  C   UNL     1     -44.817  57.741 -54.073  1.00  0.00     0.032 A 
HETATM    3  C   UNL     1     -44.485  57.258 -52.794  1.00  0.00     0.031 A 
HETATM    4  C   UNL     1     -43.542  56.243 -52.608  1.00  0.00     0.030 A 
HETATM    5  C   UNL     1     -42.985  55.703 -53.782  1.00  0.00     0.031 A 
HETATM    6  C   UNL     1     -43.307  56.187 -55.064  1.00  0.00     0.032 A 
ENDROOT
BRANCH   1   7
HETATM    7  N   UNL     1     -44.519  57.668 -56.533  1.00  0.00    -0.333 N 
HETATM    8  H   UNL     1     -45.497  57.860 -56.709  1.00  0.00     0.168 HD
BRANCH   7   9
HETATM    9  C   UNL     1     -43.718  57.677 -57.641  1.00  0.00     0.179 C 
HETATM   10  S   UNL     1     -43.713  56.553 -58.889  1.00  0.00    -0.040 SA
BRANCH   9  11
HETATM   11  N   UNL     1     -42.802  58.716 -57.766  1.00  0.00    -0.299 N 
HETATM   12  C   UNL     1     -42.067  59.660 -57.042  1.00  0.00     0.258 C 
HETATM   13  O   UNL     1     -41.206  60.307 -57.639  1.00  0.00    -0.267 OA
HETATM   14  H   UNL     1     -42.520  58.800 -58.738  1.00  0.00     0.171 HD
BRANCH  12  15
HETATM   15  C   UNL     1     -42.331  59.995 -55.633  1.00  0.00     0.037 A 
HETATM   16  C   UNL     1     -41.568  59.520 -54.567  1.00  0.00     0.054 A 
HETATM   17  C   UNL     1     -41.870  59.920 -53.258  1.00  0.00     0.071 A 
HETATM   18  C   UNL     1     -42.871  60.869 -53.032  1.00  0.00     0.073 A 
HETATM   19  C   UNL     1     -43.573  61.408 -54.109  1.00  0.00     0.071 A 
HETATM   20  C   UNL     1     -43.329  60.949 -55.400  1.00  0.00     0.054 A 
BRANCH  17  21
HETATM   21  O   UNL     1     -41.119  59.310 -52.287  1.00  0.00    -0.356 OA
HETATM   22  C   UNL     1     -41.296  59.777 -50.954  1.00  0.00     0.210 C 
ENDBRANCH  17  21
BRANCH  19  23
HETATM   23  O   UNL     1     -44.551  62.356 -53.980  1.00  0.00    -0.356 OA
HETATM   24  C   UNL     1     -44.559  63.005 -52.709  1.00  0.00     0.210 C 
ENDBRANCH  19  23
ENDBRANCH  12  15
ENDBRANCH   9  11
ENDBRANCH   7   9
ENDBRANCH   1   7
BRANCH   4  25
HETATM   25  N   UNL     1     -43.201  55.734 -51.355  1.00  0.00    -0.378 N 
HETATM   26  C   UNL     1     -42.036  56.245 -50.607  1.00  0.00     0.150 C 
HETATM   27  C   UNL     1     -40.787  55.363 -50.832  1.00  0.00     0.255 C 
HETATM   28  N   UNL     1     -41.104  53.902 -50.514  1.00  0.00    -0.064 N 
HETATM   29  H   UNL     1     -41.385  53.863 -49.522  1.00  0.00     0.280 HD
HETATM   30  C   UNL     1     -42.301  53.420 -51.337  1.00  0.00     0.255 C 
HETATM   31  C   UNL     1     -43.526  54.320 -51.071  1.00  0.00     0.150 C 
BRANCH  28  32
HETATM   32  C   UNL     1     -39.894  53.010 -50.638  1.00  0.00     0.276 C 
BRANCH  32  33
HETATM   33  C   UNL     1     -39.898  52.138 -51.861  1.00  0.00     0.006 A 
HETATM   34  C   UNL     1     -39.679  50.762 -51.745  1.00  0.00     0.124 A 
HETATM   35  F   UNL     1     -39.502  50.235 -50.523  1.00  0.00    -0.206 F 
HETATM   36  C   UNL     1     -39.687  49.923 -52.854  1.00  0.00     0.043 A 
HETATM   37  C   UNL     1     -39.908  50.467 -54.116  1.00  0.00     0.003 A 
HETATM   38  C   UNL     1     -40.112  51.840 -54.259  1.00  0.00     0.001 A 
HETATM   39  C   UNL     1     -40.104  52.676 -53.139  1.00  0.00     0.012 A 
ENDBRANCH  32  33
ENDBRANCH  28  32
ENDBRANCH   4  25
TORSDOF 9
ENDMDL
MODEL 8
REMARK VINA RESULT:      -7.5      2.579      4.019
REMARK  9 active torsions:
REMARK  status: ('A' for Active; 'I' for Inactive)
REMARK    1  A    between atoms: O_2  and  C_3 
REMARK    2  A    between atoms: C_5  and  O_6 
REMARK    3  A    between atoms: C_9  and  C_10 
REMARK       I    between atoms: C_10  and  N_11 
REMARK    4  A    between atoms: N_11  and  C_12 
REMARK    5  A    between atoms: C_12  and  N_13 
REMARK    6  A    between atoms: N_13  and  C_14 
REMARK    7  A    between atoms: C_17  and  N_18 
REMARK    8  A    between atoms: N_21  and  C_23 
REMARK    9  A    between atoms: C_23  and  C_24 
ROOT
HETATM    1  C   UNL     1     -45.451  59.430 -52.898  1.00  0.00     0.034 A 
HETATM    2  C   UNL     1     -45.516  59.161 -51.532  1.00  0.00     0.032 A 
HETATM    3  C   UNL     1     -44.801  58.093 -50.961  1.00  0.00     0.031 A 
HETATM    4  C   UNL     1     -44.006  57.240 -51.731  1.00  0.00     0.030 A 
HETATM    5  C   UNL     1     -44.005  57.488 -53.115  1.00  0.00     0.031 A 
HETATM    6  C   UNL     1     -44.711  58.560 -53.692  1.00  0.00     0.032 A 
ENDROOT
BRANCH   1   7
HETATM    7  N   UNL     1     -46.168  60.476 -53.531  1.00  0.00    -0.333 N 
HETATM    8  H   UNL     1     -47.131  60.586 -53.236  1.00  0.00     0.168 HD
BRANCH   7   9
HETATM    9  C   UNL     1     -45.802  61.229 -54.611  1.00  0.00     0.179 C 
HETATM   10  S   UNL     1     -44.847  62.610 -54.598  1.00  0.00    -0.040 SA
BRANCH   9  11
HETATM   11  N   UNL     1     -46.260  60.828 -55.862  1.00  0.00    -0.299 N 
HETATM   12  C   UNL     1     -45.948  60.037 -56.972  1.00  0.00     0.258 C 
HETATM   13  O   UNL     1     -46.816  59.873 -57.831  1.00  0.00    -0.267 OA
HETATM   14  H   UNL     1     -47.187  61.210 -56.019  1.00  0.00     0.171 HD
BRANCH  12  15
HETATM   15  C   UNL     1     -44.612  59.470 -57.223  1.00  0.00     0.037 A 
HETATM   16  C   UNL     1     -43.438  60.222 -57.221  1.00  0.00     0.054 A 
HETATM   17  C   UNL     1     -42.204  59.593 -57.435  1.00  0.00     0.071 A 
HETATM   18  C   UNL     1     -42.142  58.201 -57.551  1.00  0.00     0.073 A 
HETATM   19  C   UNL     1     -43.310  57.444 -57.464  1.00  0.00     0.071 A 
HETATM   20  C   UNL     1     -44.542  58.076 -57.335  1.00  0.00     0.054 A 
BRANCH  17  21
HETATM   21  O   UNL     1     -41.135  60.446 -57.514  1.00  0.00    -0.356 OA
HETATM   22  C   UNL     1     -41.189  61.447 -58.526  1.00  0.00     0.210 C 
ENDBRANCH  17  21
BRANCH  19  23
HETATM   23  O   UNL     1     -43.337  56.078 -57.544  1.00  0.00    -0.356 OA
HETATM   24  C   UNL     1     -42.733  55.425 -56.427  1.00  0.00     0.210 C 
ENDBRANCH  19  23
ENDBRANCH  12  15
ENDBRANCH   9  11
ENDBRANCH   7   9
ENDBRANCH   1   7
BRANCH   4  25
HETATM   25  N   UNL     1     -43.296  56.164 -51.197  1.00  0.00    -0.378 N 
HETATM   26  C   UNL     1     -41.863  56.278 -50.860  1.00  0.00     0.150 C 
HETATM   27  C   UNL     1     -40.969  55.749 -52.004  1.00  0.00     0.255 C 
HETATM   28  N   UNL     1     -41.379  54.327 -52.385  1.00  0.00    -0.064 N 
HETATM   29  H   UNL     1     -41.255  53.741 -51.544  1.00  0.00     0.280 HD
HETATM   30  C   UNL     1     -42.865  54.275 -52.750  1.00  0.00     0.255 C 
HETATM   31  C   UNL     1     -43.718  54.800 -51.575  1.00  0.00     0.150 C 
BRANCH  28  32
HETATM   32  C   UNL     1     -40.482  53.732 -53.442  1.00  0.00     0.276 C 
BRANCH  32  33
HETATM   33  C   UNL     1     -40.178  52.275 -53.239  1.00  0.00     0.006 A 
HETATM   34  C   UNL     1     -39.740  51.816 -51.992  1.00  0.00     0.124 A 
HETATM   35  F   UNL     1     -39.632  52.692 -50.980  1.00  0.00    -0.206 F 
HETATM   36  C   UNL     1     -39.460  50.473 -51.764  1.00  0.00     0.043 A 
HETATM   37  C   UNL     1     -39.609  49.561 -52.805  1.00  0.00     0.003 A 
HETATM   38  C   UNL     1     -40.029  49.998 -54.062  1.00  0.00     0.001 A 
HETATM   39  C   UNL     1     -40.309  51.350 -54.283  1.00  0.00     0.012 A 
ENDBRANCH  32  33
ENDBRANCH  28  32
ENDBRANCH   4  25
TORSDOF 9
ENDMDL
MODEL 9
REMARK VINA RESULT:      -7.4      2.590      4.488
REMARK  9 active torsions:
REMARK  status: ('A' for Active; 'I' for Inactive)
REMARK    1  A    between atoms: O_2  and  C_3 
REMARK    2  A    between atoms: C_5  and  O_6 
REMARK    3  A    between atoms: C_9  and  C_10 
REMARK       I    between atoms: C_10  and  N_11 
REMARK    4  A    between atoms: N_11  and  C_12 
REMARK    5  A    between atoms: C_12  and  N_13 
REMARK    6  A    between atoms: N_13  and  C_14 
REMARK    7  A    between atoms: C_17  and  N_18 
REMARK    8  A    between atoms: N_21  and  C_23 
REMARK    9  A    between atoms: C_23  and  C_24 
ROOT
HETATM    1  C   UNL     1     -44.042  60.173 -54.253  1.00  0.00     0.034 A 
HETATM    2  C   UNL     1     -43.058  59.719 -53.376  1.00  0.00     0.032 A 
HETATM    3  C   UNL     1     -42.948  58.358 -53.041  1.00  0.00     0.031 A 
HETATM    4  C   UNL     1     -43.823  57.397 -53.554  1.00  0.00     0.030 A 
HETATM    5  C   UNL     1     -44.849  57.884 -54.384  1.00  0.00     0.031 A 
HETATM    6  C   UNL     1     -44.961  59.243 -54.730  1.00  0.00     0.032 A 
ENDROOT
BRANCH   1   7
HETATM    7  N   UNL     1     -44.217  61.535 -54.606  1.00  0.00    -0.333 N 
HETATM    8  H   UNL     1     -45.041  61.983 -54.225  1.00  0.00     0.168 HD
BRANCH   7   9
HETATM    9  C   UNL     1     -43.534  62.269 -55.535  1.00  0.00     0.179 C 
HETATM   10  S   UNL     1     -43.826  63.865 -55.968  1.00  0.00    -0.040 SA
BRANCH   9  11
HETATM   11  N   UNL     1     -42.487  61.648 -56.206  1.00  0.00    -0.299 N 
HETATM   12  C   UNL     1     -42.186  60.690 -57.179  1.00  0.00     0.258 C 
HETATM   13  O   UNL     1     -41.020  60.601 -57.567  1.00  0.00    -0.267 OA
HETATM   14  H   UNL     1     -41.608  62.071 -55.924  1.00  0.00     0.171 HD
BRANCH  12  15
HETATM   15  C   UNL     1     -43.161  59.715 -57.696  1.00  0.00     0.037 A 
HETATM   16  C   UNL     1     -44.358  60.070 -58.317  1.00  0.00     0.054 A 
HETATM   17  C   UNL     1     -45.212  59.075 -58.811  1.00  0.00     0.071 A 
HETATM   18  C   UNL     1     -44.818  57.733 -58.769  1.00  0.00     0.073 A 
HETATM   19  C   UNL     1     -43.580  57.390 -58.226  1.00  0.00     0.071 A 
HETATM   20  C   UNL     1     -42.771  58.371 -57.661  1.00  0.00     0.054 A 
BRANCH  17  21
HETATM   21  O   UNL     1     -46.402  59.538 -59.307  1.00  0.00    -0.356 OA
HETATM   22  C   UNL     1     -47.461  59.711 -58.370  1.00  0.00     0.210 C 
ENDBRANCH  17  21
BRANCH  19  23
HETATM   23  O   UNL     1     -43.107  56.108 -58.165  1.00  0.00    -0.356 OA
HETATM   24  C   UNL     1     -43.765  55.209 -59.059  1.00  0.00     0.210 C 
ENDBRANCH  19  23
ENDBRANCH  12  15
ENDBRANCH   9  11
ENDBRANCH   7   9
ENDBRANCH   1   7
BRANCH   4  25
HETATM   25  N   UNL     1     -43.748  56.042 -53.230  1.00  0.00    -0.378 N 
HETATM   26  C   UNL     1     -43.007  55.573 -52.042  1.00  0.00     0.150 C 
HETATM   27  C   UNL     1     -41.573  55.128 -52.409  1.00  0.00     0.255 C 
HETATM   28  N   UNL     1     -41.610  54.093 -53.533  1.00  0.00    -0.064 N 
HETATM   29  H   UNL     1     -42.148  53.286 -53.183  1.00  0.00     0.280 HD
HETATM   30  C   UNL     1     -42.365  54.643 -54.746  1.00  0.00     0.255 C 
HETATM   31  C   UNL     1     -43.793  55.062 -54.336  1.00  0.00     0.150 C 
BRANCH  28  32
HETATM   32  C   UNL     1     -40.238  53.563 -53.872  1.00  0.00     0.276 C 
BRANCH  32  33
HETATM   33  C   UNL     1     -40.015  52.135 -53.462  1.00  0.00     0.006 A 
HETATM   34  C   UNL     1     -39.673  51.828 -52.141  1.00  0.00     0.124 A 
HETATM   35  F   UNL     1     -39.585  52.826 -51.247  1.00  0.00    -0.206 F 
HETATM   36  C   UNL     1     -39.470  50.518 -51.723  1.00  0.00     0.043 A 
HETATM   37  C   UNL     1     -39.599  49.482 -52.645  1.00  0.00     0.003 A 
HETATM   38  C   UNL     1     -39.923  49.765 -53.972  1.00  0.00     0.001 A 
HETATM   39  C   UNL     1     -40.127  51.086 -54.384  1.00  0.00     0.012 A 
ENDBRANCH  32  33
ENDBRANCH  28  32
ENDBRANCH   4  25
TORSDOF 9
ENDMDL
MODEL 10
REMARK VINA RESULT:      -7.4      1.405      2.705
REMARK  9 active torsions:
REMARK  status: ('A' for Active; 'I' for Inactive)
REMARK    1  A    between atoms: O_2  and  C_3 
REMARK    2  A    between atoms: C_5  and  O_6 
REMARK    3  A    between atoms: C_9  and  C_10 
REMARK       I    between atoms: C_10  and  N_11 
REMARK    4  A    between atoms: N_11  and  C_12 
REMARK    5  A    between atoms: C_12  and  N_13 
REMARK    6  A    between atoms: N_13  and  C_14 
REMARK    7  A    between atoms: C_17  and  N_18 
REMARK    8  A    between atoms: N_21  and  C_23 
REMARK    9  A    between atoms: C_23  and  C_24 
ROOT
HETATM    1  C   UNL     1     -45.468  59.412 -52.377  1.00  0.00     0.034 A 
HETATM    2  C   UNL     1     -44.971  58.485 -53.291  1.00  0.00     0.032 A 
HETATM    3  C   UNL     1     -44.360  57.292 -52.865  1.00  0.00     0.031 A 
HETATM    4  C   UNL     1     -44.205  56.983 -51.511  1.00  0.00     0.030 A 
HETATM    5  C   UNL     1     -44.654  57.960 -50.605  1.00  0.00     0.031 A 
HETATM    6  C   UNL     1     -45.274  59.152 -51.023  1.00  0.00     0.032 A 
ENDROOT
BRANCH   1   7
HETATM    7  N   UNL     1     -46.070  60.641 -52.747  1.00  0.00    -0.333 N 
HETATM    8  H   UNL     1     -46.518  60.651 -53.656  1.00  0.00     0.168 HD
BRANCH   7   9
HETATM    9  C   UNL     1     -45.966  61.859 -52.137  1.00  0.00     0.179 C 
HETATM   10  S   UNL     1     -47.056  62.538 -51.055  1.00  0.00    -0.040 SA
BRANCH   9  11
HETATM   11  N   UNL     1     -44.851  62.635 -52.431  1.00  0.00    -0.299 N 
HETATM   12  C   UNL     1     -43.550  62.586 -52.943  1.00  0.00     0.258 C 
HETATM   13  O   UNL     1     -42.973  63.651 -53.166  1.00  0.00    -0.267 OA
HETATM   14  H   UNL     1     -45.064  63.612 -52.254  1.00  0.00     0.171 HD
BRANCH  12  15
HETATM   15  C   UNL     1     -42.796  61.336 -53.138  1.00  0.00     0.037 A 
HETATM   16  C   UNL     1     -42.470  60.814 -54.389  1.00  0.00     0.054 A 
HETATM   17  C   UNL     1     -41.717  59.635 -54.481  1.00  0.00     0.071 A 
HETATM   18  C   UNL     1     -41.210  59.040 -53.321  1.00  0.00     0.073 A 
HETATM   19  C   UNL     1     -41.463  59.616 -52.077  1.00  0.00     0.071 A 
HETATM   20  C   UNL     1     -42.280  60.739 -51.982  1.00  0.00     0.054 A 
BRANCH  17  21
HETATM   21  O   UNL     1     -41.549  59.164 -55.756  1.00  0.00    -0.356 OA
HETATM   22  C   UNL     1     -42.388  58.084 -56.155  1.00  0.00     0.210 C 
ENDBRANCH  17  21
BRANCH  19  23
HETATM   23  O   UNL     1     -40.987  59.114 -50.897  1.00  0.00    -0.356 OA
HETATM   24  C   UNL     1     -39.754  59.700 -50.478  1.00  0.00     0.210 C 
ENDBRANCH  19  23
ENDBRANCH  12  15
ENDBRANCH   9  11
ENDBRANCH   7   9
ENDBRANCH   1   7
BRANCH   4  25
HETATM   25  N   UNL     1     -43.592  55.815 -51.057  1.00  0.00    -0.378 N 
HETATM   26  C   UNL     1     -42.233  55.833 -50.479  1.00  0.00     0.150 C 
HETATM   27  C   UNL     1     -41.164  55.477 -51.536  1.00  0.00     0.255 C 
HETATM   28  N   UNL     1     -41.505  54.149 -52.210  1.00  0.00    -0.064 N 
HETATM   29  H   UNL     1     -41.519  53.429 -51.471  1.00  0.00     0.280 HD
HETATM   30  C   UNL     1     -42.910  54.198 -52.815  1.00  0.00     0.255 C 
HETATM   31  C   UNL     1     -43.945  54.543 -51.722  1.00  0.00     0.150 C 
BRANCH  28  32
HETATM   32  C   UNL     1     -40.446  53.714 -53.193  1.00  0.00     0.276 C 
BRANCH  32  33
HETATM   33  C   UNL     1     -40.157  52.240 -53.170  1.00  0.00     0.006 A 
HETATM   34  C   UNL     1     -39.718  51.628 -51.990  1.00  0.00     0.124 A 
HETATM   35  F   UNL     1     -39.596  52.374 -50.881  1.00  0.00    -0.206 F 
HETATM   36  C   UNL     1     -39.452  50.266 -51.928  1.00  0.00     0.043 A 
HETATM   37  C   UNL     1     -39.615  49.487 -53.071  1.00  0.00     0.003 A 
HETATM   38  C   UNL     1     -40.035  50.078 -54.264  1.00  0.00     0.001 A 
HETATM   39  C   UNL     1     -40.302  51.450 -54.317  1.00  0.00     0.012 A 
ENDBRANCH  32  33
ENDBRANCH  28  32
ENDBRANCH   4  25
TORSDOF 9
ENDMDL
