MODEL 1
REMARK VINA RESULT:      -8.0      0.000      0.000
REMARK  7 active torsions:
REMARK  status: ('A' for Active; 'I' for Inactive)
REMARK    1  A    between atoms: C_2  and  O_3 
REMARK    2  A    between atoms: O_3  and  C_4 
REMARK    3  A    between atoms: C_4  and  C_5 
REMARK    4  A    between atoms: C_6  and  C_7 
REMARK    5  A    between atoms: C_18  and  S_19 
REMARK    6  A    between atoms: S_19  and  C_20 
REMARK    7  A    between atoms: C_20  and  C_21 
ROOT
HETATM    1  C   UNL     1     -41.276  57.289 -51.907  1.00  0.00     0.070 C 
HETATM    2  C   UNL     1     -42.100  56.688 -53.049  1.00  0.00     0.204 C 
HETATM    3  N   UNL     1     -42.247  57.644 -54.154  1.00  0.00    -0.082 N 
HETATM    4  C   UNL     1     -41.505  58.783 -54.280  1.00  0.00     0.726 A 
HETATM    5  N   UNL     1     -40.642  59.115 -53.304  1.00  0.00    -0.192 N 
HETATM    6  N   UNL     1     -43.106  57.498 -55.182  1.00  0.00    -0.128 NA
HETATM    7  C   UNL     1     -42.787  58.564 -55.927  1.00  0.00     0.226 A 
HETATM    8  N   UNL     1     -41.809  59.377 -55.404  1.00  0.00    -0.035 NA
HETATM    9  C   UNL     1     -40.576  58.442 -52.085  1.00  0.00     0.037 C 
HETATM   10  C   UNL     1     -39.694  59.080 -51.040  1.00  0.00     0.070 C 
HETATM   11  H   UNL     1     -40.164  60.012 -53.370  1.00  0.00     0.184 HD
ENDROOT
BRANCH   7  12
HETATM   12  S   UNL     1     -43.510  58.882 -57.479  1.00  0.00    -0.083 SA
BRANCH  12  13
HETATM   13  C   UNL     1     -42.514  57.807 -58.548  1.00  0.00     0.123 C 
BRANCH  13  14
HETATM   14  C   UNL     1     -43.352  56.713 -59.169  1.00  0.00    -0.027 A 
HETATM   15  C   UNL     1     -43.519  55.449 -58.581  1.00  0.00     0.041 A 
HETATM   16 CL   UNL     1     -42.754  55.023 -57.092  1.00  0.00    -0.084 Cl
HETATM   17  C   UNL     1     -44.322  54.481 -59.195  1.00  0.00     0.024 A 
HETATM   18  C   UNL     1     -44.969  54.761 -60.398  1.00  0.00     0.002 A 
HETATM   19  C   UNL     1     -44.817  56.010 -60.991  1.00  0.00     0.001 A 
HETATM   20  C   UNL     1     -44.019  56.980 -60.380  1.00  0.00     0.009 A 
ENDBRANCH  13  14
ENDBRANCH  12  13
ENDBRANCH   7  12
BRANCH   2  21
HETATM   21  C   UNL     1     -41.512  55.391 -53.612  1.00  0.00    -0.006 A 
HETATM   22  C   UNL     1     -42.010  54.125 -53.255  1.00  0.00     0.042 A 
HETATM   23 CL   UNL     1     -43.308  53.920 -52.132  1.00  0.00    -0.084 Cl
HETATM   24  C   UNL     1     -41.458  52.961 -53.801  1.00  0.00     0.024 A 
HETATM   25  C   UNL     1     -40.409  53.038 -54.716  1.00  0.00     0.002 A 
HETATM   26  C   UNL     1     -39.909  54.279 -55.090  1.00  0.00     0.001 A 
HETATM   27  C   UNL     1     -40.454  55.445 -54.546  1.00  0.00     0.011 A 
ENDBRANCH   2  21
BRANCH   1  28
HETATM   28  C   UNL     1     -41.371  56.631 -50.578  1.00  0.00     0.293 C 
HETATM   29  O   UNL     1     -42.347  56.681 -49.847  1.00  0.00    -0.259 OA
BRANCH  28  30
HETATM   30  O   UNL     1     -40.240  55.936 -50.317  1.00  0.00    -0.318 OA
BRANCH  30  31
HETATM   31  C   UNL     1     -40.399  54.704 -49.596  1.00  0.00     0.174 C 
HETATM   32  C   UNL     1     -39.837  53.550 -50.407  1.00  0.00     0.034 C 
ENDBRANCH  30  31
ENDBRANCH  28  30
ENDBRANCH   1  28
TORSDOF 7
ENDMDL
MODEL 2
REMARK VINA RESULT:      -7.9      3.627      6.504
REMARK  7 active torsions:
REMARK  status: ('A' for Active; 'I' for Inactive)
REMARK    1  A    between atoms: C_2  and  O_3 
REMARK    2  A    between atoms: O_3  and  C_4 
REMARK    3  A    between atoms: C_4  and  C_5 
REMARK    4  A    between atoms: C_6  and  C_7 
REMARK    5  A    between atoms: C_18  and  S_19 
REMARK    6  A    between atoms: S_19  and  C_20 
REMARK    7  A    between atoms: C_20  and  C_21 
ROOT
HETATM    1  C   UNL     1     -43.798  58.038 -52.367  1.00  0.00     0.070 C 
HETATM    2  C   UNL     1     -42.624  57.119 -52.717  1.00  0.00     0.204 C 
HETATM    3  N   UNL     1     -42.440  56.084 -51.691  1.00  0.00    -0.082 N 
HETATM    4  C   UNL     1     -43.364  55.793 -50.728  1.00  0.00     0.726 A 
HETATM    5  N   UNL     1     -44.478  56.541 -50.640  1.00  0.00    -0.192 N 
HETATM    6  N   UNL     1     -41.359  55.286 -51.596  1.00  0.00    -0.128 NA
HETATM    7  C   UNL     1     -41.723  54.492 -50.580  1.00  0.00     0.226 A 
HETATM    8  N   UNL     1     -42.947  54.775 -50.021  1.00  0.00    -0.035 NA
HETATM    9  C   UNL     1     -44.672  57.706 -51.379  1.00  0.00     0.037 C 
HETATM   10  C   UNL     1     -45.886  58.519 -51.000  1.00  0.00     0.070 C 
HETATM   11  H   UNL     1     -45.111  56.369 -49.861  1.00  0.00     0.184 HD
ENDROOT
BRANCH   7  12
HETATM   12  S   UNL     1     -40.752  53.155 -50.031  1.00  0.00    -0.083 SA
BRANCH  12  13
HETATM   13  C   UNL     1     -39.474  53.109 -51.318  1.00  0.00     0.123 C 
BRANCH  13  14
HETATM   14  C   UNL     1     -39.645  51.913 -52.226  1.00  0.00    -0.027 A 
HETATM   15  C   UNL     1     -39.924  52.026 -53.598  1.00  0.00     0.041 A 
HETATM   16 CL   UNL     1     -40.121  53.559 -54.369  1.00  0.00    -0.084 Cl
HETATM   17  C   UNL     1     -40.053  50.882 -54.392  1.00  0.00     0.024 A 
HETATM   18  C   UNL     1     -39.904  49.613 -53.832  1.00  0.00     0.002 A 
HETATM   19  C   UNL     1     -39.623  49.485 -52.477  1.00  0.00     0.001 A 
HETATM   20  C   UNL     1     -39.490  50.624 -51.680  1.00  0.00     0.009 A 
ENDBRANCH  13  14
ENDBRANCH  12  13
ENDBRANCH   7  12
BRANCH   2  21
HETATM   21  C   UNL     1     -42.772  56.427 -54.074  1.00  0.00    -0.006 A 
HETATM   22  C   UNL     1     -42.350  57.030 -55.274  1.00  0.00     0.042 A 
HETATM   23 CL   UNL     1     -41.655  58.611 -55.323  1.00  0.00    -0.084 Cl
HETATM   24  C   UNL     1     -42.487  56.361 -56.495  1.00  0.00     0.024 A 
HETATM   25  C   UNL     1     -43.037  55.081 -56.543  1.00  0.00     0.002 A 
HETATM   26  C   UNL     1     -43.450  54.463 -55.369  1.00  0.00     0.001 A 
HETATM   27  C   UNL     1     -43.318  55.126 -54.147  1.00  0.00     0.011 A 
ENDBRANCH   2  21
BRANCH   1  28
HETATM   28  C   UNL     1     -43.868  59.349 -53.063  1.00  0.00     0.293 C 
HETATM   29  O   UNL     1     -44.674  59.631 -53.935  1.00  0.00    -0.259 OA
BRANCH  28  30
HETATM   30  O   UNL     1     -42.939  60.196 -52.561  1.00  0.00    -0.318 OA
BRANCH  30  31
HETATM   31  C   UNL     1     -43.422  61.227 -51.685  1.00  0.00     0.174 C 
HETATM   32  C   UNL     1     -42.898  61.004 -50.279  1.00  0.00     0.034 C 
ENDBRANCH  30  31
ENDBRANCH  28  30
ENDBRANCH   1  28
TORSDOF 7
ENDMDL
MODEL 3
REMARK VINA RESULT:      -7.8      3.617      6.586
REMARK  7 active torsions:
REMARK  status: ('A' for Active; 'I' for Inactive)
REMARK    1  A    between atoms: C_2  and  O_3 
REMARK    2  A    between atoms: O_3  and  C_4 
REMARK    3  A    between atoms: C_4  and  C_5 
REMARK    4  A    between atoms: C_6  and  C_7 
REMARK    5  A    between atoms: C_18  and  S_19 
REMARK    6  A    between atoms: S_19  and  C_20 
REMARK    7  A    between atoms: C_20  and  C_21 
ROOT
HETATM    1  C   UNL     1     -43.883  58.325 -52.476  1.00  0.00     0.070 C 
HETATM    2  C   UNL     1     -42.594  57.602 -52.877  1.00  0.00     0.204 C 
HETATM    3  N   UNL     1     -42.120  56.730 -51.795  1.00  0.00    -0.082 N 
HETATM    4  C   UNL     1     -42.876  56.377 -50.713  1.00  0.00     0.726 A 
HETATM    5  N   UNL     1     -44.099  56.917 -50.564  1.00  0.00    -0.192 N 
HETATM    6  N   UNL     1     -40.903  56.154 -51.755  1.00  0.00    -0.128 NA
HETATM    7  C   UNL     1     -41.011  55.417 -50.643  1.00  0.00     0.226 A 
HETATM    8  N   UNL     1     -42.208  55.530 -49.975  1.00  0.00    -0.035 NA
HETATM    9  C   UNL     1     -44.580  57.946 -51.372  1.00  0.00     0.037 C 
HETATM   10  C   UNL     1     -45.886  58.560 -50.928  1.00  0.00     0.070 C 
HETATM   11  H   UNL     1     -44.611  56.715 -49.708  1.00  0.00     0.184 HD
ENDROOT
BRANCH   7  12
HETATM   12  S   UNL     1     -39.756  54.341 -50.096  1.00  0.00    -0.083 SA
BRANCH  12  13
HETATM   13  C   UNL     1     -40.548  52.730 -50.355  1.00  0.00     0.123 C 
BRANCH  13  14
HETATM   14  C   UNL     1     -40.279  52.197 -51.743  1.00  0.00    -0.027 A 
HETATM   15  C   UNL     1     -39.791  50.902 -51.985  1.00  0.00     0.041 A 
HETATM   16 CL   UNL     1     -39.430  49.804 -50.701  1.00  0.00    -0.084 Cl
HETATM   17  C   UNL     1     -39.579  50.457 -53.294  1.00  0.00     0.024 A 
HETATM   18  C   UNL     1     -39.851  51.293 -54.377  1.00  0.00     0.002 A 
HETATM   19  C   UNL     1     -40.339  52.576 -54.154  1.00  0.00     0.001 A 
HETATM   20  C   UNL     1     -40.556  53.023 -52.849  1.00  0.00     0.009 A 
ENDBRANCH  13  14
ENDBRANCH  12  13
ENDBRANCH   7  12
BRANCH   2  21
HETATM   21  C   UNL     1     -42.735  56.759 -54.147  1.00  0.00    -0.006 A 
HETATM   22  C   UNL     1     -42.371  57.245 -55.415  1.00  0.00     0.042 A 
HETATM   23 CL   UNL     1     -41.758  58.843 -55.656  1.00  0.00    -0.084 Cl
HETATM   24  C   UNL     1     -42.499  56.440 -56.553  1.00  0.00     0.024 A 
HETATM   25  C   UNL     1     -42.984  55.137 -56.446  1.00  0.00     0.002 A 
HETATM   26  C   UNL     1     -43.340  54.634 -55.201  1.00  0.00     0.001 A 
HETATM   27  C   UNL     1     -43.216  55.433 -54.062  1.00  0.00     0.011 A 
ENDBRANCH   2  21
BRANCH   1  28
HETATM   28  C   UNL     1     -44.267  59.524 -53.268  1.00  0.00     0.293 C 
HETATM   29  O   UNL     1     -43.648  60.576 -53.279  1.00  0.00    -0.259 OA
BRANCH  28  30
HETATM   30  O   UNL     1     -45.372  59.264 -54.004  1.00  0.00    -0.318 OA
BRANCH  30  31
HETATM   31  C   UNL     1     -45.277  59.524 -55.413  1.00  0.00     0.174 C 
HETATM   32  C   UNL     1     -45.644  58.279 -56.198  1.00  0.00     0.034 C 
ENDBRANCH  30  31
ENDBRANCH  28  30
ENDBRANCH   1  28
TORSDOF 7
ENDMDL
MODEL 4
REMARK VINA RESULT:      -7.7      3.493      7.520
REMARK  7 active torsions:
REMARK  status: ('A' for Active; 'I' for Inactive)
REMARK    1  A    between atoms: C_2  and  O_3 
REMARK    2  A    between atoms: O_3  and  C_4 
REMARK    3  A    between atoms: C_4  and  C_5 
REMARK    4  A    between atoms: C_6  and  C_7 
REMARK    5  A    between atoms: C_18  and  S_19 
REMARK    6  A    between atoms: S_19  and  C_20 
REMARK    7  A    between atoms: C_20  and  C_21 
ROOT
HETATM    1  C   UNL     1     -42.470  59.668 -56.628  1.00  0.00     0.070 C 
HETATM    2  C   UNL     1     -42.401  58.236 -57.167  1.00  0.00     0.204 C 
HETATM    3  N   UNL     1     -42.415  57.259 -56.070  1.00  0.00    -0.082 N 
HETATM    4  C   UNL     1     -42.749  57.564 -54.782  1.00  0.00     0.726 A 
HETATM    5  N   UNL     1     -43.002  58.844 -54.455  1.00  0.00    -0.192 N 
HETATM    6  N   UNL     1     -42.129  55.950 -56.210  1.00  0.00    -0.128 NA
HETATM    7  C   UNL     1     -42.367  55.508 -54.968  1.00  0.00     0.226 A 
HETATM    8  N   UNL     1     -42.748  56.471 -54.064  1.00  0.00    -0.035 NA
HETATM    9  C   UNL     1     -42.784  59.909 -55.327  1.00  0.00     0.037 C 
HETATM   10  C   UNL     1     -42.930  61.283 -54.720  1.00  0.00     0.070 C 
HETATM   11  H   UNL     1     -43.159  59.066 -53.475  1.00  0.00     0.184 HD
ENDROOT
BRANCH   7  12
HETATM   12  S   UNL     1     -42.262  53.827 -54.527  1.00  0.00    -0.083 SA
BRANCH  12  13
HETATM   13  C   UNL     1     -40.546  53.733 -53.946  1.00  0.00     0.123 C 
BRANCH  13  14
HETATM   14  C   UNL     1     -40.197  52.341 -53.471  1.00  0.00    -0.027 A 
HETATM   15  C   UNL     1     -39.817  52.055 -52.149  1.00  0.00     0.041 A 
HETATM   16 CL   UNL     1     -39.692  53.289 -50.945  1.00  0.00    -0.084 Cl
HETATM   17  C   UNL     1     -39.524  50.744 -51.763  1.00  0.00     0.024 A 
HETATM   18  C   UNL     1     -39.606  49.701 -52.686  1.00  0.00     0.002 A 
HETATM   19  C   UNL     1     -39.986  49.967 -53.997  1.00  0.00     0.001 A 
HETATM   20  C   UNL     1     -40.283  51.274 -54.386  1.00  0.00     0.009 A 
ENDBRANCH  13  14
ENDBRANCH  12  13
ENDBRANCH   7  12
BRANCH   2  21
HETATM   21  C   UNL     1     -43.537  57.890 -58.133  1.00  0.00    -0.006 A 
HETATM   22  C   UNL     1     -43.297  57.428 -59.440  1.00  0.00     0.042 A 
HETATM   23 CL   UNL     1     -41.702  57.238 -60.078  1.00  0.00    -0.084 Cl
HETATM   24  C   UNL     1     -44.361  57.107 -60.290  1.00  0.00     0.024 A 
HETATM   25  C   UNL     1     -45.678  57.231 -59.853  1.00  0.00     0.002 A 
HETATM   26  C   UNL     1     -45.938  57.675 -58.562  1.00  0.00     0.001 A 
HETATM   27  C   UNL     1     -44.881  58.000 -57.709  1.00  0.00     0.011 A 
ENDBRANCH   2  21
BRANCH   1  28
HETATM   28  C   UNL     1     -42.064  60.763 -57.549  1.00  0.00     0.293 C 
HETATM   29  O   UNL     1     -40.911  61.107 -57.752  1.00  0.00    -0.259 OA
BRANCH  28  30
HETATM   30  O   UNL     1     -43.152  61.289 -58.158  1.00  0.00    -0.318 OA
BRANCH  30  31
HETATM   31  C   UNL     1     -43.119  61.339 -59.593  1.00  0.00     0.174 C 
HETATM   32  C   UNL     1     -44.458  60.908 -60.160  1.00  0.00     0.034 C 
ENDBRANCH  30  31
ENDBRANCH  28  30
ENDBRANCH   1  28
TORSDOF 7
ENDMDL
MODEL 5
REMARK VINA RESULT:      -7.6      3.756      7.916
REMARK  7 active torsions:
REMARK  status: ('A' for Active; 'I' for Inactive)
REMARK    1  A    between atoms: C_2  and  O_3 
REMARK    2  A    between atoms: O_3  and  C_4 
REMARK    3  A    between atoms: C_4  and  C_5 
REMARK    4  A    between atoms: C_6  and  C_7 
REMARK    5  A    between atoms: C_18  and  S_19 
REMARK    6  A    between atoms: S_19  and  C_20 
REMARK    7  A    between atoms: C_20  and  C_21 
ROOT
HETATM    1  C   UNL     1     -42.375  58.702 -58.704  1.00  0.00     0.070 C 
HETATM    2  C   UNL     1     -42.999  57.332 -58.424  1.00  0.00     0.204 C 
HETATM    3  N   UNL     1     -42.852  56.964 -57.010  1.00  0.00    -0.082 N 
HETATM    4  C   UNL     1     -42.490  57.841 -56.028  1.00  0.00     0.726 A 
HETATM    5  N   UNL     1     -42.159  59.101 -56.363  1.00  0.00    -0.192 N 
HETATM    6  N   UNL     1     -43.084  55.734 -56.512  1.00  0.00    -0.128 NA
HETATM    7  C   UNL     1     -42.895  55.954 -55.205  1.00  0.00     0.226 A 
HETATM    8  N   UNL     1     -42.528  57.235 -54.870  1.00  0.00    -0.035 NA
HETATM    9  C   UNL     1     -42.010  59.523 -57.683  1.00  0.00     0.037 C 
HETATM   10  C   UNL     1     -41.439  60.909 -57.859  1.00  0.00     0.070 C 
HETATM   11  H   UNL     1     -41.804  59.714 -55.633  1.00  0.00     0.184 HD
ENDROOT
BRANCH   7  12
HETATM   12  S   UNL     1     -43.149  54.728 -53.994  1.00  0.00    -0.083 SA
BRANCH  12  13
HETATM   13  C   UNL     1     -41.580  54.811 -53.088  1.00  0.00     0.123 C 
BRANCH  13  14
HETATM   14  C   UNL     1     -40.867  53.479 -53.091  1.00  0.00    -0.027 A 
HETATM   15  C   UNL     1     -40.151  52.991 -51.985  1.00  0.00     0.041 A 
HETATM   16 CL   UNL     1     -40.006  53.892 -50.518  1.00  0.00    -0.084 Cl
HETATM   17  C   UNL     1     -39.526  51.741 -52.040  1.00  0.00     0.024 A 
HETATM   18  C   UNL     1     -39.606  50.963 -53.195  1.00  0.00     0.002 A 
HETATM   19  C   UNL     1     -40.314  51.430 -54.296  1.00  0.00     0.001 A 
HETATM   20  C   UNL     1     -40.943  52.676 -54.245  1.00  0.00     0.009 A 
ENDBRANCH  13  14
ENDBRANCH  12  13
ENDBRANCH   7  12
BRANCH   2  21
HETATM   21  C   UNL     1     -44.484  57.249 -58.789  1.00  0.00    -0.006 A 
HETATM   22  C   UNL     1     -45.001  56.223 -59.601  1.00  0.00     0.042 A 
HETATM   23 CL   UNL     1     -44.005  54.983 -60.277  1.00  0.00    -0.084 Cl
HETATM   24  C   UNL     1     -46.367  56.171 -59.902  1.00  0.00     0.024 A 
HETATM   25  C   UNL     1     -47.240  57.132 -59.395  1.00  0.00     0.002 A 
HETATM   26  C   UNL     1     -46.751  58.148 -58.583  1.00  0.00     0.001 A 
HETATM   27  C   UNL     1     -45.389  58.208 -58.281  1.00  0.00     0.011 A 
ENDBRANCH   2  21
BRANCH   1  28
HETATM   28  C   UNL     1     -42.078  59.039 -60.121  1.00  0.00     0.293 C 
HETATM   29  O   UNL     1     -41.368  58.374 -60.859  1.00  0.00    -0.259 OA
BRANCH  28  30
HETATM   30  O   UNL     1     -42.743  60.160 -60.485  1.00  0.00    -0.318 OA
BRANCH  30  31
HETATM   31  C   UNL     1     -42.339  60.769 -61.722  1.00  0.00     0.174 C 
HETATM   32  C   UNL     1     -41.308  61.850 -61.457  1.00  0.00     0.034 C 
ENDBRANCH  30  31
ENDBRANCH  28  30
ENDBRANCH   1  28
TORSDOF 7
ENDMDL
MODEL 6
REMARK VINA RESULT:      -7.5      3.641      7.781
REMARK  7 active torsions:
REMARK  status: ('A' for Active; 'I' for Inactive)
REMARK    1  A    between atoms: C_2  and  O_3 
REMARK    2  A    between atoms: O_3  and  C_4 
REMARK    3  A    between atoms: C_4  and  C_5 
REMARK    4  A    between atoms: C_6  and  C_7 
REMARK    5  A    between atoms: C_18  and  S_19 
REMARK    6  A    between atoms: S_19  and  C_20 
REMARK    7  A    between atoms: C_20  and  C_21 
ROOT
HETATM    1  C   UNL     1     -44.721  59.656 -57.669  1.00  0.00     0.070 C 
HETATM    2  C   UNL     1     -44.091  58.270 -57.831  1.00  0.00     0.204 C 
HETATM    3  N   UNL     1     -44.080  57.544 -56.554  1.00  0.00    -0.082 N 
HETATM    4  C   UNL     1     -44.799  57.922 -55.456  1.00  0.00     0.726 A 
HETATM    5  N   UNL     1     -45.499  59.070 -55.493  1.00  0.00    -0.192 N 
HETATM    6  N   UNL     1     -43.387  56.412 -56.325  1.00  0.00    -0.128 NA
HETATM    7  C   UNL     1     -43.780  56.126 -55.077  1.00  0.00     0.226 A 
HETATM    8  N   UNL     1     -44.645  57.032 -54.510  1.00  0.00    -0.035 NA
HETATM    9  C   UNL     1     -45.404  59.984 -56.540  1.00  0.00     0.037 C 
HETATM   10  C   UNL     1     -46.103  61.303 -56.314  1.00  0.00     0.070 C 
HETATM   11  H   UNL     1     -45.953  59.382 -54.638  1.00  0.00     0.184 HD
ENDROOT
BRANCH   7  12
HETATM   12  S   UNL     1     -43.284  54.684 -54.236  1.00  0.00    -0.083 SA
BRANCH  12  13
HETATM   13  C   UNL     1     -41.495  54.958 -54.112  1.00  0.00     0.123 C 
BRANCH  13  14
HETATM   14  C   UNL     1     -40.792  53.763 -53.509  1.00  0.00    -0.027 A 
HETATM   15  C   UNL     1     -40.503  53.656 -52.139  1.00  0.00     0.041 A 
HETATM   16 CL   UNL     1     -40.910  54.905 -51.016  1.00  0.00    -0.084 Cl
HETATM   17  C   UNL     1     -39.866  52.518 -51.635  1.00  0.00     0.024 A 
HETATM   18  C   UNL     1     -39.511  51.472 -52.488  1.00  0.00     0.002 A 
HETATM   19  C   UNL     1     -39.795  51.561 -53.846  1.00  0.00     0.001 A 
HETATM   20  C   UNL     1     -40.434  52.695 -54.353  1.00  0.00     0.009 A 
ENDBRANCH  13  14
ENDBRANCH  12  13
ENDBRANCH   7  12
BRANCH   2  21
HETATM   21  C   UNL     1     -44.794  57.396 -58.873  1.00  0.00    -0.006 A 
HETATM   22  C   UNL     1     -44.083  56.566 -59.759  1.00  0.00     0.042 A 
HETATM   23 CL   UNL     1     -42.357  56.479 -59.766  1.00  0.00    -0.084 Cl
HETATM   24  C   UNL     1     -44.760  55.769 -60.689  1.00  0.00     0.024 A 
HETATM   25  C   UNL     1     -46.152  55.778 -60.748  1.00  0.00     0.002 A 
HETATM   26  C   UNL     1     -46.874  56.584 -59.875  1.00  0.00     0.001 A 
HETATM   27  C   UNL     1     -46.205  57.383 -58.946  1.00  0.00     0.011 A 
ENDBRANCH   2  21
BRANCH   1  28
HETATM   28  C   UNL     1     -44.450  60.656 -58.736  1.00  0.00     0.293 C 
HETATM   29  O   UNL     1     -45.263  61.017 -59.572  1.00  0.00    -0.259 OA
BRANCH  28  30
HETATM   30  O   UNL     1     -43.190  61.137 -58.618  1.00  0.00    -0.318 OA
BRANCH  30  31
HETATM   31  C   UNL     1     -42.469  61.345 -59.843  1.00  0.00     0.174 C 
HETATM   32  C   UNL     1     -42.051  60.011 -60.434  1.00  0.00     0.034 C 
ENDBRANCH  30  31
ENDBRANCH  28  30
ENDBRANCH   1  28
TORSDOF 7
ENDMDL
MODEL 7
REMARK VINA RESULT:      -7.4      3.784      8.133
REMARK  7 active torsions:
REMARK  status: ('A' for Active; 'I' for Inactive)
REMARK    1  A    between atoms: C_2  and  O_3 
REMARK    2  A    between atoms: O_3  and  C_4 
REMARK    3  A    between atoms: C_4  and  C_5 
REMARK    4  A    between atoms: C_6  and  C_7 
REMARK    5  A    between atoms: C_18  and  S_19 
REMARK    6  A    between atoms: S_19  and  C_20 
REMARK    7  A    between atoms: C_20  and  C_21 
ROOT
HETATM    1  C   UNL     1     -44.750  57.249 -58.584  1.00  0.00     0.070 C 
HETATM    2  C   UNL     1     -44.247  57.928 -57.307  1.00  0.00     0.204 C 
HETATM    3  N   UNL     1     -43.380  57.027 -56.536  1.00  0.00    -0.082 N 
HETATM    4  C   UNL     1     -42.852  55.869 -57.031  1.00  0.00     0.726 A 
HETATM    5  N   UNL     1     -43.200  55.465 -58.265  1.00  0.00    -0.192 N 
HETATM    6  N   UNL     1     -42.983  57.249 -55.268  1.00  0.00    -0.128 NA
HETATM    7  C   UNL     1     -42.165  56.206 -55.076  1.00  0.00     0.226 A 
HETATM    8  N   UNL     1     -42.061  55.337 -56.136  1.00  0.00    -0.035 NA
HETATM    9  C   UNL     1     -44.201  56.081 -59.014  1.00  0.00     0.037 C 
HETATM   10  C   UNL     1     -44.592  55.367 -60.285  1.00  0.00     0.070 C 
HETATM   11  H   UNL     1     -42.871  54.556 -58.583  1.00  0.00     0.184 HD
ENDROOT
BRANCH   7  12
HETATM   12  S   UNL     1     -41.246  55.982 -53.614  1.00  0.00    -0.083 SA
BRANCH  12  13
HETATM   13  C   UNL     1     -42.034  54.495 -52.938  1.00  0.00     0.123 C 
BRANCH  13  14
HETATM   14  C   UNL     1     -41.105  53.304 -52.986  1.00  0.00    -0.027 A 
HETATM   15  C   UNL     1     -40.294  52.922 -51.905  1.00  0.00     0.041 A 
HETATM   16 CL   UNL     1     -40.272  53.805 -50.419  1.00  0.00    -0.084 Cl
HETATM   17  C   UNL     1     -39.466  51.799 -52.001  1.00  0.00     0.024 A 
HETATM   18  C   UNL     1     -39.437  51.042 -53.172  1.00  0.00     0.002 A 
HETATM   19  C   UNL     1     -40.238  51.404 -54.249  1.00  0.00     0.001 A 
HETATM   20  C   UNL     1     -41.069  52.523 -54.157  1.00  0.00     0.009 A 
ENDBRANCH  13  14
ENDBRANCH  12  13
ENDBRANCH   7  12
BRANCH   2  21
HETATM   21  C   UNL     1     -43.478  59.227 -57.567  1.00  0.00    -0.006 A 
HETATM   22  C   UNL     1     -43.995  60.488 -57.216  1.00  0.00     0.042 A 
HETATM   23 CL   UNL     1     -45.549  60.684 -56.487  1.00  0.00    -0.084 Cl
HETATM   24  C   UNL     1     -43.258  61.653 -57.455  1.00  0.00     0.024 A 
HETATM   25  C   UNL     1     -41.993  61.583 -58.038  1.00  0.00     0.002 A 
HETATM   26  C   UNL     1     -41.460  60.347 -58.382  1.00  0.00     0.001 A 
HETATM   27  C   UNL     1     -42.192  59.180 -58.149  1.00  0.00     0.011 A 
ENDBRANCH   2  21
BRANCH   1  28
HETATM   28  C   UNL     1     -45.931  57.851 -59.256  1.00  0.00     0.293 C 
HETATM   29  O   UNL     1     -47.059  57.870 -58.792  1.00  0.00    -0.259 OA
BRANCH  28  30
HETATM   30  O   UNL     1     -45.565  58.411 -60.433  1.00  0.00    -0.318 OA
BRANCH  30  31
HETATM   31  C   UNL     1     -45.604  59.845 -60.498  1.00  0.00     0.174 C 
HETATM   32  C   UNL     1     -44.290  60.377 -61.037  1.00  0.00     0.034 C 
ENDBRANCH  30  31
ENDBRANCH  28  30
ENDBRANCH   1  28
TORSDOF 7
ENDMDL
MODEL 8
REMARK VINA RESULT:      -7.4      3.739      7.698
REMARK  7 active torsions:
REMARK  status: ('A' for Active; 'I' for Inactive)
REMARK    1  A    between atoms: C_2  and  O_3 
REMARK    2  A    between atoms: O_3  and  C_4 
REMARK    3  A    between atoms: C_4  and  C_5 
REMARK    4  A    between atoms: C_6  and  C_7 
REMARK    5  A    between atoms: C_18  and  S_19 
REMARK    6  A    between atoms: S_19  and  C_20 
REMARK    7  A    between atoms: C_20  and  C_21 
ROOT
HETATM    1  C   UNL     1     -43.852  57.354 -57.295  1.00  0.00     0.070 C 
HETATM    2  C   UNL     1     -43.999  57.328 -55.771  1.00  0.00     0.204 C 
HETATM    3  N   UNL     1     -43.336  56.150 -55.198  1.00  0.00    -0.082 N 
HETATM    4  C   UNL     1     -42.459  55.360 -55.883  1.00  0.00     0.726 A 
HETATM    5  N   UNL     1     -42.237  55.604 -57.187  1.00  0.00    -0.192 N 
HETATM    6  N   UNL     1     -43.492  55.728 -53.927  1.00  0.00    -0.128 NA
HETATM    7  C   UNL     1     -42.630  54.704 -53.897  1.00  0.00     0.226 A 
HETATM    8  N   UNL     1     -41.978  54.447 -55.080  1.00  0.00    -0.035 NA
HETATM    9  C   UNL     1     -42.979  56.524 -57.925  1.00  0.00     0.037 C 
HETATM   10  C   UNL     1     -42.725  56.516 -59.413  1.00  0.00     0.070 C 
HETATM   11  H   UNL     1     -41.652  54.951 -57.705  1.00  0.00     0.184 HD
ENDROOT
BRANCH   7  12
HETATM   12  S   UNL     1     -42.302  53.787 -52.453  1.00  0.00    -0.083 SA
BRANCH  12  13
HETATM   13  C   UNL     1     -40.505  53.581 -52.578  1.00  0.00     0.123 C 
BRANCH  13  14
HETATM   14  C   UNL     1     -40.119  52.123 -52.679  1.00  0.00    -0.027 A 
HETATM   15  C   UNL     1     -39.995  51.285 -51.559  1.00  0.00     0.041 A 
HETATM   16 CL   UNL     1     -40.254  51.861 -49.950  1.00  0.00    -0.084 Cl
HETATM   17  C   UNL     1     -39.653  49.938 -51.715  1.00  0.00     0.024 A 
HETATM   18  C   UNL     1     -39.432  49.409 -52.987  1.00  0.00     0.002 A 
HETATM   19  C   UNL     1     -39.556  50.225 -54.106  1.00  0.00     0.001 A 
HETATM   20  C   UNL     1     -39.900  51.570 -53.955  1.00  0.00     0.009 A 
ENDBRANCH  13  14
ENDBRANCH  12  13
ENDBRANCH   7  12
BRANCH   2  21
HETATM   21  C   UNL     1     -43.441  58.576 -55.081  1.00  0.00    -0.006 A 
HETATM   22  C   UNL     1     -44.237  59.705 -54.813  1.00  0.00     0.042 A 
HETATM   23 CL   UNL     1     -45.903  59.794 -55.263  1.00  0.00    -0.084 Cl
HETATM   24  C   UNL     1     -43.697  60.822 -54.167  1.00  0.00     0.024 A 
HETATM   25  C   UNL     1     -42.361  60.831 -53.768  1.00  0.00     0.002 A 
HETATM   26  C   UNL     1     -41.560  59.723 -54.014  1.00  0.00     0.001 A 
HETATM   27  C   UNL     1     -42.092  58.606 -54.661  1.00  0.00     0.011 A 
ENDBRANCH   2  21
BRANCH   1  28
HETATM   28  C   UNL     1     -44.783  58.230 -58.054  1.00  0.00     0.293 C 
HETATM   29  O   UNL     1     -44.458  59.256 -58.631  1.00  0.00    -0.259 OA
BRANCH  28  30
HETATM   30  O   UNL     1     -46.030  57.703 -58.050  1.00  0.00    -0.318 OA
BRANCH  30  31
HETATM   31  C   UNL     1     -46.694  57.622 -59.321  1.00  0.00     0.174 C 
HETATM   32  C   UNL     1     -46.428  56.273 -59.962  1.00  0.00     0.034 C 
ENDBRANCH  30  31
ENDBRANCH  28  30
ENDBRANCH   1  28
TORSDOF 7
ENDMDL
MODEL 9
REMARK VINA RESULT:      -7.3      1.657      2.317
REMARK  7 active torsions:
REMARK  status: ('A' for Active; 'I' for Inactive)
REMARK    1  A    between atoms: C_2  and  O_3 
REMARK    2  A    between atoms: O_3  and  C_4 
REMARK    3  A    between atoms: C_4  and  C_5 
REMARK    4  A    between atoms: C_6  and  C_7 
REMARK    5  A    between atoms: C_18  and  S_19 
REMARK    6  A    between atoms: S_19  and  C_20 
REMARK    7  A    between atoms: C_20  and  C_21 
ROOT
HETATM    1  C   UNL     1     -41.830  57.466 -52.183  1.00  0.00     0.070 C 
HETATM    2  C   UNL     1     -42.393  56.813 -53.449  1.00  0.00     0.204 C 
HETATM    3  N   UNL     1     -42.332  57.736 -54.590  1.00  0.00    -0.082 N 
HETATM    4  C   UNL     1     -41.603  58.891 -54.598  1.00  0.00     0.726 A 
HETATM    5  N   UNL     1     -40.964  59.271 -53.477  1.00  0.00    -0.192 N 
HETATM    6  N   UNL     1     -42.960  57.540 -55.765  1.00  0.00    -0.128 NA
HETATM    7  C   UNL     1     -42.519  58.595 -56.463  1.00  0.00     0.226 A 
HETATM    8  N   UNL     1     -41.685  59.447 -55.779  1.00  0.00    -0.035 NA
HETATM    9  C   UNL     1     -41.134  58.632 -52.251  1.00  0.00     0.037 C 
HETATM   10  C   UNL     1     -40.496  59.320 -51.069  1.00  0.00     0.070 C 
HETATM   11  H   UNL     1     -40.502  60.178 -53.473  1.00  0.00     0.184 HD
ENDROOT
BRANCH   7  12
HETATM   12  S   UNL     1     -42.918  58.853 -58.139  1.00  0.00    -0.083 SA
BRANCH  12  13
HETATM   13  C   UNL     1     -44.649  58.313 -58.166  1.00  0.00     0.123 C 
BRANCH  13  14
HETATM   14  C   UNL     1     -44.838  57.103 -59.051  1.00  0.00    -0.027 A 
HETATM   15  C   UNL     1     -45.927  56.957 -59.927  1.00  0.00     0.041 A 
HETATM   16 CL   UNL     1     -47.168  58.152 -60.052  1.00  0.00    -0.084 Cl
HETATM   17  C   UNL     1     -46.039  55.822 -60.737  1.00  0.00     0.024 A 
HETATM   18  C   UNL     1     -45.070  54.820 -60.686  1.00  0.00     0.002 A 
HETATM   19  C   UNL     1     -43.984  54.952 -59.827  1.00  0.00     0.001 A 
HETATM   20  C   UNL     1     -43.866  56.085 -59.020  1.00  0.00     0.009 A 
ENDBRANCH  13  14
ENDBRANCH  12  13
ENDBRANCH   7  12
BRANCH   2  21
HETATM   21  C   UNL     1     -41.675  55.519 -53.841  1.00  0.00    -0.006 A 
HETATM   22  C   UNL     1     -42.119  54.255 -53.410  1.00  0.00     0.042 A 
HETATM   23 CL   UNL     1     -43.492  54.055 -52.380  1.00  0.00    -0.084 Cl
HETATM   24  C   UNL     1     -41.447  53.091 -53.800  1.00  0.00     0.024 A 
HETATM   25  C   UNL     1     -40.330  53.164 -54.631  1.00  0.00     0.002 A 
HETATM   26  C   UNL     1     -39.882  54.402 -55.077  1.00  0.00     0.001 A 
HETATM   27  C   UNL     1     -40.546  55.567 -54.689  1.00  0.00     0.011 A 
ENDBRANCH   2  21
BRANCH   1  28
HETATM   28  C   UNL     1     -42.180  56.840 -50.881  1.00  0.00     0.293 C 
HETATM   29  O   UNL     1     -41.369  56.414 -50.075  1.00  0.00    -0.259 OA
BRANCH  28  30
HETATM   30  O   UNL     1     -43.522  56.853 -50.701  1.00  0.00    -0.318 OA
BRANCH  30  31
HETATM   31  C   UNL     1     -44.156  58.142 -50.711  1.00  0.00     0.174 C 
HETATM   32  C   UNL     1     -45.393  58.107 -51.588  1.00  0.00     0.034 C 
ENDBRANCH  30  31
ENDBRANCH  28  30
ENDBRANCH   1  28
TORSDOF 7
ENDMDL
MODEL 10
REMARK VINA RESULT:      -7.2      3.779      6.713
REMARK  7 active torsions:
REMARK  status: ('A' for Active; 'I' for Inactive)
REMARK    1  A    between atoms: C_2  and  O_3 
REMARK    2  A    between atoms: O_3  and  C_4 
REMARK    3  A    between atoms: C_4  and  C_5 
REMARK    4  A    between atoms: C_6  and  C_7 
REMARK    5  A    between atoms: C_18  and  S_19 
REMARK    6  A    between atoms: S_19  and  C_20 
REMARK    7  A    between atoms: C_20  and  C_21 
ROOT
HETATM    1  C   UNL     1     -43.173  60.063 -54.450  1.00  0.00     0.070 C 
HETATM    2  C   UNL     1     -43.010  58.888 -53.481  1.00  0.00     0.204 C 
HETATM    3  N   UNL     1     -42.740  57.640 -54.207  1.00  0.00    -0.082 N 
HETATM    4  C   UNL     1     -42.383  57.585 -55.523  1.00  0.00     0.726 A 
HETATM    5  N   UNL     1     -42.353  58.721 -56.242  1.00  0.00    -0.192 N 
HETATM    6  N   UNL     1     -42.785  56.411 -53.656  1.00  0.00    -0.128 NA
HETATM    7  C   UNL     1     -42.386  55.659 -54.689  1.00  0.00     0.226 A 
HETATM    8  N   UNL     1     -42.132  56.345 -55.853  1.00  0.00    -0.035 NA
HETATM    9  C   UNL     1     -42.823  59.940 -55.759  1.00  0.00     0.037 C 
HETATM   10  C   UNL     1     -42.897  61.055 -56.774  1.00  0.00     0.070 C 
HETATM   11  H   UNL     1     -42.174  58.652 -57.242  1.00  0.00     0.184 HD
ENDROOT
BRANCH   7  12
HETATM   12  S   UNL     1     -42.146  53.939 -54.569  1.00  0.00    -0.083 SA
BRANCH  12  13
HETATM   13  C   UNL     1     -40.663  53.872 -53.527  1.00  0.00     0.123 C 
BRANCH  13  14
HETATM   14  C   UNL     1     -40.232  52.447 -53.265  1.00  0.00    -0.027 A 
HETATM   15  C   UNL     1     -39.856  51.982 -51.994  1.00  0.00     0.041 A 
HETATM   16 CL   UNL     1     -39.832  53.016 -50.610  1.00  0.00    -0.084 Cl
HETATM   17  C   UNL     1     -39.485  50.646 -51.809  1.00  0.00     0.024 A 
HETATM   18  C   UNL     1     -39.485  49.758 -52.884  1.00  0.00     0.002 A 
HETATM   19  C   UNL     1     -39.859  50.202 -54.148  1.00  0.00     0.001 A 
HETATM   20  C   UNL     1     -40.234  51.534 -54.337  1.00  0.00     0.009 A 
ENDBRANCH  13  14
ENDBRANCH  12  13
ENDBRANCH   7  12
BRANCH   2  21
HETATM   21  C   UNL     1     -41.896  59.095 -52.452  1.00  0.00    -0.006 A 
HETATM   22  C   UNL     1     -42.155  59.553 -51.147  1.00  0.00     0.042 A 
HETATM   23 CL   UNL     1     -43.747  59.947 -50.601  1.00  0.00    -0.084 Cl
HETATM   24  C   UNL     1     -41.114  59.716 -50.227  1.00  0.00     0.024 A 
HETATM   25  C   UNL     1     -39.800  59.418 -50.586  1.00  0.00     0.002 A 
HETATM   26  C   UNL     1     -39.523  58.954 -51.866  1.00  0.00     0.001 A 
HETATM   27  C   UNL     1     -40.558  58.792 -52.790  1.00  0.00     0.011 A 
ENDBRANCH   2  21
BRANCH   1  28
HETATM   28  C   UNL     1     -43.837  61.287 -53.931  1.00  0.00     0.293 C 
HETATM   29  O   UNL     1     -43.252  62.301 -53.584  1.00  0.00    -0.259 OA
BRANCH  28  30
HETATM   30  O   UNL     1     -45.182  61.130 -53.939  1.00  0.00    -0.318 OA
BRANCH  30  31
HETATM   31  C   UNL     1     -45.940  62.075 -53.169  1.00  0.00     0.174 C 
HETATM   32  C   UNL     1     -46.815  61.347 -52.166  1.00  0.00     0.034 C 
ENDBRANCH  30  31
ENDBRANCH  28  30
ENDBRANCH   1  28
TORSDOF 7
ENDMDL
