MODEL 1
REMARK VINA RESULT:      -8.5      0.000      0.000
REMARK  7 active torsions:
REMARK  status: ('A' for Active; 'I' for Inactive)
REMARK    1  A    between atoms: C_6  and  C_7 
REMARK       I    between atoms: C_7  and  N_8 
REMARK    2  A    between atoms: N_8  and  C_9 
REMARK    3  A    between atoms: C_9  and  C_10 
REMARK       I    between atoms: C_10  and  N_11 
REMARK    4  A    between atoms: N_11  and  N_12 
REMARK       I    between atoms: N_12  and  C_13 
REMARK    5  A    between atoms: C_13  and  C_14 
REMARK    6  A    between atoms: C_14  and  N_15 
REMARK    7  A    between atoms: N_15  and  C_16 
ROOT
HETATM    1  C   UNL     1     -42.364  57.579 -50.939  1.00  0.00     0.253 C 
HETATM    2  N   UNL     1     -41.600  58.672 -51.287  1.00  0.00    -0.266 N 
HETATM    3  O   UNL     1     -43.583  57.536 -51.118  1.00  0.00    -0.270 OA
HETATM    4  H   UNL     1     -40.594  58.728 -51.135  1.00  0.00     0.190 HD
ENDROOT
BRANCH   2   5
HETATM    5  N   UNL     1     -42.203  59.693 -52.030  1.00  0.00    -0.266 N 
HETATM    6  C   UNL     1     -41.704  59.946 -53.295  1.00  0.00     0.258 C 
HETATM    7  O   UNL     1     -40.637  59.477 -53.700  1.00  0.00    -0.269 OA
HETATM    8  H   UNL     1     -43.173  59.891 -51.788  1.00  0.00     0.190 HD
BRANCH   6   9
HETATM    9  C   UNL     1     -42.588  60.874 -54.150  1.00  0.00     0.173 C 
HETATM   10  C   UNL     1     -43.137  62.007 -53.289  1.00  0.00     0.042 C 
BRANCH   9  11
HETATM   11  N   UNL     1     -43.707  60.109 -54.701  1.00  0.00    -0.356 N 
HETATM   12  H   UNL     1     -44.624  60.444 -54.407  1.00  0.00     0.162 HD
BRANCH  11  13
HETATM   13  C   UNL     1     -43.560  58.793 -54.955  1.00  0.00     0.168 A 
HETATM   14  S   UNL     1     -42.866  58.276 -56.440  1.00  0.00    -0.050 SA
HETATM   15  C   UNL     1     -43.046  56.634 -55.964  1.00  0.00     0.037 A 
HETATM   16  C   UNL     1     -43.634  56.596 -54.699  1.00  0.00     0.076 A 
HETATM   17  C   UNL     1     -42.697  55.463 -56.656  1.00  0.00     0.021 A 
HETATM   18  N   UNL     1     -43.910  57.830 -54.137  1.00  0.00    -0.223 NA
HETATM   19  C   UNL     1     -43.893  55.342 -54.110  1.00  0.00     0.033 A 
HETATM   20  C   UNL     1     -43.557  54.168 -54.793  1.00  0.00     0.002 A 
HETATM   21  C   UNL     1     -42.962  54.232 -56.049  1.00  0.00     0.002 A 
ENDBRANCH  11  13
ENDBRANCH   9  11
ENDBRANCH   6   9
ENDBRANCH   2   5
BRANCH   1  22
HETATM   22  C   UNL     1     -41.595  56.464 -50.240  1.00  0.00     0.227 C 
BRANCH  22  23
HETATM   23  N   UNL     1     -41.310  55.405 -51.189  1.00  0.00    -0.348 N 
HETATM   24  C   UNL     1     -40.386  54.433 -50.870  1.00  0.00     0.252 C 
HETATM   25  O   UNL     1     -39.732  54.455 -49.834  1.00  0.00    -0.268 OA
HETATM   26  H   UNL     1     -42.037  55.181 -51.857  1.00  0.00     0.163 HD
BRANCH  24  27
HETATM   27  C   UNL     1     -40.252  53.306 -51.833  1.00  0.00     0.032 A 
HETATM   28  C   UNL     1     -39.935  52.035 -51.337  1.00  0.00     0.024 A 
HETATM   29  C   UNL     1     -39.794  50.936 -52.202  1.00  0.00    -0.055 A 
HETATM   30  C   UNL     1     -39.939  51.130 -53.591  1.00  0.00    -0.056 A 
HETATM   31  C   UNL     1     -39.450  49.591 -51.624  1.00  0.00     0.049 C 
HETATM   32  C   UNL     1     -39.790  49.993 -54.564  1.00  0.00     0.049 C 
HETATM   33  C   UNL     1     -40.253  52.409 -54.079  1.00  0.00     0.008 A 
HETATM   34  C   UNL     1     -40.405  53.491 -53.210  1.00  0.00     0.017 A 
ENDBRANCH  24  27
ENDBRANCH  22  23
ENDBRANCH   1  22
TORSDOF 7
ENDMDL
MODEL 2
REMARK VINA RESULT:      -8.4      1.568      2.188
REMARK  7 active torsions:
REMARK  status: ('A' for Active; 'I' for Inactive)
REMARK    1  A    between atoms: C_6  and  C_7 
REMARK       I    between atoms: C_7  and  N_8 
REMARK    2  A    between atoms: N_8  and  C_9 
REMARK    3  A    between atoms: C_9  and  C_10 
REMARK       I    between atoms: C_10  and  N_11 
REMARK    4  A    between atoms: N_11  and  N_12 
REMARK       I    between atoms: N_12  and  C_13 
REMARK    5  A    between atoms: C_13  and  C_14 
REMARK    6  A    between atoms: C_14  and  N_15 
REMARK    7  A    between atoms: N_15  and  C_16 
ROOT
HETATM    1  C   UNL     1     -42.872  57.615 -51.685  1.00  0.00     0.253 C 
HETATM    2  N   UNL     1     -42.240  58.839 -51.644  1.00  0.00    -0.266 N 
HETATM    3  O   UNL     1     -43.897  57.418 -52.340  1.00  0.00    -0.270 OA
HETATM    4  H   UNL     1     -41.398  59.022 -51.099  1.00  0.00     0.190 HD
ENDROOT
BRANCH   2   5
HETATM    5  N   UNL     1     -42.679  59.841 -52.516  1.00  0.00    -0.266 N 
HETATM    6  C   UNL     1     -41.961  60.039 -53.682  1.00  0.00     0.258 C 
HETATM    7  O   UNL     1     -40.850  59.537 -53.876  1.00  0.00    -0.269 OA
HETATM    8  H   UNL     1     -43.673  60.065 -52.456  1.00  0.00     0.190 HD
BRANCH   6   9
HETATM    9  C   UNL     1     -42.659  60.948 -54.710  1.00  0.00     0.173 C 
HETATM   10  C   UNL     1     -43.225  62.181 -54.014  1.00  0.00     0.042 C 
BRANCH   9  11
HETATM   11  N   UNL     1     -43.754  60.215 -55.345  1.00  0.00    -0.356 N 
HETATM   12  H   UNL     1     -44.553  60.050 -54.733  1.00  0.00     0.162 HD
BRANCH  11  13
HETATM   13  C   UNL     1     -43.486  59.305 -56.303  1.00  0.00     0.168 A 
HETATM   14  S   UNL     1     -43.983  57.672 -56.101  1.00  0.00    -0.050 SA
HETATM   15  C   UNL     1     -43.305  57.267 -57.629  1.00  0.00     0.037 A 
HETATM   16  C   UNL     1     -42.738  58.413 -58.185  1.00  0.00     0.076 A 
HETATM   17  C   UNL     1     -43.274  56.027 -58.287  1.00  0.00     0.021 A 
HETATM   18  N   UNL     1     -42.857  59.563 -57.424  1.00  0.00    -0.223 NA
HETATM   19  C   UNL     1     -42.104  58.314 -59.440  1.00  0.00     0.033 A 
HETATM   20  C   UNL     1     -42.060  57.083 -60.104  1.00  0.00     0.002 A 
HETATM   21  C   UNL     1     -42.642  55.956 -59.533  1.00  0.00     0.002 A 
ENDBRANCH  11  13
ENDBRANCH   9  11
ENDBRANCH   6   9
ENDBRANCH   2   5
BRANCH   1  22
HETATM   22  C   UNL     1     -42.248  56.550 -50.791  1.00  0.00     0.227 C 
BRANCH  22  23
HETATM   23  N   UNL     1     -41.787  55.444 -51.607  1.00  0.00    -0.348 N 
HETATM   24  C   UNL     1     -40.797  54.609 -51.131  1.00  0.00     0.252 C 
HETATM   25  O   UNL     1     -40.230  54.799 -50.061  1.00  0.00    -0.268 OA
HETATM   26  H   UNL     1     -42.434  55.082 -52.297  1.00  0.00     0.163 HD
BRANCH  24  27
HETATM   27  C   UNL     1     -40.477  53.418 -51.965  1.00  0.00     0.032 A 
HETATM   28  C   UNL     1     -40.067  52.243 -51.324  1.00  0.00     0.024 A 
HETATM   29  C   UNL     1     -39.751  51.090 -52.062  1.00  0.00    -0.055 A 
HETATM   30  C   UNL     1     -39.814  51.134 -53.470  1.00  0.00    -0.056 A 
HETATM   31  C   UNL     1     -39.312  49.851 -51.330  1.00  0.00     0.049 C 
HETATM   32  C   UNL     1     -39.478  49.934 -54.311  1.00  0.00     0.049 C 
HETATM   33  C   UNL     1     -40.223  52.319 -54.103  1.00  0.00     0.008 A 
HETATM   34  C   UNL     1     -40.549  53.455 -53.360  1.00  0.00     0.017 A 
ENDBRANCH  24  27
ENDBRANCH  22  23
ENDBRANCH   1  22
TORSDOF 7
ENDMDL
MODEL 3
REMARK VINA RESULT:      -8.3      5.124      9.208
REMARK  7 active torsions:
REMARK  status: ('A' for Active; 'I' for Inactive)
REMARK    1  A    between atoms: C_6  and  C_7 
REMARK       I    between atoms: C_7  and  N_8 
REMARK    2  A    between atoms: N_8  and  C_9 
REMARK    3  A    between atoms: C_9  and  C_10 
REMARK       I    between atoms: C_10  and  N_11 
REMARK    4  A    between atoms: N_11  and  N_12 
REMARK       I    between atoms: N_12  and  C_13 
REMARK    5  A    between atoms: C_13  and  C_14 
REMARK    6  A    between atoms: C_14  and  N_15 
REMARK    7  A    between atoms: N_15  and  C_16 
ROOT
HETATM    1  C   UNL     1     -45.599  59.650 -50.549  1.00  0.00     0.253 C 
HETATM    2  N   UNL     1     -44.333  59.104 -50.562  1.00  0.00    -0.266 N 
HETATM    3  O   UNL     1     -46.611  58.985 -50.781  1.00  0.00    -0.270 OA
HETATM    4  H   UNL     1     -43.485  59.641 -50.384  1.00  0.00     0.190 HD
ENDROOT
BRANCH   2   5
HETATM    5  N   UNL     1     -44.212  57.714 -50.668  1.00  0.00    -0.266 N 
HETATM    6  C   UNL     1     -43.487  57.212 -51.735  1.00  0.00     0.258 C 
HETATM    7  O   UNL     1     -43.143  57.907 -52.695  1.00  0.00    -0.269 OA
HETATM    8  H   UNL     1     -44.293  57.203 -49.790  1.00  0.00     0.190 HD
BRANCH   6   9
HETATM    9  C   UNL     1     -43.160  55.711 -51.628  1.00  0.00     0.173 C 
HETATM   10  C   UNL     1     -43.680  55.159 -50.304  1.00  0.00     0.042 C 
BRANCH   9  11
HETATM   11  N   UNL     1     -41.711  55.523 -51.686  1.00  0.00    -0.356 N 
HETATM   12  H   UNL     1     -41.193  56.360 -51.952  1.00  0.00     0.162 HD
BRANCH  11  13
HETATM   13  C   UNL     1     -41.203  54.323 -52.033  1.00  0.00     0.168 A 
HETATM   14  S   UNL     1     -40.356  53.380 -50.871  1.00  0.00    -0.050 SA
HETATM   15  C   UNL     1     -40.094  52.152 -52.046  1.00  0.00     0.037 A 
HETATM   16  C   UNL     1     -40.669  52.554 -53.251  1.00  0.00     0.076 A 
HETATM   17  C   UNL     1     -39.427  50.923 -51.915  1.00  0.00     0.021 A 
HETATM   18  N   UNL     1     -41.303  53.785 -53.224  1.00  0.00    -0.223 NA
HETATM   19  C   UNL     1     -40.564  51.703 -54.370  1.00  0.00     0.033 A 
HETATM   20  C   UNL     1     -39.896  50.480 -54.254  1.00  0.00     0.002 A 
HETATM   21  C   UNL     1     -39.338  50.096 -53.039  1.00  0.00     0.002 A 
ENDBRANCH  11  13
ENDBRANCH   9  11
ENDBRANCH   6   9
ENDBRANCH   2   5
BRANCH   1  22
HETATM   22  C   UNL     1     -45.639  61.154 -50.306  1.00  0.00     0.227 C 
BRANCH  22  23
HETATM   23  N   UNL     1     -45.106  61.444 -48.990  1.00  0.00    -0.348 N 
HETATM   24  C   UNL     1     -45.961  61.819 -47.974  1.00  0.00     0.252 C 
HETATM   25  O   UNL     1     -47.163  61.985 -48.149  1.00  0.00    -0.268 OA
HETATM   26  H   UNL     1     -44.226  61.008 -48.744  1.00  0.00     0.163 HD
BRANCH  24  27
HETATM   27  C   UNL     1     -45.359  61.964 -46.621  1.00  0.00     0.032 A 
HETATM   28  C   UNL     1     -45.394  63.220 -46.004  1.00  0.00     0.024 A 
HETATM   29  C   UNL     1     -44.838  63.414 -44.728  1.00  0.00    -0.055 A 
HETATM   30  C   UNL     1     -44.206  62.333 -44.080  1.00  0.00    -0.056 A 
HETATM   31  C   UNL     1     -44.896  64.782 -44.105  1.00  0.00     0.049 C 
HETATM   32  C   UNL     1     -43.586  62.485 -42.718  1.00  0.00     0.049 C 
HETATM   33  C   UNL     1     -44.174  61.077 -44.709  1.00  0.00     0.008 A 
HETATM   34  C   UNL     1     -44.741  60.892 -45.971  1.00  0.00     0.017 A 
ENDBRANCH  24  27
ENDBRANCH  22  23
ENDBRANCH   1  22
TORSDOF 7
ENDMDL
MODEL 4
REMARK VINA RESULT:      -8.2      1.984      2.366
REMARK  7 active torsions:
REMARK  status: ('A' for Active; 'I' for Inactive)
REMARK    1  A    between atoms: C_6  and  C_7 
REMARK       I    between atoms: C_7  and  N_8 
REMARK    2  A    between atoms: N_8  and  C_9 
REMARK    3  A    between atoms: C_9  and  C_10 
REMARK       I    between atoms: C_10  and  N_11 
REMARK    4  A    between atoms: N_11  and  N_12 
REMARK       I    between atoms: N_12  and  C_13 
REMARK    5  A    between atoms: C_13  and  C_14 
REMARK    6  A    between atoms: C_14  and  N_15 
REMARK    7  A    between atoms: N_15  and  C_16 
ROOT
HETATM    1  C   UNL     1     -42.437  57.754 -51.554  1.00  0.00     0.253 C 
HETATM    2  N   UNL     1     -42.228  57.603 -52.909  1.00  0.00    -0.266 N 
HETATM    3  O   UNL     1     -43.064  58.703 -51.081  1.00  0.00    -0.270 OA
HETATM    4  H   UNL     1     -41.702  56.830 -53.316  1.00  0.00     0.190 HD
ENDROOT
BRANCH   2   5
HETATM    5  N   UNL     1     -42.903  58.461 -53.783  1.00  0.00    -0.266 N 
HETATM    6  C   UNL     1     -42.157  59.423 -54.442  1.00  0.00     0.258 C 
HETATM    7  O   UNL     1     -40.995  59.696 -54.132  1.00  0.00    -0.269 OA
HETATM    8  H   UNL     1     -43.764  58.086 -54.181  1.00  0.00     0.190 HD
BRANCH   6   9
HETATM    9  C   UNL     1     -42.907  60.132 -55.584  1.00  0.00     0.173 C 
HETATM   10  C   UNL     1     -43.183  61.583 -55.204  1.00  0.00     0.042 C 
BRANCH   9  11
HETATM   11  N   UNL     1     -44.180  59.453 -55.827  1.00  0.00    -0.356 N 
HETATM   12  H   UNL     1     -44.716  59.259 -54.982  1.00  0.00     0.162 HD
BRANCH  11  13
HETATM   13  C   UNL     1     -44.300  58.602 -56.867  1.00  0.00     0.168 A 
HETATM   14  S   UNL     1     -45.459  58.907 -58.098  1.00  0.00    -0.050 SA
HETATM   15  C   UNL     1     -44.971  57.481 -58.924  1.00  0.00     0.037 A 
HETATM   16  C   UNL     1     -43.955  56.864 -58.193  1.00  0.00     0.076 A 
HETATM   17  C   UNL     1     -45.451  56.941 -60.129  1.00  0.00     0.021 A 
HETATM   18  N   UNL     1     -43.580  57.519 -57.033  1.00  0.00    -0.223 NA
HETATM   19  C   UNL     1     -43.407  55.660 -58.677  1.00  0.00     0.033 A 
HETATM   20  C   UNL     1     -43.881  55.109 -59.872  1.00  0.00     0.002 A 
HETATM   21  C   UNL     1     -44.889  55.747 -60.589  1.00  0.00     0.002 A 
ENDBRANCH  11  13
ENDBRANCH   9  11
ENDBRANCH   6   9
ENDBRANCH   2   5
BRANCH   1  22
HETATM   22  C   UNL     1     -41.760  56.698 -50.687  1.00  0.00     0.227 C 
BRANCH  22  23
HETATM   23  N   UNL     1     -41.337  55.589 -51.518  1.00  0.00    -0.348 N 
HETATM   24  C   UNL     1     -40.660  54.529 -50.951  1.00  0.00     0.252 C 
HETATM   25  O   UNL     1     -40.333  54.510 -49.770  1.00  0.00    -0.268 OA
HETATM   26  H   UNL     1     -41.862  55.427 -52.369  1.00  0.00     0.163 HD
BRANCH  24  27
HETATM   27  C   UNL     1     -40.384  53.368 -51.839  1.00  0.00     0.032 A 
HETATM   28  C   UNL     1     -40.007  52.153 -51.255  1.00  0.00     0.024 A 
HETATM   29  C   UNL     1     -39.732  51.024 -52.046  1.00  0.00    -0.055 A 
HETATM   30  C   UNL     1     -39.803  51.134 -53.450  1.00  0.00    -0.056 A 
HETATM   31  C   UNL     1     -39.327  49.741 -51.374  1.00  0.00     0.049 C 
HETATM   32  C   UNL     1     -39.511  49.963 -54.347  1.00  0.00     0.049 C 
HETATM   33  C   UNL     1     -40.179  52.358 -54.027  1.00  0.00     0.008 A 
HETATM   34  C   UNL     1     -40.464  53.469 -53.231  1.00  0.00     0.017 A 
ENDBRANCH  24  27
ENDBRANCH  22  23
ENDBRANCH   1  22
TORSDOF 7
ENDMDL
MODEL 5
REMARK VINA RESULT:      -8.2      3.312      4.245
REMARK  7 active torsions:
REMARK  status: ('A' for Active; 'I' for Inactive)
REMARK    1  A    between atoms: C_6  and  C_7 
REMARK       I    between atoms: C_7  and  N_8 
REMARK    2  A    between atoms: N_8  and  C_9 
REMARK    3  A    between atoms: C_9  and  C_10 
REMARK       I    between atoms: C_10  and  N_11 
REMARK    4  A    between atoms: N_11  and  N_12 
REMARK       I    between atoms: N_12  and  C_13 
REMARK    5  A    between atoms: C_13  and  C_14 
REMARK    6  A    between atoms: C_14  and  N_15 
REMARK    7  A    between atoms: N_15  and  C_16 
ROOT
HETATM    1  C   UNL     1     -43.067  57.397 -51.558  1.00  0.00     0.253 C 
HETATM    2  N   UNL     1     -42.359  57.489 -52.737  1.00  0.00    -0.266 N 
HETATM    3  O   UNL     1     -43.886  58.248 -51.207  1.00  0.00    -0.270 OA
HETATM    4  H   UNL     1     -41.671  56.801 -53.038  1.00  0.00     0.190 HD
ENDROOT
BRANCH   2   5
HETATM    5  N   UNL     1     -42.714  58.492 -53.647  1.00  0.00    -0.266 N 
HETATM    6  C   UNL     1     -41.731  59.387 -54.031  1.00  0.00     0.258 C 
HETATM    7  O   UNL     1     -40.645  59.475 -53.454  1.00  0.00    -0.269 OA
HETATM    8  H   UNL     1     -43.501  58.268 -54.255  1.00  0.00     0.190 HD
BRANCH   6   9
HETATM    9  C   UNL     1     -42.115  60.271 -55.232  1.00  0.00     0.173 C 
HETATM   10  C   UNL     1     -43.536  60.798 -55.057  1.00  0.00     0.042 C 
BRANCH   9  11
HETATM   11  N   UNL     1     -42.050  59.480 -56.461  1.00  0.00    -0.356 N 
HETATM   12  H   UNL     1     -41.705  58.529 -56.326  1.00  0.00     0.162 HD
BRANCH  11  13
HETATM   13  C   UNL     1     -41.797  60.088 -57.638  1.00  0.00     0.168 A 
HETATM   14  S   UNL     1     -42.520  59.498 -59.082  1.00  0.00    -0.050 SA
HETATM   15  C   UNL     1     -41.735  60.731 -59.989  1.00  0.00     0.037 A 
HETATM   16  C   UNL     1     -40.966  61.506 -59.120  1.00  0.00     0.076 A 
HETATM   17  C   UNL     1     -41.791  60.994 -61.367  1.00  0.00     0.021 A 
HETATM   18  N   UNL     1     -41.020  61.133 -57.788  1.00  0.00    -0.223 NA
HETATM   19  C   UNL     1     -40.217  62.575 -59.650  1.00  0.00     0.033 A 
HETATM   20  C   UNL     1     -40.259  62.844 -61.022  1.00  0.00     0.002 A 
HETATM   21  C   UNL     1     -41.040  62.063 -61.867  1.00  0.00     0.002 A 
ENDBRANCH  11  13
ENDBRANCH   9  11
ENDBRANCH   6   9
ENDBRANCH   2   5
BRANCH   1  22
HETATM   22  C   UNL     1     -42.696  56.202 -50.688  1.00  0.00     0.227 C 
BRANCH  22  23
HETATM   23  N   UNL     1     -42.195  55.131 -51.526  1.00  0.00    -0.348 N 
HETATM   24  C   UNL     1     -40.972  54.558 -51.244  1.00  0.00     0.252 C 
HETATM   25  O   UNL     1     -40.245  54.960 -50.344  1.00  0.00    -0.268 OA
HETATM   26  H   UNL     1     -42.881  54.582 -52.028  1.00  0.00     0.163 HD
BRANCH  24  27
HETATM   27  C   UNL     1     -40.591  53.374 -52.062  1.00  0.00     0.032 A 
HETATM   28  C   UNL     1     -40.151  52.219 -51.405  1.00  0.00     0.024 A 
HETATM   29  C   UNL     1     -39.777  51.074 -52.128  1.00  0.00    -0.055 A 
HETATM   30  C   UNL     1     -39.813  51.107 -53.537  1.00  0.00    -0.056 A 
HETATM   31  C   UNL     1     -39.307  49.857 -51.379  1.00  0.00     0.049 C 
HETATM   32  C   UNL     1     -39.415  49.914 -54.363  1.00  0.00     0.049 C 
HETATM   33  C   UNL     1     -40.253  52.272 -54.188  1.00  0.00     0.008 A 
HETATM   34  C   UNL     1     -40.636  53.399 -53.459  1.00  0.00     0.017 A 
ENDBRANCH  24  27
ENDBRANCH  22  23
ENDBRANCH   1  22
TORSDOF 7
ENDMDL
MODEL 6
REMARK VINA RESULT:      -7.8      2.874      5.061
REMARK  7 active torsions:
REMARK  status: ('A' for Active; 'I' for Inactive)
REMARK    1  A    between atoms: C_6  and  C_7 
REMARK       I    between atoms: C_7  and  N_8 
REMARK    2  A    between atoms: N_8  and  C_9 
REMARK    3  A    between atoms: C_9  and  C_10 
REMARK       I    between atoms: C_10  and  N_11 
REMARK    4  A    between atoms: N_11  and  N_12 
REMARK       I    between atoms: N_12  and  C_13 
REMARK    5  A    between atoms: C_13  and  C_14 
REMARK    6  A    between atoms: C_14  and  N_15 
REMARK    7  A    between atoms: N_15  and  C_16 
ROOT
HETATM    1  C   UNL     1     -42.961  57.628 -58.222  1.00  0.00     0.253 C 
HETATM    2  N   UNL     1     -44.085  58.392 -57.991  1.00  0.00    -0.266 N 
HETATM    3  O   UNL     1     -41.851  58.124 -58.421  1.00  0.00    -0.270 OA
HETATM    4  H   UNL     1     -45.013  58.000 -57.836  1.00  0.00     0.190 HD
ENDROOT
BRANCH   2   5
HETATM    5  N   UNL     1     -43.923  59.769 -57.801  1.00  0.00    -0.266 N 
HETATM    6  C   UNL     1     -44.538  60.343 -56.703  1.00  0.00     0.258 C 
HETATM    7  O   UNL     1     -45.384  59.752 -56.026  1.00  0.00    -0.269 OA
HETATM    8  H   UNL     1     -43.077  60.167 -58.209  1.00  0.00     0.190 HD
BRANCH   6   9
HETATM    9  C   UNL     1     -44.086  61.784 -56.405  1.00  0.00     0.173 C 
HETATM   10  C   UNL     1     -44.059  62.598 -57.695  1.00  0.00     0.042 C 
BRANCH   9  11
HETATM   11  N   UNL     1     -42.742  61.764 -55.827  1.00  0.00    -0.356 N 
HETATM   12  H   UNL     1     -42.000  61.981 -56.491  1.00  0.00     0.162 HD
BRANCH  11  13
HETATM   13  C   UNL     1     -42.461  60.923 -54.810  1.00  0.00     0.168 A 
HETATM   14  S   UNL     1     -43.131  61.203 -53.253  1.00  0.00    -0.050 SA
HETATM   15  C   UNL     1     -42.335  59.804 -52.649  1.00  0.00     0.037 A 
HETATM   16  C   UNL     1     -41.603  59.222 -53.684  1.00  0.00     0.076 A 
HETATM   17  C   UNL     1     -42.351  59.260 -51.354  1.00  0.00     0.021 A 
HETATM   18  N   UNL     1     -41.693  59.864 -54.907  1.00  0.00    -0.223 NA
HETATM   19  C   UNL     1     -40.851  58.062 -53.413  1.00  0.00     0.033 A 
HETATM   20  C   UNL     1     -40.854  57.514 -52.126  1.00  0.00     0.002 A 
HETATM   21  C   UNL     1     -41.599  58.107 -51.112  1.00  0.00     0.002 A 
ENDBRANCH  11  13
ENDBRANCH   9  11
ENDBRANCH   6   9
ENDBRANCH   2   5
BRANCH   1  22
HETATM   22  C   UNL     1     -43.219  56.127 -58.293  1.00  0.00     0.227 C 
BRANCH  22  23
HETATM   23  N   UNL     1     -42.474  55.459 -57.244  1.00  0.00    -0.348 N 
HETATM   24  C   UNL     1     -42.810  55.675 -55.924  1.00  0.00     0.252 C 
HETATM   25  O   UNL     1     -43.680  56.470 -55.584  1.00  0.00    -0.268 OA
HETATM   26  H   UNL     1     -42.014  54.592 -57.490  1.00  0.00     0.163 HD
BRANCH  24  27
HETATM   27  C   UNL     1     -42.093  54.849 -54.914  1.00  0.00     0.032 A 
HETATM   28  C   UNL     1     -42.633  54.749 -53.626  1.00  0.00     0.024 A 
HETATM   29  C   UNL     1     -41.997  53.984 -52.634  1.00  0.00    -0.055 A 
HETATM   30  C   UNL     1     -40.779  53.341 -52.935  1.00  0.00    -0.056 A 
HETATM   31  C   UNL     1     -42.612  53.908 -51.263  1.00  0.00     0.049 C 
HETATM   32  C   UNL     1     -40.049  52.517 -51.910  1.00  0.00     0.049 C 
HETATM   33  C   UNL     1     -40.244  53.450 -54.229  1.00  0.00     0.008 A 
HETATM   34  C   UNL     1     -40.892  54.201 -55.212  1.00  0.00     0.017 A 
ENDBRANCH  24  27
ENDBRANCH  22  23
ENDBRANCH   1  22
TORSDOF 7
ENDMDL
MODEL 7
REMARK VINA RESULT:      -7.7      1.754      2.479
REMARK  7 active torsions:
REMARK  status: ('A' for Active; 'I' for Inactive)
REMARK    1  A    between atoms: C_6  and  C_7 
REMARK       I    between atoms: C_7  and  N_8 
REMARK    2  A    between atoms: N_8  and  C_9 
REMARK    3  A    between atoms: C_9  and  C_10 
REMARK       I    between atoms: C_10  and  N_11 
REMARK    4  A    between atoms: N_11  and  N_12 
REMARK       I    between atoms: N_12  and  C_13 
REMARK    5  A    between atoms: C_13  and  C_14 
REMARK    6  A    between atoms: C_14  and  N_15 
REMARK    7  A    between atoms: N_15  and  C_16 
ROOT
HETATM    1  C   UNL     1     -42.270  58.212 -51.213  1.00  0.00     0.253 C 
HETATM    2  N   UNL     1     -41.780  59.434 -51.621  1.00  0.00    -0.266 N 
HETATM    3  O   UNL     1     -43.387  57.803 -51.534  1.00  0.00    -0.270 OA
HETATM    4  H   UNL     1     -40.864  59.792 -51.355  1.00  0.00     0.190 HD
ENDROOT
BRANCH   2   5
HETATM    5  N   UNL     1     -42.507  60.154 -52.575  1.00  0.00    -0.266 N 
HETATM    6  C   UNL     1     -42.058  60.121 -53.883  1.00  0.00     0.258 C 
HETATM    7  O   UNL     1     -40.950  59.681 -54.199  1.00  0.00    -0.269 OA
HETATM    8  H   UNL     1     -43.491  60.303 -52.350  1.00  0.00     0.190 HD
BRANCH   6   9
HETATM    9  C   UNL     1     -43.055  60.693 -54.909  1.00  0.00     0.173 C 
HETATM   10  C   UNL     1     -43.684  61.971 -54.366  1.00  0.00     0.042 C 
BRANCH   9  11
HETATM   11  N   UNL     1     -44.111  59.712 -55.161  1.00  0.00    -0.356 N 
HETATM   12  H   UNL     1     -44.511  59.305 -54.316  1.00  0.00     0.162 HD
BRANCH  11  13
HETATM   13  C   UNL     1     -44.072  58.955 -56.276  1.00  0.00     0.168 A 
HETATM   14  S   UNL     1     -44.795  59.524 -57.728  1.00  0.00    -0.050 SA
HETATM   15  C   UNL     1     -44.322  58.083 -58.539  1.00  0.00     0.037 A 
HETATM   16  C   UNL     1     -43.647  57.261 -57.636  1.00  0.00     0.076 A 
HETATM   17  C   UNL     1     -44.534  57.704 -59.874  1.00  0.00     0.021 A 
HETATM   18  N   UNL     1     -43.505  57.775 -56.359  1.00  0.00    -0.223 NA
HETATM   19  C   UNL     1     -43.177  56.009 -58.081  1.00  0.00     0.033 A 
HETATM   20  C   UNL     1     -43.387  55.617 -59.407  1.00  0.00     0.002 A 
HETATM   21  C   UNL     1     -44.055  56.458 -60.291  1.00  0.00     0.002 A 
ENDBRANCH  11  13
ENDBRANCH   9  11
ENDBRANCH   6   9
ENDBRANCH   2   5
BRANCH   1  22
HETATM   22  C   UNL     1     -41.352  57.445 -50.267  1.00  0.00     0.227 C 
BRANCH  22  23
HETATM   23  N   UNL     1     -40.819  56.283 -50.949  1.00  0.00    -0.348 N 
HETATM   24  C   UNL     1     -41.155  55.019 -50.510  1.00  0.00     0.252 C 
HETATM   25  O   UNL     1     -41.841  54.826 -49.513  1.00  0.00    -0.268 OA
HETATM   26  H   UNL     1     -40.551  56.402 -51.918  1.00  0.00     0.163 HD
BRANCH  24  27
HETATM   27  C   UNL     1     -40.682  53.880 -51.344  1.00  0.00     0.032 A 
HETATM   28  C   UNL     1     -40.750  53.998 -52.738  1.00  0.00     0.024 A 
HETATM   29  C   UNL     1     -40.320  52.953 -53.573  1.00  0.00    -0.055 A 
HETATM   30  C   UNL     1     -39.847  51.757 -52.993  1.00  0.00    -0.056 A 
HETATM   31  C   UNL     1     -40.415  53.122 -55.065  1.00  0.00     0.049 C 
HETATM   32  C   UNL     1     -39.382  50.603 -53.838  1.00  0.00     0.049 C 
HETATM   33  C   UNL     1     -39.786  51.649 -51.594  1.00  0.00     0.008 A 
HETATM   34  C   UNL     1     -40.203  52.699 -50.773  1.00  0.00     0.017 A 
ENDBRANCH  24  27
ENDBRANCH  22  23
ENDBRANCH   1  22
TORSDOF 7
ENDMDL
MODEL 8
REMARK VINA RESULT:      -7.7      3.768      5.455
REMARK  7 active torsions:
REMARK  status: ('A' for Active; 'I' for Inactive)
REMARK    1  A    between atoms: C_6  and  C_7 
REMARK       I    between atoms: C_7  and  N_8 
REMARK    2  A    between atoms: N_8  and  C_9 
REMARK    3  A    between atoms: C_9  and  C_10 
REMARK       I    between atoms: C_10  and  N_11 
REMARK    4  A    between atoms: N_11  and  N_12 
REMARK       I    between atoms: N_12  and  C_13 
REMARK    5  A    between atoms: C_13  and  C_14 
REMARK    6  A    between atoms: C_14  and  N_15 
REMARK    7  A    between atoms: N_15  and  C_16 
ROOT
HETATM    1  C   UNL     1     -43.738  57.282 -53.916  1.00  0.00     0.253 C 
HETATM    2  N   UNL     1     -43.942  56.344 -54.906  1.00  0.00    -0.266 N 
HETATM    3  O   UNL     1     -43.379  58.435 -54.158  1.00  0.00    -0.270 OA
HETATM    4  H   UNL     1     -44.228  55.383 -54.722  1.00  0.00     0.190 HD
ENDROOT
BRANCH   2   5
HETATM    5  N   UNL     1     -43.913  56.770 -56.238  1.00  0.00    -0.266 N 
HETATM    6  C   UNL     1     -43.234  55.981 -57.150  1.00  0.00     0.258 C 
HETATM    7  O   UNL     1     -42.485  55.062 -56.810  1.00  0.00    -0.269 OA
HETATM    8  H   UNL     1     -44.691  57.366 -56.521  1.00  0.00     0.190 HD
BRANCH   6   9
HETATM    9  C   UNL     1     -43.484  56.358 -58.622  1.00  0.00     0.173 C 
HETATM   10  C   UNL     1     -43.959  55.134 -59.398  1.00  0.00     0.042 C 
BRANCH   9  11
HETATM   11  N   UNL     1     -42.240  56.846 -59.217  1.00  0.00    -0.356 N 
HETATM   12  H   UNL     1     -41.411  56.320 -58.939  1.00  0.00     0.162 HD
BRANCH  11  13
HETATM   13  C   UNL     1     -42.098  58.158 -59.496  1.00  0.00     0.168 A 
HETATM   14  S   UNL     1     -41.983  59.300 -58.218  1.00  0.00    -0.050 SA
HETATM   15  C   UNL     1     -41.840  60.578 -59.361  1.00  0.00     0.037 A 
HETATM   16  C   UNL     1     -41.898  60.038 -60.645  1.00  0.00     0.076 A 
HETATM   17  C   UNL     1     -41.691  61.956 -59.140  1.00  0.00     0.021 A 
HETATM   18  N   UNL     1     -42.035  58.662 -60.705  1.00  0.00    -0.223 NA
HETATM   19  C   UNL     1     -41.815  60.909 -61.750  1.00  0.00     0.033 A 
HETATM   20  C   UNL     1     -41.673  62.286 -61.544  1.00  0.00     0.002 A 
HETATM   21  C   UNL     1     -41.609  62.799 -60.252  1.00  0.00     0.002 A 
ENDBRANCH  11  13
ENDBRANCH   9  11
ENDBRANCH   6   9
ENDBRANCH   2   5
BRANCH   1  22
HETATM   22  C   UNL     1     -43.911  56.753 -52.496  1.00  0.00     0.227 C 
BRANCH  22  23
HETATM   23  N   UNL     1     -43.185  55.507 -52.353  1.00  0.00    -0.348 N 
HETATM   24  C   UNL     1     -41.831  55.531 -52.088  1.00  0.00     0.252 C 
HETATM   25  O   UNL     1     -41.187  56.572 -52.033  1.00  0.00    -0.268 OA
HETATM   26  H   UNL     1     -43.719  54.695 -52.068  1.00  0.00     0.163 HD
BRANCH  24  27
HETATM   27  C   UNL     1     -41.186  54.217 -51.817  1.00  0.00     0.032 A 
HETATM   28  C   UNL     1     -40.771  53.438 -52.904  1.00  0.00     0.024 A 
HETATM   29  C   UNL     1     -40.158  52.190 -52.706  1.00  0.00    -0.055 A 
HETATM   30  C   UNL     1     -39.994  51.703 -51.392  1.00  0.00    -0.056 A 
HETATM   31  C   UNL     1     -39.731  51.386 -53.904  1.00  0.00     0.049 C 
HETATM   32  C   UNL     1     -39.353  50.370 -51.121  1.00  0.00     0.049 C 
HETATM   33  C   UNL     1     -40.417  52.491 -50.309  1.00  0.00     0.008 A 
HETATM   34  C   UNL     1     -41.012  53.737 -50.517  1.00  0.00     0.017 A 
ENDBRANCH  24  27
ENDBRANCH  22  23
ENDBRANCH   1  22
TORSDOF 7
ENDMDL
MODEL 9
REMARK VINA RESULT:      -7.7      4.391      6.453
REMARK  7 active torsions:
REMARK  status: ('A' for Active; 'I' for Inactive)
REMARK    1  A    between atoms: C_6  and  C_7 
REMARK       I    between atoms: C_7  and  N_8 
REMARK    2  A    between atoms: N_8  and  C_9 
REMARK    3  A    between atoms: C_9  and  C_10 
REMARK       I    between atoms: C_10  and  N_11 
REMARK    4  A    between atoms: N_11  and  N_12 
REMARK       I    between atoms: N_12  and  C_13 
REMARK    5  A    between atoms: C_13  and  C_14 
REMARK    6  A    between atoms: C_14  and  N_15 
REMARK    7  A    between atoms: N_15  and  C_16 
ROOT
HETATM    1  C   UNL     1     -43.843  56.922 -51.403  1.00  0.00     0.253 C 
HETATM    2  N   UNL     1     -44.150  58.086 -50.730  1.00  0.00    -0.266 N 
HETATM    3  O   UNL     1     -44.106  56.756 -52.596  1.00  0.00    -0.270 OA
HETATM    4  H   UNL     1     -43.950  58.235 -49.742  1.00  0.00     0.190 HD
ENDROOT
BRANCH   2   5
HETATM    5  N   UNL     1     -44.614  59.178 -51.471  1.00  0.00    -0.266 N 
HETATM    6  C   UNL     1     -45.878  59.660 -51.182  1.00  0.00     0.258 C 
HETATM    7  O   UNL     1     -46.681  59.048 -50.473  1.00  0.00    -0.269 OA
HETATM    8  H   UNL     1     -43.888  59.780 -51.859  1.00  0.00     0.190 HD
BRANCH   6   9
HETATM    9  C   UNL     1     -46.201  61.019 -51.830  1.00  0.00     0.173 C 
HETATM   10  C   UNL     1     -45.824  60.993 -53.307  1.00  0.00     0.042 C 
BRANCH   9  11
HETATM   11  N   UNL     1     -45.435  62.072 -51.162  1.00  0.00    -0.356 N 
HETATM   12  H   UNL     1     -44.450  62.100 -51.424  1.00  0.00     0.162 HD
BRANCH  11  13
HETATM   13  C   UNL     1     -45.774  62.461 -49.915  1.00  0.00     0.168 A 
HETATM   14  S   UNL     1     -47.299  63.201 -49.631  1.00  0.00    -0.050 SA
HETATM   15  C   UNL     1     -46.926  63.349 -47.959  1.00  0.00     0.037 A 
HETATM   16  C   UNL     1     -45.653  62.825 -47.736  1.00  0.00     0.076 A 
HETATM   17  C   UNL     1     -47.699  63.890 -46.919  1.00  0.00     0.021 A 
HETATM   18  N   UNL     1     -45.016  62.316 -48.855  1.00  0.00    -0.223 NA
HETATM   19  C   UNL     1     -45.128  62.854 -46.428  1.00  0.00     0.033 A 
HETATM   20  C   UNL     1     -45.886  63.396 -45.385  1.00  0.00     0.002 A 
HETATM   21  C   UNL     1     -47.157  63.904 -45.630  1.00  0.00     0.002 A 
ENDBRANCH  11  13
ENDBRANCH   9  11
ENDBRANCH   6   9
ENDBRANCH   2   5
BRANCH   1  22
HETATM   22  C   UNL     1     -43.229  55.830 -50.535  1.00  0.00     0.227 C 
BRANCH  22  23
HETATM   23  N   UNL     1     -42.640  54.813 -51.383  1.00  0.00    -0.348 N 
HETATM   24  C   UNL     1     -41.306  54.494 -51.241  1.00  0.00     0.252 C 
HETATM   25  O   UNL     1     -40.563  55.085 -50.465  1.00  0.00    -0.268 OA
HETATM   26  H   UNL     1     -43.266  54.115 -51.764  1.00  0.00     0.163 HD
BRANCH  24  27
HETATM   27  C   UNL     1     -40.810  53.346 -52.048  1.00  0.00     0.032 A 
HETATM   28  C   UNL     1     -40.306  52.224 -51.378  1.00  0.00     0.024 A 
HETATM   29  C   UNL     1     -39.823  51.114 -52.090  1.00  0.00    -0.055 A 
HETATM   30  C   UNL     1     -39.814  51.150 -53.500  1.00  0.00    -0.056 A 
HETATM   31  C   UNL     1     -39.288  49.932 -51.328  1.00  0.00     0.049 C 
HETATM   32  C   UNL     1     -39.300  49.994 -54.313  1.00  0.00     0.049 C 
HETATM   33  C   UNL     1     -40.319  52.281 -54.162  1.00  0.00     0.008 A 
HETATM   34  C   UNL     1     -40.810  53.373 -53.445  1.00  0.00     0.017 A 
ENDBRANCH  24  27
ENDBRANCH  22  23
ENDBRANCH   1  22
TORSDOF 7
ENDMDL
MODEL 10
REMARK VINA RESULT:      -7.6      2.219      3.923
REMARK  7 active torsions:
REMARK  status: ('A' for Active; 'I' for Inactive)
REMARK    1  A    between atoms: C_6  and  C_7 
REMARK       I    between atoms: C_7  and  N_8 
REMARK    2  A    between atoms: N_8  and  C_9 
REMARK    3  A    between atoms: C_9  and  C_10 
REMARK       I    between atoms: C_10  and  N_11 
REMARK    4  A    between atoms: N_11  and  N_12 
REMARK       I    between atoms: N_12  and  C_13 
REMARK    5  A    between atoms: C_13  and  C_14 
REMARK    6  A    between atoms: C_14  and  N_15 
REMARK    7  A    between atoms: N_15  and  C_16 
ROOT
HETATM    1  C   UNL     1     -42.319  56.538 -55.016  1.00  0.00     0.253 C 
HETATM    2  N   UNL     1     -43.063  57.583 -55.520  1.00  0.00    -0.266 N 
HETATM    3  O   UNL     1     -41.491  56.687 -54.115  1.00  0.00    -0.270 OA
HETATM    4  H   UNL     1     -43.744  57.480 -56.272  1.00  0.00     0.190 HD
ENDROOT
BRANCH   2   5
HETATM    5  N   UNL     1     -43.002  58.818 -54.866  1.00  0.00    -0.266 N 
HETATM    6  C   UNL     1     -44.148  59.592 -54.844  1.00  0.00     0.258 C 
HETATM    7  O   UNL     1     -45.131  59.350 -55.550  1.00  0.00    -0.269 OA
HETATM    8  H   UNL     1     -42.297  58.885 -54.131  1.00  0.00     0.190 HD
BRANCH   6   9
HETATM    9  C   UNL     1     -44.087  60.787 -53.876  1.00  0.00     0.173 C 
HETATM   10  C   UNL     1     -42.668  61.345 -53.827  1.00  0.00     0.042 C 
BRANCH   9  11
HETATM   11  N   UNL     1     -44.473  60.348 -52.535  1.00  0.00    -0.356 N 
HETATM   12  H   UNL     1     -44.710  61.110 -51.900  1.00  0.00     0.162 HD
BRANCH  11  13
HETATM   13  C   UNL     1     -43.929  59.230 -52.012  1.00  0.00     0.168 A 
HETATM   14  S   UNL     1     -44.878  57.806 -51.855  1.00  0.00    -0.050 SA
HETATM   15  C   UNL     1     -43.535  56.974 -51.177  1.00  0.00     0.037 A 
HETATM   16  C   UNL     1     -42.451  57.850 -51.112  1.00  0.00     0.076 A 
HETATM   17  C   UNL     1     -43.443  55.645 -50.732  1.00  0.00     0.021 A 
HETATM   18  N   UNL     1     -42.689  59.124 -51.599  1.00  0.00    -0.223 NA
HETATM   19  C   UNL     1     -41.235  57.386 -50.572  1.00  0.00     0.033 A 
HETATM   20  C   UNL     1     -41.133  56.066 -50.119  1.00  0.00     0.002 A 
HETATM   21  C   UNL     1     -42.225  55.208 -50.202  1.00  0.00     0.002 A 
ENDBRANCH  11  13
ENDBRANCH   9  11
ENDBRANCH   6   9
ENDBRANCH   2   5
BRANCH   1  22
HETATM   22  C   UNL     1     -42.544  55.203 -55.716  1.00  0.00     0.227 C 
BRANCH  22  23
HETATM   23  N   UNL     1     -42.141  54.123 -54.838  1.00  0.00    -0.348 N 
HETATM   24  C   UNL     1     -40.853  53.634 -54.904  1.00  0.00     0.252 C 
HETATM   25  O   UNL     1     -40.036  54.029 -55.729  1.00  0.00    -0.268 OA
HETATM   26  H   UNL     1     -42.652  54.022 -53.970  1.00  0.00     0.163 HD
BRANCH  24  27
HETATM   27  C   UNL     1     -40.475  52.624 -53.878  1.00  0.00     0.032 A 
HETATM   28  C   UNL     1     -40.490  53.001 -52.530  1.00  0.00     0.024 A 
HETATM   29  C   UNL     1     -40.141  52.088 -51.520  1.00  0.00    -0.055 A 
HETATM   30  C   UNL     1     -39.734  50.786 -51.879  1.00  0.00    -0.056 A 
HETATM   31  C   UNL     1     -40.169  52.539 -50.085  1.00  0.00     0.049 C 
HETATM   32  C   UNL     1     -39.339  49.771 -50.842  1.00  0.00     0.049 C 
HETATM   33  C   UNL     1     -39.719  50.419 -53.235  1.00  0.00     0.008 A 
HETATM   34  C   UNL     1     -40.082  51.330 -54.229  1.00  0.00     0.017 A 
ENDBRANCH  24  27
ENDBRANCH  22  23
ENDBRANCH   1  22
TORSDOF 7
ENDMDL
