MODEL 1
REMARK VINA RESULT:      -8.4      0.000      0.000
REMARK  8 active torsions:
REMARK  status: ('A' for Active; 'I' for Inactive)
REMARK    1  A    between atoms: C_2  and  C_3 
REMARK    2  A    between atoms: C_3  and  O_4 
REMARK    3  A    between atoms: O_4  and  C_5 
REMARK    4  A    between atoms: C_7  and  C_8 
REMARK    5  A    between atoms: N_9  and  C_10 
REMARK    6  A    between atoms: C_10  and  C_11 
REMARK    7  A    between atoms: C_24  and  C_25 
REMARK    8  A    between atoms: C_26  and  O_27 
ROOT
HETATM    1  C   UNL     1     -42.705  54.315 -53.309  1.00  0.00     0.159 A 
HETATM    2  N   UNL     1     -43.240  55.292 -54.300  1.00  0.00    -0.329 N 
HETATM    3  C   UNL     1     -42.410  55.496 -55.408  1.00  0.00     0.273 A 
HETATM    4  O   UNL     1     -42.585  56.228 -56.364  1.00  0.00    -0.266 OA
HETATM    5  C   UNL     1     -41.340  54.603 -55.181  1.00  0.00     0.129 A 
HETATM    6  C   UNL     1     -41.482  53.887 -54.029  1.00  0.00     0.034 A 
HETATM    7  N   UNL     1     -40.213  54.202 -55.785  1.00  0.00    -0.272 N 
HETATM    8  H   UNL     1     -39.802  54.523 -56.657  1.00  0.00     0.189 HD
HETATM    9  N   UNL     1     -39.597  53.218 -55.081  1.00  0.00    -0.173 NA
HETATM   10  C   UNL     1     -40.418  52.969 -54.025  1.00  0.00     0.101 A 
ENDROOT
BRANCH   1  11
HETATM   11  C   UNL     1     -42.244  54.952 -52.013  1.00  0.00    -0.028 A 
HETATM   12  C   UNL     1     -41.503  56.155 -51.985  1.00  0.00     0.046 A 
HETATM   13  C   UNL     1     -41.067  56.710 -50.780  1.00  0.00     0.069 A 
HETATM   14  C   UNL     1     -41.367  56.059 -49.583  1.00  0.00     0.037 A 
HETATM   15  C   UNL     1     -42.097  54.872 -49.586  1.00  0.00     0.003 A 
HETATM   16  C   UNL     1     -42.537  54.325 -50.791  1.00  0.00     0.010 A 
BRANCH  13  17
HETATM   17  O   UNL     1     -40.348  57.865 -50.637  1.00  0.00    -0.348 OA
BRANCH  17  18
HETATM   18  C   UNL     1     -40.303  58.748 -51.757  1.00  0.00     0.202 C 
BRANCH  18  19
HETATM   19  C   UNL     1     -41.293  59.846 -51.508  1.00  0.00    -0.011 C 
HETATM   20  C   UNL     1     -41.691  60.252 -50.295  1.00  0.00     0.009 C 
ENDBRANCH  18  19
ENDBRANCH  17  18
ENDBRANCH  13  17
ENDBRANCH   1  11
BRANCH   2  21
HETATM   21  C   UNL     1     -44.569  55.858 -54.192  1.00  0.00     0.167 C 
BRANCH  21  22
HETATM   22  C   UNL     1     -44.598  57.263 -53.652  1.00  0.00    -0.023 A 
HETATM   23  C   UNL     1     -44.607  58.339 -54.538  1.00  0.00     0.125 A 
HETATM   24  N   UNL     1     -44.673  59.638 -54.166  1.00  0.00    -0.273 NA
HETATM   25  C   UNL     1     -44.756  59.887 -52.843  1.00  0.00     0.116 A 
HETATM   26  C   UNL     1     -44.774  58.896 -51.877  1.00  0.00     0.020 A 
HETATM   27  C   UNL     1     -44.705  57.569 -52.291  1.00  0.00     0.012 A 
ENDBRANCH  21  22
ENDBRANCH   2  21
BRANCH  10  28
HETATM   28  C   UNL     1     -40.120  51.878 -53.096  1.00  0.00     0.028 A 
HETATM   29  C   UNL     1     -39.913  50.564 -53.550  1.00  0.00     0.078 A 
HETATM   30  C   UNL     1     -39.617  49.530 -52.664  1.00  0.00     0.037 A 
HETATM   31  C   UNL     1     -39.550  49.787 -51.296  1.00  0.00     0.003 A 
HETATM   32  C   UNL     1     -39.785  51.075 -50.820  1.00  0.00     0.001 A 
HETATM   33  C   UNL     1     -40.071  52.114 -51.712  1.00  0.00     0.017 A 
BRANCH  29  34
HETATM   34  O   UNL     1     -40.004  50.222 -54.875  1.00  0.00    -0.360 OA
HETATM   35  H   UNL     1     -40.194  49.257 -54.894  1.00  0.00     0.217 HD
ENDBRANCH  29  34
ENDBRANCH  10  28
TORSDOF 8
ENDMDL
MODEL 2
REMARK VINA RESULT:      -7.9      2.409      7.036
REMARK  8 active torsions:
REMARK  status: ('A' for Active; 'I' for Inactive)
REMARK    1  A    between atoms: C_2  and  C_3 
REMARK    2  A    between atoms: C_3  and  O_4 
REMARK    3  A    between atoms: O_4  and  C_5 
REMARK    4  A    between atoms: C_7  and  C_8 
REMARK    5  A    between atoms: N_9  and  C_10 
REMARK    6  A    between atoms: C_10  and  C_11 
REMARK    7  A    between atoms: C_24  and  C_25 
REMARK    8  A    between atoms: C_26  and  O_27 
ROOT
HETATM    1  C   UNL     1     -43.369  55.947 -53.692  1.00  0.00     0.159 A 
HETATM    2  N   UNL     1     -43.220  56.472 -52.305  1.00  0.00    -0.329 N 
HETATM    3  C   UNL     1     -42.925  57.838 -52.238  1.00  0.00     0.273 A 
HETATM    4  O   UNL     1     -42.749  58.531 -51.253  1.00  0.00    -0.266 OA
HETATM    5  C   UNL     1     -42.934  58.239 -53.591  1.00  0.00     0.129 A 
HETATM    6  C   UNL     1     -43.219  57.215 -54.447  1.00  0.00     0.034 A 
HETATM    7  N   UNL     1     -42.782  59.357 -54.316  1.00  0.00    -0.272 N 
HETATM    8  H   UNL     1     -42.565  60.299 -54.006  1.00  0.00     0.189 HD
HETATM    9  N   UNL     1     -42.977  59.120 -55.639  1.00  0.00    -0.173 NA
HETATM   10  C   UNL     1     -43.318  57.805 -55.718  1.00  0.00     0.101 A 
ENDROOT
BRANCH   1  11
HETATM   11  C   UNL     1     -42.231  55.047 -54.128  1.00  0.00    -0.028 A 
HETATM   12  C   UNL     1     -42.325  53.638 -54.086  1.00  0.00     0.046 A 
HETATM   13  C   UNL     1     -41.253  52.828 -54.470  1.00  0.00     0.069 A 
HETATM   14  C   UNL     1     -40.068  53.426 -54.896  1.00  0.00     0.037 A 
HETATM   15  C   UNL     1     -39.952  54.814 -54.945  1.00  0.00     0.003 A 
HETATM   16  C   UNL     1     -41.027  55.618 -54.569  1.00  0.00     0.010 A 
BRANCH  13  17
HETATM   17  O   UNL     1     -41.236  51.460 -54.472  1.00  0.00    -0.348 OA
BRANCH  17  18
HETATM   18  C   UNL     1     -39.969  50.823 -54.326  1.00  0.00     0.202 C 
BRANCH  18  19
HETATM   19  C   UNL     1     -39.712  50.657 -52.857  1.00  0.00    -0.011 C 
HETATM   20  C   UNL     1     -39.655  49.478 -52.223  1.00  0.00     0.009 C 
ENDBRANCH  18  19
ENDBRANCH  17  18
ENDBRANCH  13  17
ENDBRANCH   1  11
BRANCH   2  21
HETATM   21  C   UNL     1     -43.509  55.667 -51.135  1.00  0.00     0.167 C 
BRANCH  21  22
HETATM   22  C   UNL     1     -42.299  55.006 -50.529  1.00  0.00    -0.023 A 
HETATM   23  C   UNL     1     -41.614  55.643 -49.496  1.00  0.00     0.125 A 
HETATM   24  N   UNL     1     -40.543  55.124 -48.854  1.00  0.00    -0.273 NA
HETATM   25  C   UNL     1     -40.138  53.896 -49.241  1.00  0.00     0.116 A 
HETATM   26  C   UNL     1     -40.755  53.167 -50.241  1.00  0.00     0.020 A 
HETATM   27  C   UNL     1     -41.855  53.727 -50.884  1.00  0.00     0.012 A 
ENDBRANCH  21  22
ENDBRANCH   2  21
BRANCH  10  28
HETATM   28  C   UNL     1     -43.707  57.216 -57.000  1.00  0.00     0.028 A 
HETATM   29  C   UNL     1     -44.749  57.761 -57.771  1.00  0.00     0.078 A 
HETATM   30  C   UNL     1     -45.109  57.206 -58.997  1.00  0.00     0.037 A 
HETATM   31  C   UNL     1     -44.448  56.072 -59.466  1.00  0.00     0.003 A 
HETATM   32  C   UNL     1     -43.435  55.494 -58.703  1.00  0.00     0.001 A 
HETATM   33  C   UNL     1     -43.068  56.060 -57.477  1.00  0.00     0.017 A 
BRANCH  29  34
HETATM   34  O   UNL     1     -45.474  58.850 -57.360  1.00  0.00    -0.360 OA
HETATM   35  H   UNL     1     -45.138  59.613 -57.882  1.00  0.00     0.217 HD
ENDBRANCH  29  34
ENDBRANCH  10  28
TORSDOF 8
ENDMDL
MODEL 3
REMARK VINA RESULT:      -7.9      2.700      6.965
REMARK  8 active torsions:
REMARK  status: ('A' for Active; 'I' for Inactive)
REMARK    1  A    between atoms: C_2  and  C_3 
REMARK    2  A    between atoms: C_3  and  O_4 
REMARK    3  A    between atoms: O_4  and  C_5 
REMARK    4  A    between atoms: C_7  and  C_8 
REMARK    5  A    between atoms: N_9  and  C_10 
REMARK    6  A    between atoms: C_10  and  C_11 
REMARK    7  A    between atoms: C_24  and  C_25 
REMARK    8  A    between atoms: C_26  and  O_27 
ROOT
HETATM    1  C   UNL     1     -44.192  56.939 -54.447  1.00  0.00     0.159 A 
HETATM    2  N   UNL     1     -44.264  57.839 -53.261  1.00  0.00    -0.329 N 
HETATM    3  C   UNL     1     -44.112  59.197 -53.562  1.00  0.00     0.273 A 
HETATM    4  O   UNL     1     -44.125  60.150 -52.805  1.00  0.00    -0.266 OA
HETATM    5  C   UNL     1     -43.994  59.207 -54.969  1.00  0.00     0.129 A 
HETATM    6  C   UNL     1     -44.073  57.960 -55.516  1.00  0.00     0.034 A 
HETATM    7  N   UNL     1     -43.863  60.092 -55.966  1.00  0.00    -0.272 N 
HETATM    8  H   UNL     1     -43.775  61.103 -55.921  1.00  0.00     0.189 HD
HETATM    9  N   UNL     1     -43.871  59.479 -57.177  1.00  0.00    -0.173 NA
HETATM   10  C   UNL     1     -44.072  58.161 -56.907  1.00  0.00     0.101 A 
ENDROOT
BRANCH   1  11
HETATM   11  C   UNL     1     -42.929  56.105 -54.502  1.00  0.00    -0.028 A 
HETATM   12  C   UNL     1     -42.954  54.693 -54.465  1.00  0.00     0.046 A 
HETATM   13  C   UNL     1     -41.774  53.946 -54.493  1.00  0.00     0.069 A 
HETATM   14  C   UNL     1     -40.550  54.610 -54.551  1.00  0.00     0.037 A 
HETATM   15  C   UNL     1     -40.499  56.002 -54.589  1.00  0.00     0.003 A 
HETATM   16  C   UNL     1     -41.680  56.744 -54.569  1.00  0.00     0.010 A 
BRANCH  13  17
HETATM   17  O   UNL     1     -41.684  52.581 -54.463  1.00  0.00    -0.348 OA
BRANCH  17  18
HETATM   18  C   UNL     1     -40.460  52.018 -53.995  1.00  0.00     0.202 C 
BRANCH  18  19
HETATM   19  C   UNL     1     -40.478  50.555 -54.326  1.00  0.00    -0.011 C 
HETATM   20  C   UNL     1     -39.391  49.774 -54.384  1.00  0.00     0.009 C 
ENDBRANCH  18  19
ENDBRANCH  17  18
ENDBRANCH  13  17
ENDBRANCH   1  11
BRANCH   2  21
HETATM   21  C   UNL     1     -44.615  57.357 -51.941  1.00  0.00     0.167 C 
BRANCH  21  22
HETATM   22  C   UNL     1     -43.482  56.690 -51.208  1.00  0.00    -0.023 A 
HETATM   23  C   UNL     1     -43.626  55.374 -50.772  1.00  0.00     0.125 A 
HETATM   24  N   UNL     1     -42.660  54.666 -50.142  1.00  0.00    -0.273 NA
HETATM   25  C   UNL     1     -41.479  55.287 -49.949  1.00  0.00     0.116 A 
HETATM   26  C   UNL     1     -41.220  56.583 -50.357  1.00  0.00     0.020 A 
HETATM   27  C   UNL     1     -42.232  57.287 -51.003  1.00  0.00     0.012 A 
ENDBRANCH  21  22
ENDBRANCH   2  21
BRANCH  10  28
HETATM   28  C   UNL     1     -44.244  57.198 -57.996  1.00  0.00     0.028 A 
HETATM   29  C   UNL     1     -45.339  57.272 -58.875  1.00  0.00     0.078 A 
HETATM   30  C   UNL     1     -45.493  56.362 -59.918  1.00  0.00     0.037 A 
HETATM   31  C   UNL     1     -44.564  55.338 -60.088  1.00  0.00     0.003 A 
HETATM   32  C   UNL     1     -43.488  55.225 -59.210  1.00  0.00     0.001 A 
HETATM   33  C   UNL     1     -43.330  56.146 -58.169  1.00  0.00     0.017 A 
BRANCH  29  34
HETATM   34  O   UNL     1     -46.318  58.225 -58.748  1.00  0.00    -0.360 OA
HETATM   35  H   UNL     1     -46.610  58.437 -59.664  1.00  0.00     0.217 HD
ENDBRANCH  29  34
ENDBRANCH  10  28
TORSDOF 8
ENDMDL
MODEL 4
REMARK VINA RESULT:      -7.9      2.466      6.557
REMARK  8 active torsions:
REMARK  status: ('A' for Active; 'I' for Inactive)
REMARK    1  A    between atoms: C_2  and  C_3 
REMARK    2  A    between atoms: C_3  and  O_4 
REMARK    3  A    between atoms: O_4  and  C_5 
REMARK    4  A    between atoms: C_7  and  C_8 
REMARK    5  A    between atoms: N_9  and  C_10 
REMARK    6  A    between atoms: C_10  and  C_11 
REMARK    7  A    between atoms: C_24  and  C_25 
REMARK    8  A    between atoms: C_26  and  O_27 
ROOT
HETATM    1  C   UNL     1     -42.294  56.868 -54.547  1.00  0.00     0.159 A 
HETATM    2  N   UNL     1     -43.406  56.716 -55.528  1.00  0.00    -0.329 N 
HETATM    3  C   UNL     1     -44.480  57.587 -55.315  1.00  0.00     0.273 A 
HETATM    4  O   UNL     1     -45.514  57.688 -55.950  1.00  0.00    -0.266 OA
HETATM    5  C   UNL     1     -44.056  58.364 -54.216  1.00  0.00     0.129 A 
HETATM    6  C   UNL     1     -42.812  58.022 -53.773  1.00  0.00     0.034 A 
HETATM    7  N   UNL     1     -44.494  59.392 -53.475  1.00  0.00    -0.272 N 
HETATM    8  H   UNL     1     -45.375  59.894 -53.530  1.00  0.00     0.189 HD
HETATM    9  N   UNL     1     -43.570  59.767 -52.554  1.00  0.00    -0.173 NA
HETATM   10  C   UNL     1     -42.495  58.965 -52.781  1.00  0.00     0.101 A 
ENDROOT
BRANCH   1  11
HETATM   11  C   UNL     1     -42.178  55.711 -53.574  1.00  0.00    -0.028 A 
HETATM   12  C   UNL     1     -40.973  54.997 -53.390  1.00  0.00     0.046 A 
HETATM   13  C   UNL     1     -40.898  53.919 -52.506  1.00  0.00     0.069 A 
HETATM   14  C   UNL     1     -42.037  53.539 -51.797  1.00  0.00     0.037 A 
HETATM   15  C   UNL     1     -43.237  54.228 -51.963  1.00  0.00     0.003 A 
HETATM   16  C   UNL     1     -43.306  55.309 -52.841  1.00  0.00     0.010 A 
BRANCH  13  17
HETATM   17  O   UNL     1     -39.787  53.162 -52.250  1.00  0.00    -0.348 OA
BRANCH  17  18
HETATM   18  C   UNL     1     -39.911  51.749 -52.396  1.00  0.00     0.202 C 
BRANCH  18  19
HETATM   19  C   UNL     1     -39.844  51.439 -53.862  1.00  0.00    -0.011 C 
HETATM   20  C   UNL     1     -39.839  50.203 -54.379  1.00  0.00     0.009 C 
ENDBRANCH  18  19
ENDBRANCH  17  18
ENDBRANCH  13  17
ENDBRANCH   1  11
BRANCH   2  21
HETATM   21  C   UNL     1     -43.306  55.851 -56.686  1.00  0.00     0.167 C 
BRANCH  21  22
HETATM   22  C   UNL     1     -42.814  56.542 -57.930  1.00  0.00    -0.023 A 
HETATM   23  C   UNL     1     -42.924  55.899 -59.161  1.00  0.00     0.125 A 
HETATM   24  N   UNL     1     -42.553  56.440 -60.344  1.00  0.00    -0.273 NA
HETATM   25  C   UNL     1     -42.064  57.697 -60.310  1.00  0.00     0.116 A 
HETATM   26  C   UNL     1     -41.929  58.434 -59.148  1.00  0.00     0.020 A 
HETATM   27  C   UNL     1     -42.319  57.851 -57.946  1.00  0.00     0.012 A 
ENDBRANCH  21  22
ENDBRANCH   2  21
BRANCH  10  28
HETATM   28  C   UNL     1     -41.252  59.161 -52.032  1.00  0.00     0.028 A 
HETATM   29  C   UNL     1     -41.263  59.592 -50.694  1.00  0.00     0.078 A 
HETATM   30  C   UNL     1     -40.080  59.764 -49.979  1.00  0.00     0.037 A 
HETATM   31  C   UNL     1     -38.854  59.534 -50.601  1.00  0.00     0.003 A 
HETATM   32  C   UNL     1     -38.818  59.138 -51.936  1.00  0.00     0.001 A 
HETATM   33  C   UNL     1     -40.008  58.955 -52.649  1.00  0.00     0.017 A 
BRANCH  29  34
HETATM   34  O   UNL     1     -42.426  59.880 -50.025  1.00  0.00    -0.360 OA
HETATM   35  H   UNL     1     -42.385  59.376 -49.181  1.00  0.00     0.217 HD
ENDBRANCH  29  34
ENDBRANCH  10  28
TORSDOF 8
ENDMDL
MODEL 5
REMARK VINA RESULT:      -7.8      2.816      7.081
REMARK  8 active torsions:
REMARK  status: ('A' for Active; 'I' for Inactive)
REMARK    1  A    between atoms: C_2  and  C_3 
REMARK    2  A    between atoms: C_3  and  O_4 
REMARK    3  A    between atoms: O_4  and  C_5 
REMARK    4  A    between atoms: C_7  and  C_8 
REMARK    5  A    between atoms: N_9  and  C_10 
REMARK    6  A    between atoms: C_10  and  C_11 
REMARK    7  A    between atoms: C_24  and  C_25 
REMARK    8  A    between atoms: C_26  and  O_27 
ROOT
HETATM    1  C   UNL     1     -42.516  57.819 -55.670  1.00  0.00     0.159 A 
HETATM    2  N   UNL     1     -43.249  57.991 -56.957  1.00  0.00    -0.329 N 
HETATM    3  C   UNL     1     -44.479  58.646 -56.832  1.00  0.00     0.273 A 
HETATM    4  O   UNL     1     -45.285  58.922 -57.702  1.00  0.00    -0.266 OA
HETATM    5  C   UNL     1     -44.541  58.963 -55.458  1.00  0.00     0.129 A 
HETATM    6  C   UNL     1     -43.438  58.551 -54.768  1.00  0.00     0.034 A 
HETATM    7  N   UNL     1     -45.355  59.596 -54.602  1.00  0.00    -0.272 N 
HETATM    8  H   UNL     1     -46.259  60.027 -54.774  1.00  0.00     0.189 HD
HETATM    9  N   UNL     1     -44.823  59.641 -53.354  1.00  0.00    -0.173 NA
HETATM   10  C   UNL     1     -43.600  59.055 -53.467  1.00  0.00     0.101 A 
ENDROOT
BRANCH   1  11
HETATM   11  C   UNL     1     -42.478  56.385 -55.179  1.00  0.00    -0.028 A 
HETATM   12  C   UNL     1     -41.298  55.609 -55.205  1.00  0.00     0.046 A 
HETATM   13  C   UNL     1     -41.293  54.282 -54.770  1.00  0.00     0.069 A 
HETATM   14  C   UNL     1     -42.479  53.714 -54.307  1.00  0.00     0.037 A 
HETATM   15  C   UNL     1     -43.656  54.460 -54.271  1.00  0.00     0.003 A 
HETATM   16  C   UNL     1     -43.654  55.787 -54.699  1.00  0.00     0.010 A 
BRANCH  13  17
HETATM   17  O   UNL     1     -40.212  53.444 -54.750  1.00  0.00    -0.348 OA
BRANCH  17  18
HETATM   18  C   UNL     1     -40.187  52.434 -53.743  1.00  0.00     0.202 C 
BRANCH  18  19
HETATM   19  C   UNL     1     -40.196  51.104 -54.435  1.00  0.00    -0.011 C 
HETATM   20  C   UNL     1     -39.604  49.997 -53.967  1.00  0.00     0.009 C 
ENDBRANCH  18  19
ENDBRANCH  17  18
ENDBRANCH  13  17
ENDBRANCH   1  11
BRANCH   2  21
HETATM   21  C   UNL     1     -42.661  57.648 -58.236  1.00  0.00     0.167 C 
BRANCH  21  22
HETATM   22  C   UNL     1     -43.397  56.566 -58.981  1.00  0.00    -0.023 A 
HETATM   23  C   UNL     1     -43.861  56.814 -60.270  1.00  0.00     0.125 A 
HETATM   24  N   UNL     1     -44.497  55.904 -61.044  1.00  0.00    -0.273 NA
HETATM   25  C   UNL     1     -44.666  54.673 -60.520  1.00  0.00     0.116 A 
HETATM   26  C   UNL     1     -44.229  54.312 -59.258  1.00  0.00     0.020 A 
HETATM   27  C   UNL     1     -43.578  55.269 -58.485  1.00  0.00     0.012 A 
ENDBRANCH  21  22
ENDBRANCH   2  21
BRANCH  10  28
HETATM   28  C   UNL     1     -42.686  59.020 -52.324  1.00  0.00     0.028 A 
HETATM   29  C   UNL     1     -42.379  60.182 -51.595  1.00  0.00     0.078 A 
HETATM   30  C   UNL     1     -41.519  60.143 -50.500  1.00  0.00     0.037 A 
HETATM   31  C   UNL     1     -40.924  58.939 -50.127  1.00  0.00     0.003 A 
HETATM   32  C   UNL     1     -41.188  57.781 -50.855  1.00  0.00     0.001 A 
HETATM   33  C   UNL     1     -42.061  57.820 -51.948  1.00  0.00     0.017 A 
BRANCH  29  34
HETATM   34  O   UNL     1     -42.890  61.412 -51.924  1.00  0.00    -0.360 OA
HETATM   35  H   UNL     1     -42.525  62.043 -51.263  1.00  0.00     0.217 HD
ENDBRANCH  29  34
ENDBRANCH  10  28
TORSDOF 8
ENDMDL
MODEL 6
REMARK VINA RESULT:      -7.5      1.954      7.111
REMARK  8 active torsions:
REMARK  status: ('A' for Active; 'I' for Inactive)
REMARK    1  A    between atoms: C_2  and  C_3 
REMARK    2  A    between atoms: C_3  and  O_4 
REMARK    3  A    between atoms: O_4  and  C_5 
REMARK    4  A    between atoms: C_7  and  C_8 
REMARK    5  A    between atoms: N_9  and  C_10 
REMARK    6  A    between atoms: C_10  and  C_11 
REMARK    7  A    between atoms: C_24  and  C_25 
REMARK    8  A    between atoms: C_26  and  O_27 
ROOT
HETATM    1  C   UNL     1     -41.681  57.054 -54.579  1.00  0.00     0.159 A 
HETATM    2  N   UNL     1     -41.726  55.579 -54.789  1.00  0.00    -0.329 N 
HETATM    3  C   UNL     1     -43.019  55.048 -54.850  1.00  0.00     0.273 A 
HETATM    4  O   UNL     1     -43.358  53.890 -55.010  1.00  0.00    -0.266 OA
HETATM    5  C   UNL     1     -43.844  56.188 -54.736  1.00  0.00     0.129 A 
HETATM    6  C   UNL     1     -43.134  57.347 -54.620  1.00  0.00     0.034 A 
HETATM    7  N   UNL     1     -45.148  56.497 -54.745  1.00  0.00    -0.272 N 
HETATM    8  H   UNL     1     -45.954  55.882 -54.816  1.00  0.00     0.189 HD
HETATM    9  N   UNL     1     -45.339  57.838 -54.659  1.00  0.00    -0.173 NA
HETATM   10  C   UNL     1     -44.090  58.376 -54.652  1.00  0.00     0.101 A 
ENDROOT
BRANCH   1  11
HETATM   11  C   UNL     1     -41.197  57.459 -53.201  1.00  0.00    -0.028 A 
HETATM   12  C   UNL     1     -41.576  56.760 -52.032  1.00  0.00     0.046 A 
HETATM   13  C   UNL     1     -41.137  57.167 -50.770  1.00  0.00     0.069 A 
HETATM   14  C   UNL     1     -40.315  58.288 -50.665  1.00  0.00     0.037 A 
HETATM   15  C   UNL     1     -39.928  58.993 -51.802  1.00  0.00     0.003 A 
HETATM   16  C   UNL     1     -40.362  58.579 -53.061  1.00  0.00     0.010 A 
BRANCH  13  17
HETATM   17  O   UNL     1     -41.440  56.565 -49.579  1.00  0.00    -0.348 OA
BRANCH  17  18
HETATM   18  C   UNL     1     -41.614  55.150 -49.588  1.00  0.00     0.202 C 
BRANCH  18  19
HETATM   19  C   UNL     1     -40.372  54.537 -49.012  1.00  0.00    -0.011 C 
HETATM   20  C   UNL     1     -40.326  53.841 -47.869  1.00  0.00     0.009 C 
ENDBRANCH  18  19
ENDBRANCH  17  18
ENDBRANCH  13  17
ENDBRANCH   1  11
BRANCH   2  21
HETATM   21  C   UNL     1     -40.536  54.798 -55.059  1.00  0.00     0.167 C 
BRANCH  21  22
HETATM   22  C   UNL     1     -40.346  53.625 -54.133  1.00  0.00    -0.023 A 
HETATM   23  C   UNL     1     -40.058  52.370 -54.665  1.00  0.00     0.125 A 
HETATM   24  N   UNL     1     -39.829  51.259 -53.927  1.00  0.00    -0.273 NA
HETATM   25  C   UNL     1     -39.867  51.402 -52.587  1.00  0.00     0.116 A 
HETATM   26  C   UNL     1     -40.126  52.604 -51.952  1.00  0.00     0.020 A 
HETATM   27  C   UNL     1     -40.357  53.730 -52.737  1.00  0.00     0.012 A 
ENDBRANCH  21  22
ENDBRANCH   2  21
BRANCH  10  28
HETATM   28  C   UNL     1     -43.908  59.829 -54.673  1.00  0.00     0.028 A 
HETATM   29  C   UNL     1     -44.260  60.596 -55.798  1.00  0.00     0.078 A 
HETATM   30  C   UNL     1     -44.098  61.979 -55.810  1.00  0.00     0.037 A 
HETATM   31  C   UNL     1     -43.551  62.623 -54.702  1.00  0.00     0.003 A 
HETATM   32  C   UNL     1     -43.164  61.880 -53.589  1.00  0.00     0.001 A 
HETATM   33  C   UNL     1     -43.338  60.492 -53.575  1.00  0.00     0.017 A 
BRANCH  29  34
HETATM   34  O   UNL     1     -44.765  60.032 -56.942  1.00  0.00    -0.360 OA
HETATM   35  H   UNL     1     -44.966  60.781 -57.547  1.00  0.00     0.217 HD
ENDBRANCH  29  34
ENDBRANCH  10  28
TORSDOF 8
ENDMDL
MODEL 7
REMARK VINA RESULT:      -7.4      2.384      6.665
REMARK  8 active torsions:
REMARK  status: ('A' for Active; 'I' for Inactive)
REMARK    1  A    between atoms: C_2  and  C_3 
REMARK    2  A    between atoms: C_3  and  O_4 
REMARK    3  A    between atoms: O_4  and  C_5 
REMARK    4  A    between atoms: C_7  and  C_8 
REMARK    5  A    between atoms: N_9  and  C_10 
REMARK    6  A    between atoms: C_10  and  C_11 
REMARK    7  A    between atoms: C_24  and  C_25 
REMARK    8  A    between atoms: C_26  and  O_27 
ROOT
HETATM    1  C   UNL     1     -41.604  56.537 -52.853  1.00  0.00     0.159 A 
HETATM    2  N   UNL     1     -41.917  55.309 -52.068  1.00  0.00    -0.329 N 
HETATM    3  C   UNL     1     -43.152  54.730 -52.377  1.00  0.00     0.273 A 
HETATM    4  O   UNL     1     -43.665  53.734 -51.902  1.00  0.00    -0.266 OA
HETATM    5  C   UNL     1     -43.642  55.547 -53.419  1.00  0.00     0.129 A 
HETATM    6  C   UNL     1     -42.786  56.557 -53.749  1.00  0.00     0.034 A 
HETATM    7  N   UNL     1     -44.703  55.618 -54.234  1.00  0.00    -0.272 N 
HETATM    8  H   UNL     1     -45.529  55.027 -54.268  1.00  0.00     0.189 HD
HETATM    9  N   UNL     1     -44.579  56.638 -55.122  1.00  0.00    -0.173 NA
HETATM   10  C   UNL     1     -43.357  57.181 -54.871  1.00  0.00     0.101 A 
ENDROOT
BRANCH   1  11
HETATM   11  C   UNL     1     -41.659  57.812 -52.036  1.00  0.00    -0.028 A 
HETATM   12  C   UNL     1     -42.880  58.403 -51.639  1.00  0.00     0.046 A 
HETATM   13  C   UNL     1     -42.905  59.592 -50.907  1.00  0.00     0.069 A 
HETATM   14  C   UNL     1     -41.701  60.209 -50.569  1.00  0.00     0.037 A 
HETATM   15  C   UNL     1     -40.485  59.645 -50.949  1.00  0.00     0.003 A 
HETATM   16  C   UNL     1     -40.464  58.454 -51.673  1.00  0.00     0.010 A 
BRANCH  13  17
HETATM   17  O   UNL     1     -44.025  60.247 -50.471  1.00  0.00    -0.348 OA
BRANCH  17  18
HETATM   18  C   UNL     1     -45.274  59.574 -50.621  1.00  0.00     0.202 C 
BRANCH  18  19
HETATM   19  C   UNL     1     -46.071  60.324 -51.647  1.00  0.00    -0.011 C 
HETATM   20  C   UNL     1     -45.787  60.359 -52.956  1.00  0.00     0.009 C 
ENDBRANCH  18  19
ENDBRANCH  17  18
ENDBRANCH  13  17
ENDBRANCH   1  11
BRANCH   2  21
HETATM   21  C   UNL     1     -40.954  54.691 -51.178  1.00  0.00     0.167 C 
BRANCH  21  22
HETATM   22  C   UNL     1     -40.429  53.366 -51.664  1.00  0.00    -0.023 A 
HETATM   23  C   UNL     1     -40.218  52.335 -50.751  1.00  0.00     0.125 A 
HETATM   24  N   UNL     1     -39.789  51.095 -51.081  1.00  0.00    -0.273 NA
HETATM   25  C   UNL     1     -39.576  50.855 -52.391  1.00  0.00     0.116 A 
HETATM   26  C   UNL     1     -39.772  51.798 -53.384  1.00  0.00     0.020 A 
HETATM   27  C   UNL     1     -40.214  53.065 -53.014  1.00  0.00     0.012 A 
ENDBRANCH  21  22
ENDBRANCH   2  21
BRANCH  10  28
HETATM   28  C   UNL     1     -42.833  58.254 -55.718  1.00  0.00     0.028 A 
HETATM   29  C   UNL     1     -42.396  58.003 -57.031  1.00  0.00     0.078 A 
HETATM   30  C   UNL     1     -41.910  59.029 -57.840  1.00  0.00     0.037 A 
HETATM   31  C   UNL     1     -41.827  60.326 -57.339  1.00  0.00     0.003 A 
HETATM   32  C   UNL     1     -42.223  60.592 -56.030  1.00  0.00     0.001 A 
HETATM   33  C   UNL     1     -42.721  59.562 -55.223  1.00  0.00     0.017 A 
BRANCH  29  34
HETATM   34  O   UNL     1     -42.407  56.747 -57.581  1.00  0.00    -0.360 OA
HETATM   35  H   UNL     1     -41.514  56.370 -57.415  1.00  0.00     0.217 HD
ENDBRANCH  29  34
ENDBRANCH  10  28
TORSDOF 8
ENDMDL
MODEL 8
REMARK VINA RESULT:      -7.4      2.875      6.267
REMARK  8 active torsions:
REMARK  status: ('A' for Active; 'I' for Inactive)
REMARK    1  A    between atoms: C_2  and  C_3 
REMARK    2  A    between atoms: C_3  and  O_4 
REMARK    3  A    between atoms: O_4  and  C_5 
REMARK    4  A    between atoms: C_7  and  C_8 
REMARK    5  A    between atoms: N_9  and  C_10 
REMARK    6  A    between atoms: C_10  and  C_11 
REMARK    7  A    between atoms: C_24  and  C_25 
REMARK    8  A    between atoms: C_26  and  O_27 
ROOT
HETATM    1  C   UNL     1     -42.285  57.249 -55.217  1.00  0.00     0.159 A 
HETATM    2  N   UNL     1     -43.401  57.173 -56.202  1.00  0.00    -0.329 N 
HETATM    3  C   UNL     1     -44.570  57.826 -55.795  1.00  0.00     0.273 A 
HETATM    4  O   UNL     1     -45.629  57.928 -56.386  1.00  0.00    -0.266 OA
HETATM    5  C   UNL     1     -44.211  58.390 -54.551  1.00  0.00     0.129 A 
HETATM    6  C   UNL     1     -42.919  58.124 -54.201  1.00  0.00     0.034 A 
HETATM    7  N   UNL     1     -44.751  59.160 -53.597  1.00  0.00    -0.272 N 
HETATM    8  H   UNL     1     -45.691  59.541 -53.534  1.00  0.00     0.189 HD
HETATM    9  N   UNL     1     -43.852  59.441 -52.619  1.00  0.00    -0.173 NA
HETATM   10  C   UNL     1     -42.692  58.858 -53.025  1.00  0.00     0.101 A 
ENDROOT
BRANCH   1  11
HETATM   11  C   UNL     1     -41.990  55.932 -54.529  1.00  0.00    -0.028 A 
HETATM   12  C   UNL     1     -42.739  55.474 -53.422  1.00  0.00     0.046 A 
HETATM   13  C   UNL     1     -42.433  54.267 -52.788  1.00  0.00     0.069 A 
HETATM   14  C   UNL     1     -41.363  53.506 -53.256  1.00  0.00     0.037 A 
HETATM   15  C   UNL     1     -40.609  53.937 -54.346  1.00  0.00     0.003 A 
HETATM   16  C   UNL     1     -40.924  55.138 -54.981  1.00  0.00     0.010 A 
BRANCH  13  17
HETATM   17  O   UNL     1     -43.090  53.730 -51.715  1.00  0.00    -0.348 OA
BRANCH  17  18
HETATM   18  C   UNL     1     -43.337  54.590 -50.604  1.00  0.00     0.202 C 
BRANCH  18  19
HETATM   19  C   UNL     1     -42.045  54.748 -49.859  1.00  0.00    -0.011 C 
HETATM   20  C   UNL     1     -41.326  55.878 -49.812  1.00  0.00     0.009 C 
ENDBRANCH  18  19
ENDBRANCH  17  18
ENDBRANCH  13  17
ENDBRANCH   1  11
BRANCH   2  21
HETATM   21  C   UNL     1     -43.231  56.607 -57.525  1.00  0.00     0.167 C 
BRANCH  21  22
HETATM   22  C   UNL     1     -43.091  57.631 -58.620  1.00  0.00    -0.023 A 
HETATM   23  C   UNL     1     -44.072  57.721 -59.605  1.00  0.00     0.125 A 
HETATM   24  N   UNL     1     -44.068  58.628 -60.610  1.00  0.00    -0.273 NA
HETATM   25  C   UNL     1     -43.047  59.509 -60.628  1.00  0.00     0.116 A 
HETATM   26  C   UNL     1     -42.030  59.523 -59.690  1.00  0.00     0.020 A 
HETATM   27  C   UNL     1     -42.061  58.578 -58.669  1.00  0.00     0.012 A 
ENDBRANCH  21  22
ENDBRANCH   2  21
BRANCH  10  28
HETATM   28  C   UNL     1     -41.460  59.045 -52.257  1.00  0.00     0.028 A 
HETATM   29  C   UNL     1     -41.490  59.432 -50.905  1.00  0.00     0.078 A 
HETATM   30  C   UNL     1     -40.316  59.596 -50.173  1.00  0.00     0.037 A 
HETATM   31  C   UNL     1     -39.082  59.402 -50.789  1.00  0.00     0.003 A 
HETATM   32  C   UNL     1     -39.026  59.050 -52.136  1.00  0.00     0.001 A 
HETATM   33  C   UNL     1     -40.207  58.875 -52.867  1.00  0.00     0.017 A 
BRANCH  29  34
HETATM   34  O   UNL     1     -42.663  59.683 -50.240  1.00  0.00    -0.360 OA
HETATM   35  H   UNL     1     -43.159  58.833 -50.234  1.00  0.00     0.217 HD
ENDBRANCH  29  34
ENDBRANCH  10  28
TORSDOF 8
ENDMDL
MODEL 9
REMARK VINA RESULT:      -7.4      2.436      4.833
REMARK  8 active torsions:
REMARK  status: ('A' for Active; 'I' for Inactive)
REMARK    1  A    between atoms: C_2  and  C_3 
REMARK    2  A    between atoms: C_3  and  O_4 
REMARK    3  A    between atoms: O_4  and  C_5 
REMARK    4  A    between atoms: C_7  and  C_8 
REMARK    5  A    between atoms: N_9  and  C_10 
REMARK    6  A    between atoms: C_10  and  C_11 
REMARK    7  A    between atoms: C_24  and  C_25 
REMARK    8  A    between atoms: C_26  and  O_27 
ROOT
HETATM    1  C   UNL     1     -40.843  56.702 -53.007  1.00  0.00     0.159 A 
HETATM    2  N   UNL     1     -40.935  57.963 -52.217  1.00  0.00    -0.329 N 
HETATM    3  C   UNL     1     -41.240  57.770 -50.865  1.00  0.00     0.273 A 
HETATM    4  O   UNL     1     -41.378  58.605 -49.990  1.00  0.00    -0.266 OA
HETATM    5  C   UNL     1     -41.295  56.365 -50.741  1.00  0.00     0.129 A 
HETATM    6  C   UNL     1     -41.039  55.718 -51.915  1.00  0.00     0.034 A 
HETATM    7  N   UNL     1     -41.489  55.440 -49.790  1.00  0.00    -0.272 N 
HETATM    8  H   UNL     1     -41.702  55.567 -48.805  1.00  0.00     0.189 HD
HETATM    9  N   UNL     1     -41.351  54.184 -50.286  1.00  0.00    -0.173 NA
HETATM   10  C   UNL     1     -41.002  54.352 -51.589  1.00  0.00     0.101 A 
ENDROOT
BRANCH   1  11
HETATM   11  C   UNL     1     -41.990  56.506 -53.977  1.00  0.00    -0.028 A 
HETATM   12  C   UNL     1     -41.783  56.188 -55.338  1.00  0.00     0.046 A 
HETATM   13  C   UNL     1     -42.856  56.036 -56.218  1.00  0.00     0.069 A 
HETATM   14  C   UNL     1     -44.156  56.208 -55.743  1.00  0.00     0.037 A 
HETATM   15  C   UNL     1     -44.385  56.522 -54.405  1.00  0.00     0.003 A 
HETATM   16  C   UNL     1     -43.311  56.665 -53.527  1.00  0.00     0.010 A 
BRANCH  13  17
HETATM   17  O   UNL     1     -42.770  55.728 -57.549  1.00  0.00    -0.348 OA
BRANCH  17  18
HETATM   18  C   UNL     1     -43.444  56.591 -58.463  1.00  0.00     0.202 C 
BRANCH  18  19
HETATM   19  C   UNL     1     -42.414  57.490 -59.079  1.00  0.00    -0.011 C 
HETATM   20  C   UNL     1     -41.923  58.595 -58.502  1.00  0.00     0.009 C 
ENDBRANCH  18  19
ENDBRANCH  17  18
ENDBRANCH  13  17
ENDBRANCH   1  11
BRANCH   2  21
HETATM   21  C   UNL     1     -40.587  59.254 -52.773  1.00  0.00     0.167 C 
BRANCH  21  22
HETATM   22  C   UNL     1     -41.721  59.944 -53.483  1.00  0.00    -0.023 A 
HETATM   23  C   UNL     1     -42.598  60.748 -52.758  1.00  0.00     0.125 A 
HETATM   24  N   UNL     1     -43.624  61.446 -53.299  1.00  0.00    -0.273 NA
HETATM   25  C   UNL     1     -43.779  61.358 -54.636  1.00  0.00     0.116 A 
HETATM   26  C   UNL     1     -42.957  60.605 -55.455  1.00  0.00     0.020 A 
HETATM   27  C   UNL     1     -41.910  59.899 -54.870  1.00  0.00     0.012 A 
ENDBRANCH  21  22
ENDBRANCH   2  21
BRANCH  10  28
HETATM   28  C   UNL     1     -40.664  53.196 -52.422  1.00  0.00     0.028 A 
HETATM   29  C   UNL     1     -39.995  52.080 -51.889  1.00  0.00     0.078 A 
HETATM   30  C   UNL     1     -39.687  50.975 -52.681  1.00  0.00     0.037 A 
HETATM   31  C   UNL     1     -40.018  50.978 -54.034  1.00  0.00     0.003 A 
HETATM   32  C   UNL     1     -40.652  52.087 -54.591  1.00  0.00     0.001 A 
HETATM   33  C   UNL     1     -40.970  53.190 -53.792  1.00  0.00     0.017 A 
BRANCH  29  34
HETATM   34  O   UNL     1     -39.598  52.018 -50.578  1.00  0.00    -0.360 OA
HETATM   35  H   UNL     1     -39.585  52.948 -50.255  1.00  0.00     0.217 HD
ENDBRANCH  29  34
ENDBRANCH  10  28
TORSDOF 8
ENDMDL
MODEL 10
REMARK VINA RESULT:      -7.2      2.590      5.748
REMARK  8 active torsions:
REMARK  status: ('A' for Active; 'I' for Inactive)
REMARK    1  A    between atoms: C_2  and  C_3 
REMARK    2  A    between atoms: C_3  and  O_4 
REMARK    3  A    between atoms: O_4  and  C_5 
REMARK    4  A    between atoms: C_7  and  C_8 
REMARK    5  A    between atoms: N_9  and  C_10 
REMARK    6  A    between atoms: C_10  and  C_11 
REMARK    7  A    between atoms: C_24  and  C_25 
REMARK    8  A    between atoms: C_26  and  O_27 
ROOT
HETATM    1  C   UNL     1     -42.476  57.971 -53.284  1.00  0.00     0.159 A 
HETATM    2  N   UNL     1     -43.308  59.145 -53.672  1.00  0.00    -0.329 N 
HETATM    3  C   UNL     1     -44.538  59.219 -53.009  1.00  0.00     0.273 A 
HETATM    4  O   UNL     1     -45.414  60.056 -53.122  1.00  0.00    -0.266 OA
HETATM    5  C   UNL     1     -44.500  58.115 -52.130  1.00  0.00     0.129 A 
HETATM    6  C   UNL     1     -43.340  57.403 -52.221  1.00  0.00     0.034 A 
HETATM    7  N   UNL     1     -45.259  57.554 -51.178  1.00  0.00    -0.272 N 
HETATM    8  H   UNL     1     -46.182  57.823 -50.850  1.00  0.00     0.189 HD
HETATM    9  N   UNL     1     -44.633  56.493 -50.607  1.00  0.00    -0.173 NA
HETATM   10  C   UNL     1     -43.412  56.438 -51.203  1.00  0.00     0.101 A 
ENDROOT
BRANCH   1  11
HETATM   11  C   UNL     1     -42.371  56.915 -54.366  1.00  0.00    -0.028 A 
HETATM   12  C   UNL     1     -41.338  55.951 -54.384  1.00  0.00     0.046 A 
HETATM   13  C   UNL     1     -41.248  55.003 -55.405  1.00  0.00     0.069 A 
HETATM   14  C   UNL     1     -42.194  55.015 -56.429  1.00  0.00     0.037 A 
HETATM   15  C   UNL     1     -43.222  55.955 -56.434  1.00  0.00     0.003 A 
HETATM   16  C   UNL     1     -43.313  56.895 -55.407  1.00  0.00     0.010 A 
BRANCH  13  17
HETATM   17  O   UNL     1     -40.295  54.028 -55.519  1.00  0.00    -0.348 OA
BRANCH  17  18
HETATM   18  C   UNL     1     -39.924  53.336 -54.328  1.00  0.00     0.202 C 
BRANCH  18  19
HETATM   19  C   UNL     1     -40.615  52.005 -54.344  1.00  0.00    -0.011 C 
HETATM   20  C   UNL     1     -40.019  50.834 -54.085  1.00  0.00     0.009 C 
ENDBRANCH  18  19
ENDBRANCH  17  18
ENDBRANCH  13  17
ENDBRANCH   1  11
BRANCH   2  21
HETATM   21  C   UNL     1     -42.814  60.193 -54.542  1.00  0.00     0.167 C 
BRANCH  21  22
HETATM   22  C   UNL     1     -43.071  59.950 -56.005  1.00  0.00    -0.023 A 
HETATM   23  C   UNL     1     -44.366  60.076 -56.505  1.00  0.00     0.125 A 
HETATM   24  N   UNL     1     -44.704  59.921 -57.806  1.00  0.00    -0.273 NA
HETATM   25  C   UNL     1     -43.701  59.646 -58.665  1.00  0.00     0.116 A 
HETATM   26  C   UNL     1     -42.378  59.518 -58.282  1.00  0.00     0.020 A 
HETATM   27  C   UNL     1     -42.061  59.683 -56.936  1.00  0.00     0.012 A 
ENDBRANCH  21  22
ENDBRANCH   2  21
BRANCH  10  28
HETATM   28  C   UNL     1     -42.412  55.466 -50.756  1.00  0.00     0.028 A 
HETATM   29  C   UNL     1     -41.419  55.813 -49.823  1.00  0.00     0.078 A 
HETATM   30  C   UNL     1     -40.476  54.882 -49.390  1.00  0.00     0.037 A 
HETATM   31  C   UNL     1     -40.492  53.588 -49.905  1.00  0.00     0.003 A 
HETATM   32  C   UNL     1     -41.447  53.231 -50.856  1.00  0.00     0.001 A 
HETATM   33  C   UNL     1     -42.399  54.164 -51.281  1.00  0.00     0.017 A 
BRANCH  29  34
HETATM   34  O   UNL     1     -41.311  57.077 -49.302  1.00  0.00    -0.360 OA
HETATM   35  H   UNL     1     -41.492  56.989 -48.339  1.00  0.00     0.217 HD
ENDBRANCH  29  34
ENDBRANCH  10  28
TORSDOF 8
ENDMDL
