MODEL 1
REMARK VINA RESULT:      -7.9      0.000      0.000
REMARK  8 active torsions:
REMARK  status: ('A' for Active; 'I' for Inactive)
REMARK    1  A    between atoms: C_2  and  N_3 
REMARK       I    between atoms: N_3  and  C_4 
REMARK       I    between atoms: C_4  and  N_5 
REMARK       I    between atoms: N_5  and  C_6 
REMARK    2  A    between atoms: C_6  and  C_7 
REMARK    3  A    between atoms: C_7  and  S_8 
REMARK    4  A    between atoms: C_7  and  C_29 
REMARK    5  A    between atoms: S_8  and  C_9 
REMARK    6  A    between atoms: N_10  and  C_11 
REMARK    7  A    between atoms: C_18  and  C_19 
REMARK    8  A    between atoms: C_19  and  N_20 
ROOT
HETATM    1  C   UNL     1     -42.553  55.356 -50.683  1.00  0.00     0.197 A 
HETATM    2  N   UNL     1     -41.735  54.801 -51.653  1.00  0.00    -0.274 N 
HETATM    3  C   UNL     1     -40.750  54.165 -50.907  1.00  0.00     0.161 A 
HETATM    4  N   UNL     1     -40.949  54.380 -49.618  1.00  0.00    -0.132 NA
HETATM    5  N   UNL     1     -42.070  55.129 -49.485  1.00  0.00    -0.122 NA
ENDROOT
BRANCH   1   6
HETATM    6  S   UNL     1     -44.143  55.990 -50.937  1.00  0.00    -0.071 SA
BRANCH   6   7
HETATM    7  C   UNL     1     -43.781  57.720 -51.454  1.00  0.00     0.175 C 
BRANCH   7   8
HETATM    8  C   UNL     1     -44.573  58.752 -50.626  1.00  0.00     0.224 C 
HETATM    9  N   UNL     1     -43.879  59.873 -50.205  1.00  0.00    -0.178 NA
HETATM   10  C   UNL     1     -44.503  61.074 -50.230  1.00  0.00     0.300 C 
HETATM   11  H   UNL     1     -43.024  59.990 -50.737  1.00  0.00     0.141 HD
HETATM   12  N   UNL     1     -45.421  61.363 -49.280  1.00  0.00    -0.348 N 
HETATM   13  O   UNL     1     -44.189  61.911 -51.074  1.00  0.00    -0.254 OA
HETATM   14  H   UNL     1     -45.793  62.302 -49.364  1.00  0.00     0.163 HD
HETATM   15  O   UNL     1     -45.703  58.470 -50.221  1.00  0.00    -0.278 OA
BRANCH  12  16
HETATM   16  C   UNL     1     -45.672  60.659 -48.036  1.00  0.00     0.119 C 
HETATM   17  C   UNL     1     -44.812  61.206 -46.914  1.00  0.00     0.026 C 
ENDBRANCH  12  16
ENDBRANCH   7   8
BRANCH   7  18
HETATM   18  C   UNL     1     -43.794  57.926 -52.970  1.00  0.00    -0.035 A 
HETATM   19  C   UNL     1     -44.721  57.299 -53.818  1.00  0.00     0.009 A 
HETATM   20  C   UNL     1     -44.709  57.533 -55.196  1.00  0.00     0.001 A 
HETATM   21  C   UNL     1     -43.766  58.391 -55.754  1.00  0.00     0.000 A 
HETATM   22  C   UNL     1     -42.835  59.021 -54.933  1.00  0.00     0.001 A 
HETATM   23  C   UNL     1     -42.852  58.796 -53.554  1.00  0.00     0.009 A 
ENDBRANCH   7  18
ENDBRANCH   6   7
ENDBRANCH   1   6
BRANCH   2  24
HETATM   24  C   UNL     1     -41.857  54.876 -53.063  1.00  0.00     0.043 A 
HETATM   25  C   UNL     1     -42.847  54.124 -53.714  1.00  0.00     0.033 A 
HETATM   26  C   UNL     1     -42.992  54.214 -55.101  1.00  0.00     0.044 A 
HETATM   27  C   UNL     1     -42.148  55.040 -55.829  1.00  0.00     0.116 A 
HETATM   28  F   UNL     1     -42.289  55.128 -57.158  1.00  0.00    -0.206 F 
HETATM   29  C   UNL     1     -41.151  55.775 -55.198  1.00  0.00     0.044 A 
HETATM   30  C   UNL     1     -40.998  55.692 -53.812  1.00  0.00     0.033 A 
ENDBRANCH   2  24
BRANCH   3  31
HETATM   31  C   UNL     1     -39.545  53.441 -51.388  1.00  0.00     0.315 C 
BRANCH  31  32
HETATM   32  N   UNL     1     -39.975  52.166 -52.109  1.00  0.00    -0.064 N 
HETATM   33  H   UNL     1     -41.001  52.141 -51.965  1.00  0.00     0.280 HD
HETATM   34  C   UNL     1     -39.762  52.253 -53.602  1.00  0.00     0.235 C 
HETATM   35  C   UNL     1     -40.408  51.052 -54.275  1.00  0.00     0.028 C 
HETATM   36  C   UNL     1     -39.886  49.741 -53.697  1.00  0.00     0.003 C 
HETATM   37  C   UNL     1     -40.039  49.702 -52.180  1.00  0.00     0.028 C 
HETATM   38  C   UNL     1     -39.403  50.914 -51.511  1.00  0.00     0.235 C 
ENDBRANCH  31  32
ENDBRANCH   3  31
TORSDOF 8
ENDMDL
MODEL 2
REMARK VINA RESULT:      -7.8      3.093      5.960
REMARK  8 active torsions:
REMARK  status: ('A' for Active; 'I' for Inactive)
REMARK    1  A    between atoms: C_2  and  N_3 
REMARK       I    between atoms: N_3  and  C_4 
REMARK       I    between atoms: C_4  and  N_5 
REMARK       I    between atoms: N_5  and  C_6 
REMARK    2  A    between atoms: C_6  and  C_7 
REMARK    3  A    between atoms: C_7  and  S_8 
REMARK    4  A    between atoms: C_7  and  C_29 
REMARK    5  A    between atoms: S_8  and  C_9 
REMARK    6  A    between atoms: N_10  and  C_11 
REMARK    7  A    between atoms: C_18  and  C_19 
REMARK    8  A    between atoms: C_19  and  N_20 
ROOT
HETATM    1  C   UNL     1     -41.912  58.969 -54.714  1.00  0.00     0.197 A 
HETATM    2  N   UNL     1     -42.031  57.826 -55.488  1.00  0.00    -0.274 N 
HETATM    3  C   UNL     1     -42.213  58.333 -56.770  1.00  0.00     0.161 A 
HETATM    4  N   UNL     1     -42.252  59.653 -56.733  1.00  0.00    -0.132 NA
HETATM    5  N   UNL     1     -42.071  60.044 -55.449  1.00  0.00    -0.122 NA
ENDROOT
BRANCH   1   6
HETATM    6  S   UNL     1     -41.331  59.036 -53.086  1.00  0.00    -0.071 SA
BRANCH   6   7
HETATM    7  C   UNL     1     -42.787  58.422 -52.140  1.00  0.00     0.175 C 
BRANCH   7   8
HETATM    8  C   UNL     1     -43.370  59.501 -51.206  1.00  0.00     0.224 C 
HETATM    9  N   UNL     1     -44.742  59.681 -51.249  1.00  0.00    -0.178 NA
HETATM   10  C   UNL     1     -45.407  59.907 -50.091  1.00  0.00     0.300 C 
HETATM   11  H   UNL     1     -45.198  58.886 -51.684  1.00  0.00     0.141 HD
HETATM   12  N   UNL     1     -45.328  61.125 -49.510  1.00  0.00    -0.348 N 
HETATM   13  O   UNL     1     -46.121  59.028 -49.613  1.00  0.00    -0.254 OA
HETATM   14  H   UNL     1     -45.898  61.201 -48.675  1.00  0.00     0.163 HD
HETATM   15  O   UNL     1     -42.610  60.268 -50.611  1.00  0.00    -0.278 OA
BRANCH  12  16
HETATM   16  C   UNL     1     -44.827  62.360 -50.085  1.00  0.00     0.119 C 
HETATM   17  C   UNL     1     -44.130  63.208 -49.039  1.00  0.00     0.026 C 
ENDBRANCH  12  16
ENDBRANCH   7   8
BRANCH   7  18
HETATM   18  C   UNL     1     -42.579  57.039 -51.519  1.00  0.00    -0.035 A 
HETATM   19  C   UNL     1     -43.637  56.155 -51.253  1.00  0.00     0.009 A 
HETATM   20  C   UNL     1     -43.398  54.891 -50.704  1.00  0.00     0.001 A 
HETATM   21  C   UNL     1     -42.100  54.492 -50.402  1.00  0.00     0.000 A 
HETATM   22  C   UNL     1     -41.036  55.353 -50.654  1.00  0.00     0.001 A 
HETATM   23  C   UNL     1     -41.272  56.612 -51.212  1.00  0.00     0.009 A 
ENDBRANCH   7  18
ENDBRANCH   6   7
ENDBRANCH   1   6
BRANCH   2  24
HETATM   24  C   UNL     1     -41.995  56.471 -55.077  1.00  0.00     0.043 A 
HETATM   25  C   UNL     1     -40.760  55.859 -54.811  1.00  0.00     0.033 A 
HETATM   26  C   UNL     1     -40.718  54.531 -54.378  1.00  0.00     0.044 A 
HETATM   27  C   UNL     1     -41.900  53.820 -54.223  1.00  0.00     0.116 A 
HETATM   28  F   UNL     1     -41.859  52.549 -53.805  1.00  0.00    -0.206 F 
HETATM   29  C   UNL     1     -43.128  54.409 -54.501  1.00  0.00     0.044 A 
HETATM   30  C   UNL     1     -43.181  55.736 -54.934  1.00  0.00     0.033 A 
ENDBRANCH   2  24
BRANCH   3  31
HETATM   31  C   UNL     1     -42.467  57.590 -58.032  1.00  0.00     0.315 C 
BRANCH  31  32
HETATM   32  N   UNL     1     -43.906  57.832 -58.480  1.00  0.00    -0.064 N 
HETATM   33  H   UNL     1     -43.891  58.808 -58.827  1.00  0.00     0.280 HD
HETATM   34  C   UNL     1     -44.289  56.971 -59.661  1.00  0.00     0.235 C 
HETATM   35  C   UNL     1     -45.644  57.415 -60.191  1.00  0.00     0.028 C 
HETATM   36  C   UNL     1     -46.705  57.391 -59.096  1.00  0.00     0.003 C 
HETATM   37  C   UNL     1     -46.269  58.202 -57.881  1.00  0.00     0.028 C 
HETATM   38  C   UNL     1     -44.905  57.764 -57.362  1.00  0.00     0.235 C 
ENDBRANCH  31  32
ENDBRANCH   3  31
TORSDOF 8
ENDMDL
MODEL 3
REMARK VINA RESULT:      -7.7      3.595      7.445
REMARK  8 active torsions:
REMARK  status: ('A' for Active; 'I' for Inactive)
REMARK    1  A    between atoms: C_2  and  N_3 
REMARK       I    between atoms: N_3  and  C_4 
REMARK       I    between atoms: C_4  and  N_5 
REMARK       I    between atoms: N_5  and  C_6 
REMARK    2  A    between atoms: C_6  and  C_7 
REMARK    3  A    between atoms: C_7  and  S_8 
REMARK    4  A    between atoms: C_7  and  C_29 
REMARK    5  A    between atoms: S_8  and  C_9 
REMARK    6  A    between atoms: N_10  and  C_11 
REMARK    7  A    between atoms: C_18  and  C_19 
REMARK    8  A    between atoms: C_19  and  N_20 
ROOT
HETATM    1  C   UNL     1     -43.364  56.001 -55.264  1.00  0.00     0.197 A 
HETATM    2  N   UNL     1     -43.673  57.027 -56.142  1.00  0.00    -0.274 N 
HETATM    3  C   UNL     1     -44.731  57.672 -55.513  1.00  0.00     0.161 A 
HETATM    4  N   UNL     1     -45.044  57.041 -54.394  1.00  0.00    -0.132 NA
HETATM    5  N   UNL     1     -44.194  55.997 -54.248  1.00  0.00    -0.122 NA
ENDROOT
BRANCH   1   6
HETATM    6  S   UNL     1     -41.925  55.040 -55.290  1.00  0.00    -0.071 SA
BRANCH   6   7
HETATM    7  C   UNL     1     -41.812  54.481 -53.539  1.00  0.00     0.175 C 
BRANCH   7   8
HETATM    8  C   UNL     1     -41.491  55.643 -52.578  1.00  0.00     0.224 C 
HETATM    9  N   UNL     1     -42.290  55.756 -51.453  1.00  0.00    -0.178 NA
HETATM   10  C   UNL     1     -41.716  56.097 -50.276  1.00  0.00     0.300 C 
HETATM   11  H   UNL     1     -42.796  54.894 -51.281  1.00  0.00     0.141 HD
HETATM   12  N   UNL     1     -41.348  57.381 -50.066  1.00  0.00    -0.348 N 
HETATM   13  O   UNL     1     -41.590  55.255 -49.389  1.00  0.00    -0.254 OA
HETATM   14  H   UNL     1     -40.971  57.536 -49.139  1.00  0.00     0.163 HD
HETATM   15  O   UNL     1     -40.686  56.512 -52.919  1.00  0.00    -0.278 OA
BRANCH  12  16
HETATM   16  C   UNL     1     -41.716  58.554 -50.838  1.00  0.00     0.119 C 
HETATM   17  C   UNL     1     -40.622  59.602 -50.794  1.00  0.00     0.026 C 
ENDBRANCH  12  16
ENDBRANCH   7   8
BRANCH   7  18
HETATM   18  C   UNL     1     -40.986  53.207 -53.351  1.00  0.00    -0.035 A 
HETATM   19  C   UNL     1     -40.287  52.918 -52.167  1.00  0.00     0.009 A 
HETATM   20  C   UNL     1     -39.562  51.731 -52.032  1.00  0.00     0.001 A 
HETATM   21  C   UNL     1     -39.514  50.814 -53.078  1.00  0.00     0.000 A 
HETATM   22  C   UNL     1     -40.197  51.081 -54.262  1.00  0.00     0.001 A 
HETATM   23  C   UNL     1     -40.931  52.263 -54.395  1.00  0.00     0.009 A 
ENDBRANCH   7  18
ENDBRANCH   6   7
ENDBRANCH   1   6
BRANCH   2  24
HETATM   24  C   UNL     1     -43.073  57.336 -57.388  1.00  0.00     0.043 A 
HETATM   25  C   UNL     1     -43.293  56.496 -58.491  1.00  0.00     0.033 A 
HETATM   26  C   UNL     1     -42.728  56.809 -59.730  1.00  0.00     0.044 A 
HETATM   27  C   UNL     1     -41.943  57.946 -59.861  1.00  0.00     0.116 A 
HETATM   28  F   UNL     1     -41.404  58.246 -61.049  1.00  0.00    -0.206 F 
HETATM   29  C   UNL     1     -41.702  58.775 -58.772  1.00  0.00     0.044 A 
HETATM   30  C   UNL     1     -42.262  58.471 -57.529  1.00  0.00     0.033 A 
ENDBRANCH   2  24
BRANCH   3  31
HETATM   31  C   UNL     1     -45.539  58.819 -56.001  1.00  0.00     0.315 C 
BRANCH  31  32
HETATM   32  N   UNL     1     -45.708  58.710 -57.514  1.00  0.00    -0.064 N 
HETATM   33  H   UNL     1     -44.914  58.112 -57.804  1.00  0.00     0.280 HD
HETATM   34  C   UNL     1     -46.962  57.959 -57.897  1.00  0.00     0.235 C 
HETATM   35  C   UNL     1     -46.956  57.698 -59.395  1.00  0.00     0.028 C 
HETATM   36  C   UNL     1     -46.799  58.991 -60.187  1.00  0.00     0.003 C 
HETATM   37  C   UNL     1     -45.571  59.774 -59.735  1.00  0.00     0.028 C 
HETATM   38  C   UNL     1     -45.573  60.022 -58.231  1.00  0.00     0.235 C 
ENDBRANCH  31  32
ENDBRANCH   3  31
TORSDOF 8
ENDMDL
MODEL 4
REMARK VINA RESULT:      -7.6      3.099      7.234
REMARK  8 active torsions:
REMARK  status: ('A' for Active; 'I' for Inactive)
REMARK    1  A    between atoms: C_2  and  N_3 
REMARK       I    between atoms: N_3  and  C_4 
REMARK       I    between atoms: C_4  and  N_5 
REMARK       I    between atoms: N_5  and  C_6 
REMARK    2  A    between atoms: C_6  and  C_7 
REMARK    3  A    between atoms: C_7  and  S_8 
REMARK    4  A    between atoms: C_7  and  C_29 
REMARK    5  A    between atoms: S_8  and  C_9 
REMARK    6  A    between atoms: N_10  and  C_11 
REMARK    7  A    between atoms: C_18  and  C_19 
REMARK    8  A    between atoms: C_19  and  N_20 
ROOT
HETATM    1  C   UNL     1     -43.489  56.002 -55.030  1.00  0.00     0.197 A 
HETATM    2  N   UNL     1     -43.725  57.084 -55.862  1.00  0.00    -0.274 N 
HETATM    3  C   UNL     1     -44.624  57.852 -55.131  1.00  0.00     0.161 A 
HETATM    4  N   UNL     1     -44.925  57.240 -53.998  1.00  0.00    -0.132 NA
HETATM    5  N   UNL     1     -44.221  56.084 -53.945  1.00  0.00    -0.122 NA
ENDROOT
BRANCH   1   6
HETATM    6  S   UNL     1     -42.208  54.852 -55.200  1.00  0.00    -0.071 SA
BRANCH   6   7
HETATM    7  C   UNL     1     -41.891  54.378 -53.449  1.00  0.00     0.175 C 
BRANCH   7   8
HETATM    8  C   UNL     1     -41.497  55.590 -52.581  1.00  0.00     0.224 C 
HETATM    9  N   UNL     1     -42.210  55.771 -51.409  1.00  0.00    -0.178 NA
HETATM   10  C   UNL     1     -41.549  56.174 -50.299  1.00  0.00     0.300 C 
HETATM   11  H   UNL     1     -42.703  54.924 -51.151  1.00  0.00     0.141 HD
HETATM   12  N   UNL     1     -41.163  57.465 -50.190  1.00  0.00    -0.348 N 
HETATM   13  O   UNL     1     -41.360  55.383 -49.377  1.00  0.00    -0.254 OA
HETATM   14  H   UNL     1     -40.718  57.670 -49.303  1.00  0.00     0.163 HD
HETATM   15  O   UNL     1     -40.716  56.433 -53.030  1.00  0.00    -0.278 OA
BRANCH  12  16
HETATM   16  C   UNL     1     -41.584  58.596 -50.997  1.00  0.00     0.119 C 
HETATM   17  C   UNL     1     -41.306  59.907 -50.290  1.00  0.00     0.026 C 
ENDBRANCH  12  16
ENDBRANCH   7   8
BRANCH   7  18
HETATM   18  C   UNL     1     -41.018  53.131 -53.296  1.00  0.00    -0.035 A 
HETATM   19  C   UNL     1     -40.253  52.871 -52.147  1.00  0.00     0.009 A 
HETATM   20  C   UNL     1     -39.486  51.707 -52.042  1.00  0.00     0.001 A 
HETATM   21  C   UNL     1     -39.461  50.786 -53.085  1.00  0.00     0.000 A 
HETATM   22  C   UNL     1     -40.209  51.025 -54.235  1.00  0.00     0.001 A 
HETATM   23  C   UNL     1     -40.984  52.183 -54.337  1.00  0.00     0.009 A 
ENDBRANCH   7  18
ENDBRANCH   6   7
ENDBRANCH   1   6
BRANCH   2  24
HETATM   24  C   UNL     1     -43.198  57.342 -57.151  1.00  0.00     0.043 A 
HETATM   25  C   UNL     1     -42.281  58.391 -57.329  1.00  0.00     0.033 A 
HETATM   26  C   UNL     1     -41.735  58.634 -58.592  1.00  0.00     0.044 A 
HETATM   27  C   UNL     1     -42.109  57.841 -59.668  1.00  0.00     0.116 A 
HETATM   28  F   UNL     1     -41.583  58.073 -60.877  1.00  0.00    -0.206 F 
HETATM   29  C   UNL     1     -43.029  56.812 -59.509  1.00  0.00     0.044 A 
HETATM   30  C   UNL     1     -43.582  56.561 -58.250  1.00  0.00     0.033 A 
ENDBRANCH   2  24
BRANCH   3  31
HETATM   31  C   UNL     1     -45.302  59.113 -55.527  1.00  0.00     0.315 C 
BRANCH  31  32
HETATM   32  N   UNL     1     -44.773  60.262 -54.672  1.00  0.00    -0.064 N 
HETATM   33  H   UNL     1     -44.833  61.081 -55.304  1.00  0.00     0.280 HD
HETATM   34  C   UNL     1     -45.677  60.567 -53.501  1.00  0.00     0.235 C 
HETATM   35  C   UNL     1     -45.214  61.849 -52.826  1.00  0.00     0.028 C 
HETATM   36  C   UNL     1     -43.749  61.762 -52.411  1.00  0.00     0.003 C 
HETATM   37  C   UNL     1     -42.860  61.379 -53.589  1.00  0.00     0.028 C 
HETATM   38  C   UNL     1     -43.335  60.102 -54.271  1.00  0.00     0.235 C 
ENDBRANCH  31  32
ENDBRANCH   3  31
TORSDOF 8
ENDMDL
MODEL 5
REMARK VINA RESULT:      -7.4      3.685      5.465
REMARK  8 active torsions:
REMARK  status: ('A' for Active; 'I' for Inactive)
REMARK    1  A    between atoms: C_2  and  N_3 
REMARK       I    between atoms: N_3  and  C_4 
REMARK       I    between atoms: C_4  and  N_5 
REMARK       I    between atoms: N_5  and  C_6 
REMARK    2  A    between atoms: C_6  and  C_7 
REMARK    3  A    between atoms: C_7  and  S_8 
REMARK    4  A    between atoms: C_7  and  C_29 
REMARK    5  A    between atoms: S_8  and  C_9 
REMARK    6  A    between atoms: N_10  and  C_11 
REMARK    7  A    between atoms: C_18  and  C_19 
REMARK    8  A    between atoms: C_19  and  N_20 
ROOT
HETATM    1  C   UNL     1     -43.005  55.479 -54.579  1.00  0.00     0.197 A 
HETATM    2  N   UNL     1     -41.925  55.576 -53.716  1.00  0.00    -0.274 N 
HETATM    3  C   UNL     1     -41.383  54.297 -53.746  1.00  0.00     0.161 A 
HETATM    4  N   UNL     1     -42.117  53.513 -54.517  1.00  0.00    -0.132 NA
HETATM    5  N   UNL     1     -43.130  54.253 -55.028  1.00  0.00    -0.122 NA
ENDROOT
BRANCH   1   6
HETATM    6  S   UNL     1     -43.894  56.806 -55.246  1.00  0.00    -0.071 SA
BRANCH   6   7
HETATM    7  C   UNL     1     -43.040  57.060 -56.858  1.00  0.00     0.175 C 
BRANCH   7   8
HETATM    8  C   UNL     1     -42.476  58.488 -56.997  1.00  0.00     0.224 C 
HETATM    9  N   UNL     1     -43.218  59.507 -56.425  1.00  0.00    -0.178 NA
HETATM   10  C   UNL     1     -42.569  60.511 -55.791  1.00  0.00     0.300 C 
HETATM   11  H   UNL     1     -43.885  59.136 -55.756  1.00  0.00     0.141 HD
HETATM   12  N   UNL     1     -41.946  61.462 -56.522  1.00  0.00    -0.348 N 
HETATM   13  O   UNL     1     -42.603  60.584 -54.564  1.00  0.00    -0.254 OA
HETATM   14  H   UNL     1     -41.531  62.189 -55.951  1.00  0.00     0.163 HD
HETATM   15  O   UNL     1     -41.516  58.695 -57.744  1.00  0.00    -0.278 OA
BRANCH  12  16
HETATM   16  C   UNL     1     -42.080  61.729 -57.942  1.00  0.00     0.119 C 
HETATM   17  C   UNL     1     -40.731  62.002 -58.578  1.00  0.00     0.026 C 
ENDBRANCH  12  16
ENDBRANCH   7   8
BRANCH   7  18
HETATM   18  C   UNL     1     -43.822  56.529 -58.060  1.00  0.00    -0.035 A 
HETATM   19  C   UNL     1     -44.797  57.284 -58.732  1.00  0.00     0.009 A 
HETATM   20  C   UNL     1     -45.473  56.764 -59.841  1.00  0.00     0.001 A 
HETATM   21  C   UNL     1     -45.192  55.479 -60.294  1.00  0.00     0.000 A 
HETATM   22  C   UNL     1     -44.231  54.711 -59.642  1.00  0.00     0.001 A 
HETATM   23  C   UNL     1     -43.549  55.232 -58.540  1.00  0.00     0.009 A 
ENDBRANCH   7  18
ENDBRANCH   6   7
ENDBRANCH   1   6
BRANCH   2  24
HETATM   24  C   UNL     1     -41.488  56.697 -52.968  1.00  0.00     0.043 A 
HETATM   25  C   UNL     1     -41.818  56.793 -51.606  1.00  0.00     0.033 A 
HETATM   26  C   UNL     1     -41.367  57.881 -50.854  1.00  0.00     0.044 A 
HETATM   27  C   UNL     1     -40.602  58.867 -51.461  1.00  0.00     0.116 A 
HETATM   28  F   UNL     1     -40.168  59.908 -50.739  1.00  0.00    -0.206 F 
HETATM   29  C   UNL     1     -40.285  58.793 -52.812  1.00  0.00     0.044 A 
HETATM   30  C   UNL     1     -40.731  57.710 -53.573  1.00  0.00     0.033 A 
ENDBRANCH   2  24
BRANCH   3  31
HETATM   31  C   UNL     1     -40.238  53.757 -52.969  1.00  0.00     0.315 C 
BRANCH  31  32
HETATM   32  N   UNL     1     -40.298  52.232 -52.973  1.00  0.00    -0.064 N 
HETATM   33  H   UNL     1     -41.311  52.029 -52.888  1.00  0.00     0.280 HD
HETATM   34  C   UNL     1     -39.861  51.646 -54.295  1.00  0.00     0.235 C 
HETATM   35  C   UNL     1     -40.152  50.153 -54.306  1.00  0.00     0.028 C 
HETATM   36  C   UNL     1     -39.497  49.449 -53.123  1.00  0.00     0.003 C 
HETATM   37  C   UNL     1     -39.888  50.101 -51.801  1.00  0.00     0.028 C 
HETATM   38  C   UNL     1     -39.609  51.599 -51.800  1.00  0.00     0.235 C 
ENDBRANCH  31  32
ENDBRANCH   3  31
TORSDOF 8
ENDMDL
MODEL 6
REMARK VINA RESULT:      -7.3      3.868      8.229
REMARK  8 active torsions:
REMARK  status: ('A' for Active; 'I' for Inactive)
REMARK    1  A    between atoms: C_2  and  N_3 
REMARK       I    between atoms: N_3  and  C_4 
REMARK       I    between atoms: C_4  and  N_5 
REMARK       I    between atoms: N_5  and  C_6 
REMARK    2  A    between atoms: C_6  and  C_7 
REMARK    3  A    between atoms: C_7  and  S_8 
REMARK    4  A    between atoms: C_7  and  C_29 
REMARK    5  A    between atoms: S_8  and  C_9 
REMARK    6  A    between atoms: N_10  and  C_11 
REMARK    7  A    between atoms: C_18  and  C_19 
REMARK    8  A    between atoms: C_19  and  N_20 
ROOT
HETATM    1  C   UNL     1     -43.512  58.691 -53.918  1.00  0.00     0.197 A 
HETATM    2  N   UNL     1     -42.976  58.561 -52.648  1.00  0.00    -0.274 N 
HETATM    3  C   UNL     1     -42.709  59.876 -52.284  1.00  0.00     0.161 A 
HETATM    4  N   UNL     1     -43.013  60.691 -53.278  1.00  0.00    -0.132 NA
HETATM    5  N   UNL     1     -43.507  59.947 -54.297  1.00  0.00    -0.122 NA
ENDROOT
BRANCH   1   6
HETATM    6  S   UNL     1     -44.364  57.464 -54.791  1.00  0.00    -0.071 SA
BRANCH   6   7
HETATM    7  C   UNL     1     -43.020  56.725 -55.811  1.00  0.00     0.175 C 
BRANCH   7   8
HETATM    8  C   UNL     1     -43.457  56.501 -57.273  1.00  0.00     0.224 C 
HETATM    9  N   UNL     1     -44.325  57.436 -57.810  1.00  0.00    -0.178 NA
HETATM   10  C   UNL     1     -44.150  57.828 -59.094  1.00  0.00     0.300 C 
HETATM   11  H   UNL     1     -44.332  58.284 -57.255  1.00  0.00     0.141 HD
HETATM   12  N   UNL     1     -44.522  56.999 -60.095  1.00  0.00    -0.348 N 
HETATM   13  O   UNL     1     -43.714  58.951 -59.337  1.00  0.00    -0.254 OA
HETATM   14  H   UNL     1     -44.390  57.407 -61.014  1.00  0.00     0.163 HD
HETATM   15  O   UNL     1     -43.179  55.440 -57.837  1.00  0.00    -0.278 OA
BRANCH  12  16
HETATM   16  C   UNL     1     -45.347  55.808 -60.011  1.00  0.00     0.119 C 
HETATM   17  C   UNL     1     -46.803  56.130 -60.287  1.00  0.00     0.026 C 
ENDBRANCH  12  16
ENDBRANCH   7   8
BRANCH   7  18
HETATM   18  C   UNL     1     -42.309  55.550 -55.137  1.00  0.00    -0.035 A 
HETATM   19  C   UNL     1     -40.919  55.363 -55.197  1.00  0.00     0.009 A 
HETATM   20  C   UNL     1     -40.309  54.285 -54.547  1.00  0.00     0.001 A 
HETATM   21  C   UNL     1     -41.078  53.371 -53.833  1.00  0.00     0.000 A 
HETATM   22  C   UNL     1     -42.458  53.535 -53.763  1.00  0.00     0.001 A 
HETATM   23  C   UNL     1     -43.068  54.616 -54.403  1.00  0.00     0.009 A 
ENDBRANCH   7  18
ENDBRANCH   6   7
ENDBRANCH   1   6
BRANCH   2  24
HETATM   24  C   UNL     1     -42.736  57.379 -51.904  1.00  0.00     0.043 A 
HETATM   25  C   UNL     1     -41.423  56.907 -51.756  1.00  0.00     0.033 A 
HETATM   26  C   UNL     1     -41.175  55.758 -51.001  1.00  0.00     0.044 A 
HETATM   27  C   UNL     1     -42.233  55.082 -50.409  1.00  0.00     0.116 A 
HETATM   28  F   UNL     1     -41.995  53.982 -49.684  1.00  0.00    -0.206 F 
HETATM   29  C   UNL     1     -43.540  55.528 -50.565  1.00  0.00     0.044 A 
HETATM   30  C   UNL     1     -43.798  56.677 -51.317  1.00  0.00     0.033 A 
ENDBRANCH   2  24
BRANCH   3  31
HETATM   31  C   UNL     1     -42.061  60.381 -51.046  1.00  0.00     0.315 C 
BRANCH  31  32
HETATM   32  N   UNL     1     -43.110  61.057 -50.166  1.00  0.00    -0.064 N 
HETATM   33  H   UNL     1     -42.763  60.891 -49.204  1.00  0.00     0.280 HD
HETATM   34  C   UNL     1     -43.131  62.557 -50.353  1.00  0.00     0.235 C 
HETATM   35  C   UNL     1     -44.032  63.183 -49.300  1.00  0.00     0.028 C 
HETATM   36  C   UNL     1     -45.433  62.582 -49.336  1.00  0.00     0.003 C 
HETATM   37  C   UNL     1     -45.388  61.062 -49.223  1.00  0.00     0.028 C 
HETATM   38  C   UNL     1     -44.473  60.439 -50.270  1.00  0.00     0.235 C 
ENDBRANCH  31  32
ENDBRANCH   3  31
TORSDOF 8
ENDMDL
MODEL 7
REMARK VINA RESULT:      -7.3      3.692      8.556
REMARK  8 active torsions:
REMARK  status: ('A' for Active; 'I' for Inactive)
REMARK    1  A    between atoms: C_2  and  N_3 
REMARK       I    between atoms: N_3  and  C_4 
REMARK       I    between atoms: C_4  and  N_5 
REMARK       I    between atoms: N_5  and  C_6 
REMARK    2  A    between atoms: C_6  and  C_7 
REMARK    3  A    between atoms: C_7  and  S_8 
REMARK    4  A    between atoms: C_7  and  C_29 
REMARK    5  A    between atoms: S_8  and  C_9 
REMARK    6  A    between atoms: N_10  and  C_11 
REMARK    7  A    between atoms: C_18  and  C_19 
REMARK    8  A    between atoms: C_19  and  N_20 
ROOT
HETATM    1  C   UNL     1     -44.069  58.773 -53.617  1.00  0.00     0.197 A 
HETATM    2  N   UNL     1     -43.594  58.604 -52.327  1.00  0.00    -0.274 N 
HETATM    3  C   UNL     1     -43.757  59.865 -51.765  1.00  0.00     0.161 A 
HETATM    4  N   UNL     1     -44.232  60.705 -52.667  1.00  0.00    -0.132 NA
HETATM    5  N   UNL     1     -44.418  60.021 -53.822  1.00  0.00    -0.122 NA
ENDROOT
BRANCH   1   6
HETATM    6  S   UNL     1     -44.459  57.507 -54.730  1.00  0.00    -0.071 SA
BRANCH   6   7
HETATM    7  C   UNL     1     -42.809  57.111 -55.446  1.00  0.00     0.175 C 
BRANCH   7   8
HETATM    8  C   UNL     1     -42.779  57.301 -56.975  1.00  0.00     0.224 C 
HETATM    9  N   UNL     1     -42.450  56.190 -57.732  1.00  0.00    -0.178 NA
HETATM   10  C   UNL     1     -43.112  55.969 -58.892  1.00  0.00     0.300 C 
HETATM   11  H   UNL     1     -42.546  55.340 -57.187  1.00  0.00     0.141 HD
HETATM   12  N   UNL     1     -42.814  56.718 -59.977  1.00  0.00    -0.348 N 
HETATM   13  O   UNL     1     -43.931  55.056 -58.965  1.00  0.00    -0.254 OA
HETATM   14  H   UNL     1     -43.334  56.442 -60.801  1.00  0.00     0.163 HD
HETATM   15  O   UNL     1     -42.863  58.436 -57.451  1.00  0.00    -0.278 OA
BRANCH  12  16
HETATM   16  C   UNL     1     -41.670  57.589 -60.175  1.00  0.00     0.119 C 
HETATM   17  C   UNL     1     -42.091  58.919 -60.770  1.00  0.00     0.026 C 
ENDBRANCH  12  16
ENDBRANCH   7   8
BRANCH   7  18
HETATM   18  C   UNL     1     -42.206  55.807 -54.920  1.00  0.00    -0.035 A 
HETATM   19  C   UNL     1     -40.822  55.577 -54.859  1.00  0.00     0.009 A 
HETATM   20  C   UNL     1     -40.315  54.377 -54.350  1.00  0.00     0.001 A 
HETATM   21  C   UNL     1     -41.179  53.383 -53.903  1.00  0.00     0.000 A 
HETATM   22  C   UNL     1     -42.555  53.589 -53.957  1.00  0.00     0.001 A 
HETATM   23  C   UNL     1     -43.064  54.791 -54.455  1.00  0.00     0.009 A 
ENDBRANCH   7  18
ENDBRANCH   6   7
ENDBRANCH   1   6
BRANCH   2  24
HETATM   24  C   UNL     1     -43.056  57.438 -51.727  1.00  0.00     0.043 A 
HETATM   25  C   UNL     1     -43.921  56.453 -51.228  1.00  0.00     0.033 A 
HETATM   26  C   UNL     1     -43.399  55.287 -50.660  1.00  0.00     0.044 A 
HETATM   27  C   UNL     1     -42.024  55.116 -50.586  1.00  0.00     0.116 A 
HETATM   28  F   UNL     1     -41.524  53.998 -50.044  1.00  0.00    -0.206 F 
HETATM   29  C   UNL     1     -41.156  56.092 -51.060  1.00  0.00     0.044 A 
HETATM   30  C   UNL     1     -41.669  57.261 -51.629  1.00  0.00     0.033 A 
ENDBRANCH   2  24
BRANCH   3  31
HETATM   31  C   UNL     1     -43.365  60.332 -50.410  1.00  0.00     0.315 C 
BRANCH  31  32
HETATM   32  N   UNL     1     -44.289  61.469 -49.981  1.00  0.00    -0.064 N 
HETATM   33  H   UNL     1     -44.958  61.548 -50.768  1.00  0.00     0.280 HD
HETATM   34  C   UNL     1     -45.112  61.109 -48.765  1.00  0.00     0.235 C 
HETATM   35  C   UNL     1     -46.157  62.188 -48.527  1.00  0.00     0.028 C 
HETATM   36  C   UNL     1     -45.518  63.565 -48.397  1.00  0.00     0.003 C 
HETATM   37  C   UNL     1     -44.630  63.881 -49.597  1.00  0.00     0.028 C 
HETATM   38  C   UNL     1     -43.594  62.791 -49.842  1.00  0.00     0.235 C 
ENDBRANCH  31  32
ENDBRANCH   3  31
TORSDOF 8
ENDMDL
MODEL 8
REMARK VINA RESULT:      -7.2      3.428      6.400
REMARK  8 active torsions:
REMARK  status: ('A' for Active; 'I' for Inactive)
REMARK    1  A    between atoms: C_2  and  N_3 
REMARK       I    between atoms: N_3  and  C_4 
REMARK       I    between atoms: C_4  and  N_5 
REMARK       I    between atoms: N_5  and  C_6 
REMARK    2  A    between atoms: C_6  and  C_7 
REMARK    3  A    between atoms: C_7  and  S_8 
REMARK    4  A    between atoms: C_7  and  C_29 
REMARK    5  A    between atoms: S_8  and  C_9 
REMARK    6  A    between atoms: N_10  and  C_11 
REMARK    7  A    between atoms: C_18  and  C_19 
REMARK    8  A    between atoms: C_19  and  N_20 
ROOT
HETATM    1  C   UNL     1     -44.735  57.592 -54.533  1.00  0.00     0.197 A 
HETATM    2  N   UNL     1     -43.823  56.993 -55.386  1.00  0.00    -0.274 N 
HETATM    3  C   UNL     1     -43.991  57.700 -56.571  1.00  0.00     0.161 A 
HETATM    4  N   UNL     1     -44.955  58.593 -56.433  1.00  0.00    -0.132 NA
HETATM    5  N   UNL     1     -45.420  58.516 -55.163  1.00  0.00    -0.122 NA
ENDROOT
BRANCH   1   6
HETATM    6  S   UNL     1     -44.790  57.409 -52.813  1.00  0.00    -0.071 SA
BRANCH   6   7
HETATM    7  C   UNL     1     -43.076  57.880 -52.329  1.00  0.00     0.175 C 
BRANCH   7   8
HETATM    8  C   UNL     1     -42.347  56.739 -51.591  1.00  0.00     0.224 C 
HETATM    9  N   UNL     1     -43.068  56.069 -50.619  1.00  0.00    -0.178 NA
HETATM   10  C   UNL     1     -42.928  54.726 -50.511  1.00  0.00     0.300 C 
HETATM   11  H   UNL     1     -44.062  56.240 -50.723  1.00  0.00     0.141 HD
HETATM   12  N   UNL     1     -41.811  54.221 -49.942  1.00  0.00    -0.348 N 
HETATM   13  O   UNL     1     -43.839  53.984 -50.874  1.00  0.00    -0.254 OA
HETATM   14  H   UNL     1     -41.828  53.210 -49.871  1.00  0.00     0.163 HD
HETATM   15  O   UNL     1     -41.134  56.587 -51.752  1.00  0.00    -0.278 OA
BRANCH  12  16
HETATM   16  C   UNL     1     -40.807  54.924 -49.166  1.00  0.00     0.119 C 
HETATM   17  C   UNL     1     -40.311  54.073 -48.013  1.00  0.00     0.026 C 
ENDBRANCH  12  16
ENDBRANCH   7   8
BRANCH   7  18
HETATM   18  C   UNL     1     -42.976  59.265 -51.687  1.00  0.00    -0.035 A 
HETATM   19  C   UNL     1     -41.984  59.603 -50.752  1.00  0.00     0.009 A 
HETATM   20  C   UNL     1     -41.917  60.889 -50.207  1.00  0.00     0.001 A 
HETATM   21  C   UNL     1     -42.845  61.857 -50.579  1.00  0.00     0.000 A 
HETATM   22  C   UNL     1     -43.839  61.544 -51.502  1.00  0.00     0.001 A 
HETATM   23  C   UNL     1     -43.901  60.262 -52.055  1.00  0.00     0.009 A 
ENDBRANCH   7  18
ENDBRANCH   6   7
ENDBRANCH   1   6
BRANCH   2  24
HETATM   24  C   UNL     1     -42.945  55.912 -55.125  1.00  0.00     0.043 A 
HETATM   25  C   UNL     1     -41.557  56.115 -55.190  1.00  0.00     0.033 A 
HETATM   26  C   UNL     1     -40.684  55.061 -54.907  1.00  0.00     0.044 A 
HETATM   27  C   UNL     1     -41.195  53.815 -54.572  1.00  0.00     0.116 A 
HETATM   28  F   UNL     1     -40.358  52.807 -54.298  1.00  0.00    -0.206 F 
HETATM   29  C   UNL     1     -42.567  53.597 -54.523  1.00  0.00     0.044 A 
HETATM   30  C   UNL     1     -43.448  54.644 -54.804  1.00  0.00     0.033 A 
ENDBRANCH   2  24
BRANCH   3  31
HETATM   31  C   UNL     1     -43.331  57.476 -57.883  1.00  0.00     0.315 C 
BRANCH  31  32
HETATM   32  N   UNL     1     -44.198  56.550 -58.733  1.00  0.00    -0.064 N 
HETATM   33  H   UNL     1     -44.982  56.305 -58.102  1.00  0.00     0.280 HD
HETATM   34  C   UNL     1     -44.814  57.266 -59.912  1.00  0.00     0.235 C 
HETATM   35  C   UNL     1     -45.830  56.352 -60.582  1.00  0.00     0.028 C 
HETATM   36  C   UNL     1     -45.202  55.022 -60.984  1.00  0.00     0.003 C 
HETATM   37  C   UNL     1     -44.518  54.349 -59.799  1.00  0.00     0.028 C 
HETATM   38  C   UNL     1     -43.513  55.273 -59.121  1.00  0.00     0.235 C 
ENDBRANCH  31  32
ENDBRANCH   3  31
TORSDOF 8
ENDMDL
MODEL 9
REMARK VINA RESULT:      -7.2      3.554      7.554
REMARK  8 active torsions:
REMARK  status: ('A' for Active; 'I' for Inactive)
REMARK    1  A    between atoms: C_2  and  N_3 
REMARK       I    between atoms: N_3  and  C_4 
REMARK       I    between atoms: C_4  and  N_5 
REMARK       I    between atoms: N_5  and  C_6 
REMARK    2  A    between atoms: C_6  and  C_7 
REMARK    3  A    between atoms: C_7  and  S_8 
REMARK    4  A    between atoms: C_7  and  C_29 
REMARK    5  A    between atoms: S_8  and  C_9 
REMARK    6  A    between atoms: N_10  and  C_11 
REMARK    7  A    between atoms: C_18  and  C_19 
REMARK    8  A    between atoms: C_19  and  N_20 
ROOT
HETATM    1  C   UNL     1     -43.656  56.579 -55.332  1.00  0.00     0.197 A 
HETATM    2  N   UNL     1     -43.851  57.635 -56.207  1.00  0.00    -0.274 N 
HETATM    3  C   UNL     1     -44.829  58.392 -55.572  1.00  0.00     0.161 A 
HETATM    4  N   UNL     1     -45.207  57.798 -54.454  1.00  0.00    -0.132 NA
HETATM    5  N   UNL     1     -44.477  56.665 -54.313  1.00  0.00    -0.122 NA
ENDROOT
BRANCH   1   6
HETATM    6  S   UNL     1     -42.334  55.464 -55.365  1.00  0.00    -0.071 SA
BRANCH   6   7
HETATM    7  C   UNL     1     -42.058  55.151 -53.571  1.00  0.00     0.175 C 
BRANCH   7   8
HETATM    8  C   UNL     1     -41.691  56.438 -52.806  1.00  0.00     0.224 C 
HETATM    9  N   UNL     1     -40.731  57.250 -53.384  1.00  0.00    -0.178 NA
HETATM   10  C   UNL     1     -40.891  58.593 -53.329  1.00  0.00     0.300 C 
HETATM   11  H   UNL     1     -40.607  57.022 -54.365  1.00  0.00     0.141 HD
HETATM   12  N   UNL     1     -40.650  59.241 -52.167  1.00  0.00    -0.348 N 
HETATM   13  O   UNL     1     -41.195  59.216 -54.343  1.00  0.00    -0.254 OA
HETATM   14  H   UNL     1     -40.756  60.245 -52.247  1.00  0.00     0.163 HD
HETATM   15  O   UNL     1     -42.110  56.606 -51.659  1.00  0.00    -0.278 OA
BRANCH  12  16
HETATM   16  C   UNL     1     -39.973  58.737 -50.986  1.00  0.00     0.119 C 
HETATM   17  C   UNL     1     -39.139  59.820 -50.329  1.00  0.00     0.026 C 
ENDBRANCH  12  16
ENDBRANCH   7   8
BRANCH   7  18
HETATM   18  C   UNL     1     -41.182  53.929 -53.286  1.00  0.00    -0.035 A 
HETATM   19  C   UNL     1     -40.685  53.628 -52.008  1.00  0.00     0.009 A 
HETATM   20  C   UNL     1     -39.906  52.487 -51.790  1.00  0.00     0.001 A 
HETATM   21  C   UNL     1     -39.602  51.633 -52.845  1.00  0.00     0.000 A 
HETATM   22  C   UNL     1     -40.082  51.913 -54.121  1.00  0.00     0.001 A 
HETATM   23  C   UNL     1     -40.869  53.047 -54.339  1.00  0.00     0.009 A 
ENDBRANCH   7  18
ENDBRANCH   6   7
ENDBRANCH   1   6
BRANCH   2  24
HETATM   24  C   UNL     1     -43.225  57.879 -57.454  1.00  0.00     0.043 A 
HETATM   25  C   UNL     1     -43.554  57.083 -58.563  1.00  0.00     0.033 A 
HETATM   26  C   UNL     1     -42.962  57.334 -59.803  1.00  0.00     0.044 A 
HETATM   27  C   UNL     1     -42.042  58.366 -59.930  1.00  0.00     0.116 A 
HETATM   28  F   UNL     1     -41.477  58.607 -61.119  1.00  0.00    -0.206 F 
HETATM   29  C   UNL     1     -41.693  59.148 -58.836  1.00  0.00     0.044 A 
HETATM   30  C   UNL     1     -42.280  58.905 -57.591  1.00  0.00     0.033 A 
ENDBRANCH   2  24
BRANCH   3  31
HETATM   31  C   UNL     1     -45.506  59.623 -56.055  1.00  0.00     0.315 C 
BRANCH  31  32
HETATM   32  N   UNL     1     -44.589  60.824 -55.834  1.00  0.00    -0.064 N 
HETATM   33  H   UNL     1     -43.645  60.401 -55.783  1.00  0.00     0.280 HD
HETATM   34  C   UNL     1     -44.569  61.755 -57.024  1.00  0.00     0.235 C 
HETATM   35  C   UNL     1     -43.481  62.799 -56.830  1.00  0.00     0.028 C 
HETATM   36  C   UNL     1     -43.660  63.553 -55.517  1.00  0.00     0.003 C 
HETATM   37  C   UNL     1     -43.755  62.595 -54.334  1.00  0.00     0.028 C 
HETATM   38  C   UNL     1     -44.836  61.541 -54.539  1.00  0.00     0.235 C 
ENDBRANCH  31  32
ENDBRANCH   3  31
TORSDOF 8
ENDMDL
MODEL 10
REMARK VINA RESULT:      -7.1      3.372      8.535
REMARK  8 active torsions:
REMARK  status: ('A' for Active; 'I' for Inactive)
REMARK    1  A    between atoms: C_2  and  N_3 
REMARK       I    between atoms: N_3  and  C_4 
REMARK       I    between atoms: C_4  and  N_5 
REMARK       I    between atoms: N_5  and  C_6 
REMARK    2  A    between atoms: C_6  and  C_7 
REMARK    3  A    between atoms: C_7  and  S_8 
REMARK    4  A    between atoms: C_7  and  C_29 
REMARK    5  A    between atoms: S_8  and  C_9 
REMARK    6  A    between atoms: N_10  and  C_11 
REMARK    7  A    between atoms: C_18  and  C_19 
REMARK    8  A    between atoms: C_19  and  N_20 
ROOT
HETATM    1  C   UNL     1     -44.199  58.379 -51.901  1.00  0.00     0.197 A 
HETATM    2  N   UNL     1     -43.295  59.425 -51.808  1.00  0.00    -0.274 N 
HETATM    3  C   UNL     1     -44.061  60.534 -52.150  1.00  0.00     0.161 A 
HETATM    4  N   UNL     1     -45.288  60.156 -52.466  1.00  0.00    -0.132 NA
HETATM    5  N   UNL     1     -45.366  58.812 -52.316  1.00  0.00    -0.122 NA
ENDROOT
BRANCH   1   6
HETATM    6  S   UNL     1     -43.971  56.782 -51.277  1.00  0.00    -0.071 SA
BRANCH   6   7
HETATM    7  C   UNL     1     -42.424  56.261 -52.129  1.00  0.00     0.175 C 
BRANCH   7   8
HETATM    8  C   UNL     1     -42.669  55.897 -53.607  1.00  0.00     0.224 C 
HETATM    9  N   UNL     1     -41.621  56.121 -54.483  1.00  0.00    -0.178 NA
HETATM   10  C   UNL     1     -41.380  55.214 -55.458  1.00  0.00     0.300 C 
HETATM   11  H   UNL     1     -40.747  56.232 -53.980  1.00  0.00     0.141 HD
HETATM   12  N   UNL     1     -42.191  55.172 -56.539  1.00  0.00    -0.348 N 
HETATM   13  O   UNL     1     -40.396  54.480 -55.383  1.00  0.00    -0.254 OA
HETATM   14  H   UNL     1     -41.895  54.490 -57.227  1.00  0.00     0.163 HD
HETATM   15  O   UNL     1     -43.807  55.605 -53.983  1.00  0.00    -0.278 OA
BRANCH  12  16
HETATM   16  C   UNL     1     -43.172  56.156 -56.959  1.00  0.00     0.119 C 
HETATM   17  C   UNL     1     -42.533  57.241 -57.803  1.00  0.00     0.026 C 
ENDBRANCH  12  16
ENDBRANCH   7   8
BRANCH   7  18
HETATM   18  C   UNL     1     -41.582  55.269 -51.326  1.00  0.00    -0.035 A 
HETATM   19  C   UNL     1     -40.883  55.627 -50.162  1.00  0.00     0.009 A 
HETATM   20  C   UNL     1     -40.142  54.681 -49.447  1.00  0.00     0.001 A 
HETATM   21  C   UNL     1     -40.079  53.362 -49.885  1.00  0.00     0.000 A 
HETATM   22  C   UNL     1     -40.762  52.984 -51.038  1.00  0.00     0.001 A 
HETATM   23  C   UNL     1     -41.510  53.926 -51.749  1.00  0.00     0.009 A 
ENDBRANCH   7  18
ENDBRANCH   6   7
ENDBRANCH   1   6
BRANCH   2  24
HETATM   24  C   UNL     1     -41.920  59.379 -51.469  1.00  0.00     0.043 A 
HETATM   25  C   UNL     1     -40.968  59.113 -52.466  1.00  0.00     0.033 A 
HETATM   26  C   UNL     1     -39.609  59.093 -52.145  1.00  0.00     0.044 A 
HETATM   27  C   UNL     1     -39.207  59.328 -50.837  1.00  0.00     0.116 A 
HETATM   28  F   UNL     1     -37.904  59.312 -50.531  1.00  0.00    -0.206 F 
HETATM   29  C   UNL     1     -40.141  59.575 -49.838  1.00  0.00     0.044 A 
HETATM   30  C   UNL     1     -41.503  59.596 -50.148  1.00  0.00     0.033 A 
ENDBRANCH   2  24
BRANCH   3  31
HETATM   31  C   UNL     1     -43.630  61.948 -52.295  1.00  0.00     0.315 C 
BRANCH  31  32
HETATM   32  N   UNL     1     -43.519  62.587 -50.913  1.00  0.00    -0.064 N 
HETATM   33  H   UNL     1     -42.748  62.059 -50.464  1.00  0.00     0.280 HD
HETATM   34  C   UNL     1     -43.059  64.024 -50.983  1.00  0.00     0.235 C 
HETATM   35  C   UNL     1     -42.759  64.527 -49.578  1.00  0.00     0.028 C 
HETATM   36  C   UNL     1     -43.961  64.354 -48.656  1.00  0.00     0.003 C 
HETATM   37  C   UNL     1     -44.459  62.913 -48.656  1.00  0.00     0.028 C 
HETATM   38  C   UNL     1     -44.744  62.408 -50.065  1.00  0.00     0.235 C 
ENDBRANCH  31  32
ENDBRANCH   3  31
TORSDOF 8
ENDMDL
