MODEL 1
REMARK VINA RESULT:      -7.1      0.000      0.000
REMARK  6 active torsions:
REMARK  status: ('A' for Active; 'I' for Inactive)
REMARK    1  A    between atoms: O_2  and  C_3 
REMARK    2  A    between atoms: C_4  and  N_5 
REMARK       I    between atoms: N_5  and  C_6 
REMARK       I    between atoms: C_6  and  N_7 
REMARK    3  A    between atoms: N_7  and  C_8 
REMARK    4  A    between atoms: C_8  and  C_9 
REMARK    5  A    between atoms: C_9  and  C_10 
REMARK    6  A    between atoms: C_10  and  N_11 
ROOT
HETATM    1  N   UNL     1     -40.544  53.879 -54.168  1.00  0.00    -0.306 N 
HETATM    2  C   UNL     1     -41.755  54.249 -54.700  1.00  0.00     0.320 C 
HETATM    3  N   UNL     1     -41.564  55.006 -55.841  1.00  0.00    -0.343 N 
HETATM    4  O   UNL     1     -42.858  54.016 -54.231  1.00  0.00    -0.247 OA
HETATM    5  H   UNL     1     -39.735  54.391 -54.498  1.00  0.00     0.171 HD
HETATM    6  H   UNL     1     -40.787  54.700 -56.413  1.00  0.00     0.164 HD
ENDROOT
BRANCH   3   7
HETATM    7  C   UNL     1     -42.690  55.594 -56.540  1.00  0.00     0.126 C 
BRANCH   7   8
HETATM    8  C   UNL     1     -42.816  57.099 -56.308  1.00  0.00     0.040 C 
BRANCH   8   9
HETATM    9  C   UNL     1     -43.381  57.416 -54.925  1.00  0.00     0.131 C 
BRANCH   9  10
HETATM   10  N   UNL     1     -42.344  57.802 -53.984  1.00  0.00    -0.341 N 
HETATM   11  C   UNL     1     -42.238  57.335 -52.700  1.00  0.00     0.139 A 
HETATM   12  C   UNL     1     -41.135  57.956 -52.117  1.00  0.00     0.011 A 
HETATM   13  N   UNL     1     -43.061  56.434 -52.123  1.00  0.00    -0.242 NA
HETATM   14  C   UNL     1     -40.830  57.623 -50.789  1.00  0.00     0.017 A 
HETATM   15  C   UNL     1     -40.577  58.818 -53.098  1.00  0.00     0.032 A 
HETATM   16  C   UNL     1     -41.652  56.696 -50.148  1.00  0.00     0.020 A 
HETATM   17  C   UNL     1     -42.721  56.151 -50.845  1.00  0.00     0.119 A 
HETATM   18  C   UNL     1     -41.342  58.705 -54.240  1.00  0.00     0.093 A 
ENDBRANCH   9  10
ENDBRANCH   8   9
ENDBRANCH   7   8
ENDBRANCH   3   7
BRANCH   1  19
HETATM   19  C   UNL     1     -40.314  53.090 -53.023  1.00  0.00     0.071 A 
HETATM   20  C   UNL     1     -39.917  51.759 -53.234  1.00  0.00     0.095 A 
HETATM   21  C   UNL     1     -39.713  50.887 -52.165  1.00  0.00     0.041 A 
HETATM   22  C   UNL     1     -39.873  51.357 -50.862  1.00  0.00     0.026 A 
HETATM   23  C   UNL     1     -40.246  52.685 -50.645  1.00  0.00     0.036 A 
HETATM   24  C   UNL     1     -40.469  53.554 -51.716  1.00  0.00     0.056 A 
HETATM   25 CL   UNL     1     -40.446  53.250 -49.031  1.00  0.00    -0.084 Cl
BRANCH  20  26
HETATM   26  O   UNL     1     -39.761  51.313 -54.526  1.00  0.00    -0.354 OA
HETATM   27  C   UNL     1     -39.753  49.884 -54.555  1.00  0.00     0.210 C 
ENDBRANCH  20  26
ENDBRANCH   1  19
TORSDOF 6
ENDMDL
MODEL 2
REMARK VINA RESULT:      -7.1      2.427      3.297
REMARK  6 active torsions:
REMARK  status: ('A' for Active; 'I' for Inactive)
REMARK    1  A    between atoms: O_2  and  C_3 
REMARK    2  A    between atoms: C_4  and  N_5 
REMARK       I    between atoms: N_5  and  C_6 
REMARK       I    between atoms: C_6  and  N_7 
REMARK    3  A    between atoms: N_7  and  C_8 
REMARK    4  A    between atoms: C_8  and  C_9 
REMARK    5  A    between atoms: C_9  and  C_10 
REMARK    6  A    between atoms: C_10  and  N_11 
ROOT
HETATM    1  N   UNL     1     -41.505  54.902 -53.369  1.00  0.00    -0.306 N 
HETATM    2  C   UNL     1     -42.806  55.092 -53.770  1.00  0.00     0.320 C 
HETATM    3  N   UNL     1     -43.026  56.425 -54.059  1.00  0.00    -0.343 N 
HETATM    4  O   UNL     1     -43.684  54.245 -53.816  1.00  0.00    -0.247 OA
HETATM    5  H   UNL     1     -40.994  55.734 -53.102  1.00  0.00     0.171 HD
HETATM    6  H   UNL     1     -42.245  56.884 -54.509  1.00  0.00     0.164 HD
ENDROOT
BRANCH   3   7
HETATM    7  C   UNL     1     -44.349  56.899 -54.419  1.00  0.00     0.126 C 
BRANCH   7   8
HETATM    8  C   UNL     1     -44.746  58.176 -53.680  1.00  0.00     0.040 C 
BRANCH   8   9
HETATM    9  C   UNL     1     -44.756  57.978 -52.167  1.00  0.00     0.131 C 
BRANCH   9  10
HETATM   10  N   UNL     1     -43.920  58.946 -51.481  1.00  0.00    -0.341 N 
HETATM   11  C   UNL     1     -42.564  58.831 -51.311  1.00  0.00     0.139 A 
HETATM   12  C   UNL     1     -42.135  59.943 -50.588  1.00  0.00     0.011 A 
HETATM   13  N   UNL     1     -41.800  57.818 -51.771  1.00  0.00    -0.242 NA
HETATM   14  C   UNL     1     -40.766  60.038 -50.297  1.00  0.00     0.017 A 
HETATM   15  C   UNL     1     -43.283  60.737 -50.325  1.00  0.00     0.032 A 
HETATM   16  C   UNL     1     -39.934  59.014 -50.751  1.00  0.00     0.020 A 
HETATM   17  C   UNL     1     -40.492  57.960 -51.462  1.00  0.00     0.119 A 
HETATM   18  C   UNL     1     -44.371  60.099 -50.886  1.00  0.00     0.093 A 
ENDBRANCH   9  10
ENDBRANCH   8   9
ENDBRANCH   7   8
ENDBRANCH   3   7
BRANCH   1  19
HETATM   19  C   UNL     1     -40.886  53.688 -53.008  1.00  0.00     0.071 A 
HETATM   20  C   UNL     1     -40.526  53.533 -51.659  1.00  0.00     0.095 A 
HETATM   21  C   UNL     1     -39.864  52.388 -51.215  1.00  0.00     0.041 A 
HETATM   22  C   UNL     1     -39.589  51.365 -52.122  1.00  0.00     0.026 A 
HETATM   23  C   UNL     1     -39.965  51.504 -53.459  1.00  0.00     0.036 A 
HETATM   24  C   UNL     1     -40.610  52.659 -53.908  1.00  0.00     0.056 A 
HETATM   25 CL   UNL     1     -39.612  50.236 -54.570  1.00  0.00    -0.084 Cl
BRANCH  20  26
HETATM   26  O   UNL     1     -40.808  54.551 -50.777  1.00  0.00    -0.354 OA
HETATM   27  C   UNL     1     -39.875  54.535 -49.694  1.00  0.00     0.210 C 
ENDBRANCH  20  26
ENDBRANCH   1  19
TORSDOF 6
ENDMDL
MODEL 3
REMARK VINA RESULT:      -7.0      3.175      6.797
REMARK  6 active torsions:
REMARK  status: ('A' for Active; 'I' for Inactive)
REMARK    1  A    between atoms: O_2  and  C_3 
REMARK    2  A    between atoms: C_4  and  N_5 
REMARK       I    between atoms: N_5  and  C_6 
REMARK       I    between atoms: C_6  and  N_7 
REMARK    3  A    between atoms: N_7  and  C_8 
REMARK    4  A    between atoms: C_8  and  C_9 
REMARK    5  A    between atoms: C_9  and  C_10 
REMARK    6  A    between atoms: C_10  and  N_11 
ROOT
HETATM    1  N   UNL     1     -42.471  56.690 -55.548  1.00  0.00    -0.306 N 
HETATM    2  C   UNL     1     -43.338  56.920 -54.509  1.00  0.00     0.320 C 
HETATM    3  N   UNL     1     -42.656  56.915 -53.307  1.00  0.00    -0.343 N 
HETATM    4  O   UNL     1     -44.550  57.053 -54.586  1.00  0.00    -0.247 OA
HETATM    5  H   UNL     1     -41.566  56.311 -55.300  1.00  0.00     0.171 HD
HETATM    6  H   UNL     1     -41.737  57.335 -53.354  1.00  0.00     0.164 HD
ENDROOT
BRANCH   3   7
HETATM    7  C   UNL     1     -43.364  57.047 -52.048  1.00  0.00     0.126 C 
BRANCH   7   8
HETATM    8  C   UNL     1     -42.865  56.076 -50.979  1.00  0.00     0.040 C 
BRANCH   8   9
HETATM    9  C   UNL     1     -41.341  55.977 -50.967  1.00  0.00     0.131 C 
BRANCH   9  10
HETATM   10  N   UNL     1     -40.879  54.613 -51.149  1.00  0.00    -0.341 N 
HETATM   11  C   UNL     1     -40.645  54.020 -52.363  1.00  0.00     0.139 A 
HETATM   12  C   UNL     1     -40.237  52.710 -52.119  1.00  0.00     0.011 A 
HETATM   13  N   UNL     1     -40.787  54.615 -53.566  1.00  0.00    -0.242 NA
HETATM   14  C   UNL     1     -39.938  51.906 -53.229  1.00  0.00     0.017 A 
HETATM   15  C   UNL     1     -40.233  52.531 -50.710  1.00  0.00     0.032 A 
HETATM   16  C   UNL     1     -40.070  52.475 -54.495  1.00  0.00     0.020 A 
HETATM   17  C   UNL     1     -40.486  53.796 -54.599  1.00  0.00     0.119 A 
HETATM   18  C   UNL     1     -40.634  53.720 -50.136  1.00  0.00     0.093 A 
ENDBRANCH   9  10
ENDBRANCH   8   9
ENDBRANCH   7   8
ENDBRANCH   3   7
BRANCH   1  19
HETATM   19  C   UNL     1     -42.774  56.639 -56.924  1.00  0.00     0.071 A 
HETATM   20  C   UNL     1     -42.487  57.787 -57.683  1.00  0.00     0.095 A 
HETATM   21  C   UNL     1     -42.796  57.850 -59.042  1.00  0.00     0.041 A 
HETATM   22  C   UNL     1     -43.368  56.740 -59.664  1.00  0.00     0.026 A 
HETATM   23  C   UNL     1     -43.634  55.589 -58.919  1.00  0.00     0.036 A 
HETATM   24  C   UNL     1     -43.342  55.532 -57.554  1.00  0.00     0.056 A 
HETATM   25 CL   UNL     1     -44.346  54.228 -59.698  1.00  0.00    -0.084 Cl
BRANCH  20  26
HETATM   26  O   UNL     1     -41.921  58.871 -57.054  1.00  0.00    -0.354 OA
HETATM   27  C   UNL     1     -42.846  59.961 -57.026  1.00  0.00     0.210 C 
ENDBRANCH  20  26
ENDBRANCH   1  19
TORSDOF 6
ENDMDL
MODEL 4
REMARK VINA RESULT:      -7.0      2.132      3.082
REMARK  6 active torsions:
REMARK  status: ('A' for Active; 'I' for Inactive)
REMARK    1  A    between atoms: O_2  and  C_3 
REMARK    2  A    between atoms: C_4  and  N_5 
REMARK       I    between atoms: N_5  and  C_6 
REMARK       I    between atoms: C_6  and  N_7 
REMARK    3  A    between atoms: N_7  and  C_8 
REMARK    4  A    between atoms: C_8  and  C_9 
REMARK    5  A    between atoms: C_9  and  C_10 
REMARK    6  A    between atoms: C_10  and  N_11 
ROOT
HETATM    1  N   UNL     1     -40.937  54.896 -55.194  1.00  0.00    -0.306 N 
HETATM    2  C   UNL     1     -42.118  55.055 -55.876  1.00  0.00     0.320 C 
HETATM    3  N   UNL     1     -42.057  56.175 -56.683  1.00  0.00    -0.343 N 
HETATM    4  O   UNL     1     -43.121  54.366 -55.766  1.00  0.00    -0.247 OA
HETATM    5  H   UNL     1     -40.324  55.702 -55.167  1.00  0.00     0.171 HD
HETATM    6  H   UNL     1     -41.155  56.323 -57.114  1.00  0.00     0.164 HD
ENDROOT
BRANCH   3   7
HETATM    7  C   UNL     1     -43.215  56.611 -57.439  1.00  0.00     0.126 C 
BRANCH   7   8
HETATM    8  C   UNL     1     -44.084  57.611 -56.677  1.00  0.00     0.040 C 
BRANCH   8   9
HETATM    9  C   UNL     1     -43.255  58.746 -56.082  1.00  0.00     0.131 C 
BRANCH   9  10
HETATM   10  N   UNL     1     -43.402  58.835 -54.640  1.00  0.00    -0.341 N 
HETATM   11  C   UNL     1     -42.363  58.854 -53.745  1.00  0.00     0.139 A 
HETATM   12  C   UNL     1     -42.912  58.923 -52.466  1.00  0.00     0.011 A 
HETATM   13  N   UNL     1     -41.053  58.815 -54.065  1.00  0.00    -0.242 NA
HETATM   14  C   UNL     1     -42.024  58.956 -51.380  1.00  0.00     0.017 A 
HETATM   15  C   UNL     1     -44.324  58.944 -52.619  1.00  0.00     0.032 A 
HETATM   16  C   UNL     1     -40.658  58.918 -51.659  1.00  0.00     0.020 A 
HETATM   17  C   UNL     1     -40.244  58.850 -52.983  1.00  0.00     0.119 A 
HETATM   18  C   UNL     1     -44.600  58.888 -53.970  1.00  0.00     0.093 A 
ENDBRANCH   9  10
ENDBRANCH   8   9
ENDBRANCH   7   8
ENDBRANCH   3   7
BRANCH   1  19
HETATM   19  C   UNL     1     -40.597  53.868 -54.291  1.00  0.00     0.071 A 
HETATM   20  C   UNL     1     -40.672  54.172 -52.921  1.00  0.00     0.095 A 
HETATM   21  C   UNL     1     -40.309  53.236 -51.952  1.00  0.00     0.041 A 
HETATM   22  C   UNL     1     -39.899  51.965 -52.353  1.00  0.00     0.026 A 
HETATM   23  C   UNL     1     -39.844  51.650 -53.712  1.00  0.00     0.036 A 
HETATM   24  C   UNL     1     -40.188  52.594 -54.683  1.00  0.00     0.056 A 
HETATM   25 CL   UNL     1     -39.328  50.079 -54.193  1.00  0.00    -0.084 Cl
BRANCH  20  26
HETATM   26  O   UNL     1     -41.083  55.430 -52.544  1.00  0.00    -0.354 OA
HETATM   27  C   UNL     1     -42.189  55.336 -51.643  1.00  0.00     0.210 C 
ENDBRANCH  20  26
ENDBRANCH   1  19
TORSDOF 6
ENDMDL
MODEL 5
REMARK VINA RESULT:      -6.8      3.070      5.586
REMARK  6 active torsions:
REMARK  status: ('A' for Active; 'I' for Inactive)
REMARK    1  A    between atoms: O_2  and  C_3 
REMARK    2  A    between atoms: C_4  and  N_5 
REMARK       I    between atoms: N_5  and  C_6 
REMARK       I    between atoms: C_6  and  N_7 
REMARK    3  A    between atoms: N_7  and  C_8 
REMARK    4  A    between atoms: C_8  and  C_9 
REMARK    5  A    between atoms: C_9  and  C_10 
REMARK    6  A    between atoms: C_10  and  N_11 
ROOT
HETATM    1  N   UNL     1     -41.206  54.775 -53.712  1.00  0.00    -0.306 N 
HETATM    2  C   UNL     1     -42.497  55.038 -54.103  1.00  0.00     0.320 C 
HETATM    3  N   UNL     1     -42.614  56.354 -54.508  1.00  0.00    -0.343 N 
HETATM    4  O   UNL     1     -43.444  54.268 -54.055  1.00  0.00    -0.247 OA
HETATM    5  H   UNL     1     -40.621  55.580 -53.531  1.00  0.00     0.171 HD
HETATM    6  H   UNL     1     -41.810  56.703 -55.013  1.00  0.00     0.164 HD
ENDROOT
BRANCH   3   7
HETATM    7  C   UNL     1     -43.902  56.905 -54.883  1.00  0.00     0.126 C 
BRANCH   7   8
HETATM    8  C   UNL     1     -43.794  58.281 -55.538  1.00  0.00     0.040 C 
BRANCH   8   9
HETATM    9  C   UNL     1     -43.427  58.180 -57.016  1.00  0.00     0.131 C 
BRANCH   9  10
HETATM   10  N   UNL     1     -44.577  57.876 -57.848  1.00  0.00    -0.341 N 
HETATM   11  C   UNL     1     -44.637  56.856 -58.762  1.00  0.00     0.139 A 
HETATM   12  C   UNL     1     -45.890  56.908 -59.369  1.00  0.00     0.011 A 
HETATM   13  N   UNL     1     -43.650  55.969 -59.012  1.00  0.00    -0.242 NA
HETATM   14  C   UNL     1     -46.177  55.945 -60.348  1.00  0.00     0.017 A 
HETATM   15  C   UNL     1     -46.588  58.001 -58.789  1.00  0.00     0.032 A 
HETATM   16  C   UNL     1     -45.190  55.006 -60.642  1.00  0.00     0.020 A 
HETATM   17  C   UNL     1     -43.981  55.065 -59.961  1.00  0.00     0.119 A 
HETATM   18  C   UNL     1     -45.755  58.582 -57.855  1.00  0.00     0.093 A 
ENDBRANCH   9  10
ENDBRANCH   8   9
ENDBRANCH   7   8
ENDBRANCH   3   7
BRANCH   1  19
HETATM   19  C   UNL     1     -40.680  53.550 -53.254  1.00  0.00     0.071 A 
HETATM   20  C   UNL     1     -40.422  53.441 -51.877  1.00  0.00     0.095 A 
HETATM   21  C   UNL     1     -39.856  52.287 -51.337  1.00  0.00     0.041 A 
HETATM   22  C   UNL     1     -39.575  51.209 -52.176  1.00  0.00     0.026 A 
HETATM   23  C   UNL     1     -39.851  51.302 -53.541  1.00  0.00     0.036 A 
HETATM   24  C   UNL     1     -40.400  52.466 -54.086  1.00  0.00     0.056 A 
HETATM   25 CL   UNL     1     -39.493  49.965 -54.567  1.00  0.00    -0.084 Cl
BRANCH  20  26
HETATM   26  O   UNL     1     -40.708  54.514 -51.064  1.00  0.00    -0.354 OA
HETATM   27  C   UNL     1     -39.974  54.413 -49.842  1.00  0.00     0.210 C 
ENDBRANCH  20  26
ENDBRANCH   1  19
TORSDOF 6
ENDMDL
MODEL 6
REMARK VINA RESULT:      -6.8      3.161      5.843
REMARK  6 active torsions:
REMARK  status: ('A' for Active; 'I' for Inactive)
REMARK    1  A    between atoms: O_2  and  C_3 
REMARK    2  A    between atoms: C_4  and  N_5 
REMARK       I    between atoms: N_5  and  C_6 
REMARK       I    between atoms: C_6  and  N_7 
REMARK    3  A    between atoms: N_7  and  C_8 
REMARK    4  A    between atoms: C_8  and  C_9 
REMARK    5  A    between atoms: C_9  and  C_10 
REMARK    6  A    between atoms: C_10  and  N_11 
ROOT
HETATM    1  N   UNL     1     -43.539  54.928 -53.415  1.00  0.00    -0.306 N 
HETATM    2  C   UNL     1     -43.514  56.263 -53.739  1.00  0.00     0.320 C 
HETATM    3  N   UNL     1     -44.786  56.701 -54.056  1.00  0.00    -0.343 N 
HETATM    4  O   UNL     1     -42.526  56.977 -53.808  1.00  0.00    -0.247 OA
HETATM    5  H   UNL     1     -44.368  54.417 -53.689  1.00  0.00     0.171 HD
HETATM    6  H   UNL     1     -45.516  56.291 -53.488  1.00  0.00     0.164 HD
ENDROOT
BRANCH   3   7
HETATM    7  C   UNL     1     -45.012  58.056 -54.519  1.00  0.00     0.126 C 
BRANCH   7   8
HETATM    8  C   UNL     1     -45.676  58.113 -55.894  1.00  0.00     0.040 C 
BRANCH   8   9
HETATM    9  C   UNL     1     -44.693  58.535 -56.984  1.00  0.00     0.131 C 
BRANCH   9  10
HETATM   10  N   UNL     1     -44.195  57.401 -57.741  1.00  0.00    -0.341 N 
HETATM   11  C   UNL     1     -44.816  56.854 -58.835  1.00  0.00     0.139 A 
HETATM   12  C   UNL     1     -44.041  55.777 -59.262  1.00  0.00     0.011 A 
HETATM   13  N   UNL     1     -45.966  57.296 -59.385  1.00  0.00    -0.242 NA
HETATM   14  C   UNL     1     -44.489  55.061 -60.383  1.00  0.00     0.017 A 
HETATM   15  C   UNL     1     -42.928  55.691 -58.385  1.00  0.00     0.032 A 
HETATM   16  C   UNL     1     -45.674  55.479 -60.987  1.00  0.00     0.020 A 
HETATM   17  C   UNL     1     -46.350  56.571 -60.460  1.00  0.00     0.119 A 
HETATM   18  C   UNL     1     -43.047  56.704 -57.456  1.00  0.00     0.093 A 
ENDBRANCH   9  10
ENDBRANCH   8   9
ENDBRANCH   7   8
ENDBRANCH   3   7
BRANCH   1  19
HETATM   19  C   UNL     1     -42.454  54.120 -53.018  1.00  0.00     0.071 A 
HETATM   20  C   UNL     1     -42.075  54.182 -51.666  1.00  0.00     0.095 A 
HETATM   21  C   UNL     1     -40.983  53.457 -51.189  1.00  0.00     0.041 A 
HETATM   22  C   UNL     1     -40.278  52.630 -52.063  1.00  0.00     0.026 A 
HETATM   23  C   UNL     1     -40.665  52.547 -53.402  1.00  0.00     0.036 A 
HETATM   24  C   UNL     1     -41.746  53.288 -53.885  1.00  0.00     0.056 A 
HETATM   25 CL   UNL     1     -39.782  51.527 -54.473  1.00  0.00    -0.084 Cl
BRANCH  20  26
HETATM   26  O   UNL     1     -42.782  55.000 -50.817  1.00  0.00    -0.354 OA
HETATM   27  C   UNL     1     -41.917  55.988 -50.252  1.00  0.00     0.210 C 
ENDBRANCH  20  26
ENDBRANCH   1  19
TORSDOF 6
ENDMDL
MODEL 7
REMARK VINA RESULT:      -6.7      4.053      6.527
REMARK  6 active torsions:
REMARK  status: ('A' for Active; 'I' for Inactive)
REMARK    1  A    between atoms: O_2  and  C_3 
REMARK    2  A    between atoms: C_4  and  N_5 
REMARK       I    between atoms: N_5  and  C_6 
REMARK       I    between atoms: C_6  and  N_7 
REMARK    3  A    between atoms: N_7  and  C_8 
REMARK    4  A    between atoms: C_8  and  C_9 
REMARK    5  A    between atoms: C_9  and  C_10 
REMARK    6  A    between atoms: C_10  and  N_11 
ROOT
HETATM    1  N   UNL     1     -40.953  54.766 -55.225  1.00  0.00    -0.306 N 
HETATM    2  C   UNL     1     -42.139  54.892 -55.907  1.00  0.00     0.320 C 
HETATM    3  N   UNL     1     -42.082  55.972 -56.767  1.00  0.00    -0.343 N 
HETATM    4  O   UNL     1     -43.141  54.210 -55.758  1.00  0.00    -0.247 OA
HETATM    5  H   UNL     1     -40.340  55.571 -55.241  1.00  0.00     0.171 HD
HETATM    6  H   UNL     1     -41.182  56.099 -57.211  1.00  0.00     0.164 HD
ENDROOT
BRANCH   3   7
HETATM    7  C   UNL     1     -43.245  56.372 -57.537  1.00  0.00     0.126 C 
BRANCH   7   8
HETATM    8  C   UNL     1     -43.425  55.552 -58.813  1.00  0.00     0.040 C 
BRANCH   8   9
HETATM    9  C   UNL     1     -43.632  56.442 -60.036  1.00  0.00     0.131 C 
BRANCH   9  10
HETATM   10  N   UNL     1     -45.034  56.738 -60.269  1.00  0.00    -0.341 N 
HETATM   11  C   UNL     1     -45.575  57.998 -60.301  1.00  0.00     0.139 A 
HETATM   12  C   UNL     1     -46.943  57.861 -60.526  1.00  0.00     0.011 A 
HETATM   13  N   UNL     1     -44.888  59.149 -60.145  1.00  0.00    -0.242 NA
HETATM   14  C   UNL     1     -47.708  59.036 -60.601  1.00  0.00     0.017 A 
HETATM   15  C   UNL     1     -47.212  56.470 -60.628  1.00  0.00     0.032 A 
HETATM   16  C   UNL     1     -47.045  60.252 -60.445  1.00  0.00     0.020 A 
HETATM   17  C   UNL     1     -45.673  60.247 -60.226  1.00  0.00     0.119 A 
HETATM   18  C   UNL     1     -46.017  55.800 -60.465  1.00  0.00     0.093 A 
ENDBRANCH   9  10
ENDBRANCH   8   9
ENDBRANCH   7   8
ENDBRANCH   3   7
BRANCH   1  19
HETATM   19  C   UNL     1     -40.608  53.782 -54.276  1.00  0.00     0.071 A 
HETATM   20  C   UNL     1     -40.645  54.160 -52.923  1.00  0.00     0.095 A 
HETATM   21  C   UNL     1     -40.273  53.271 -51.914  1.00  0.00     0.041 A 
HETATM   22  C   UNL     1     -39.894  51.974 -52.255  1.00  0.00     0.026 A 
HETATM   23  C   UNL     1     -39.878  51.585 -53.595  1.00  0.00     0.036 A 
HETATM   24  C   UNL     1     -40.231  52.481 -54.608  1.00  0.00     0.056 A 
HETATM   25 CL   UNL     1     -39.400  49.981 -54.003  1.00  0.00    -0.084 Cl
BRANCH  20  26
HETATM   26  O   UNL     1     -41.025  55.444 -52.606  1.00  0.00    -0.354 OA
HETATM   27  C   UNL     1     -42.270  55.428 -51.903  1.00  0.00     0.210 C 
ENDBRANCH  20  26
ENDBRANCH   1  19
TORSDOF 6
ENDMDL
MODEL 8
REMARK VINA RESULT:      -6.6      3.590      7.005
REMARK  6 active torsions:
REMARK  status: ('A' for Active; 'I' for Inactive)
REMARK    1  A    between atoms: O_2  and  C_3 
REMARK    2  A    between atoms: C_4  and  N_5 
REMARK       I    between atoms: N_5  and  C_6 
REMARK       I    between atoms: C_6  and  N_7 
REMARK    3  A    between atoms: N_7  and  C_8 
REMARK    4  A    between atoms: C_8  and  C_9 
REMARK    5  A    between atoms: C_9  and  C_10 
REMARK    6  A    between atoms: C_10  and  N_11 
ROOT
HETATM    1  N   UNL     1     -43.820  56.891 -56.782  1.00  0.00    -0.306 N 
HETATM    2  C   UNL     1     -43.388  57.102 -55.495  1.00  0.00     0.320 C 
HETATM    3  N   UNL     1     -44.228  56.468 -54.599  1.00  0.00    -0.343 N 
HETATM    4  O   UNL     1     -42.443  57.793 -55.148  1.00  0.00    -0.247 OA
HETATM    5  H   UNL     1     -44.768  56.554 -56.886  1.00  0.00     0.171 HD
HETATM    6  H   UNL     1     -44.570  55.572 -54.920  1.00  0.00     0.164 HD
ENDROOT
BRANCH   3   7
HETATM    7  C   UNL     1     -44.038  56.614 -53.169  1.00  0.00     0.126 C 
BRANCH   7   8
HETATM    8  C   UNL     1     -43.292  55.436 -52.544  1.00  0.00     0.040 C 
BRANCH   8   9
HETATM    9  C   UNL     1     -41.786  55.682 -52.487  1.00  0.00     0.131 C 
BRANCH   9  10
HETATM   10  N   UNL     1     -41.070  54.565 -51.897  1.00  0.00    -0.341 N 
HETATM   11  C   UNL     1     -40.625  53.467 -52.586  1.00  0.00     0.139 A 
HETATM   12  C   UNL     1     -40.010  52.616 -51.668  1.00  0.00     0.011 A 
HETATM   13  N   UNL     1     -40.764  53.265 -53.913  1.00  0.00    -0.242 NA
HETATM   14  C   UNL     1     -39.471  51.416 -52.157  1.00  0.00     0.017 A 
HETATM   15  C   UNL     1     -40.100  53.241 -50.396  1.00  0.00     0.032 A 
HETATM   16  C   UNL     1     -39.590  51.161 -53.523  1.00  0.00     0.020 A 
HETATM   17  C   UNL     1     -40.227  52.096 -54.328  1.00  0.00     0.119 A 
HETATM   18  C   UNL     1     -40.759  54.442 -50.565  1.00  0.00     0.093 A 
ENDBRANCH   9  10
ENDBRANCH   8   9
ENDBRANCH   7   8
ENDBRANCH   3   7
BRANCH   1  19
HETATM   19  C   UNL     1     -43.226  57.353 -57.974  1.00  0.00     0.071 A 
HETATM   20  C   UNL     1     -43.013  56.405 -58.989  1.00  0.00     0.095 A 
HETATM   21  C   UNL     1     -42.387  56.756 -60.185  1.00  0.00     0.041 A 
HETATM   22  C   UNL     1     -41.997  58.079 -60.388  1.00  0.00     0.026 A 
HETATM   23  C   UNL     1     -42.226  59.030 -59.392  1.00  0.00     0.036 A 
HETATM   24  C   UNL     1     -42.836  58.675 -58.186  1.00  0.00     0.056 A 
HETATM   25 CL   UNL     1     -41.734  60.659 -59.653  1.00  0.00    -0.084 Cl
BRANCH  20  26
HETATM   26  O   UNL     1     -43.407  55.105 -58.773  1.00  0.00    -0.354 OA
HETATM   27  C   UNL     1     -44.388  54.721 -59.739  1.00  0.00     0.210 C 
ENDBRANCH  20  26
ENDBRANCH   1  19
TORSDOF 6
ENDMDL
MODEL 9
REMARK VINA RESULT:      -6.6      2.696      5.301
REMARK  6 active torsions:
REMARK  status: ('A' for Active; 'I' for Inactive)
REMARK    1  A    between atoms: O_2  and  C_3 
REMARK    2  A    between atoms: C_4  and  N_5 
REMARK       I    between atoms: N_5  and  C_6 
REMARK       I    between atoms: C_6  and  N_7 
REMARK    3  A    between atoms: N_7  and  C_8 
REMARK    4  A    between atoms: C_8  and  C_9 
REMARK    5  A    between atoms: C_9  and  C_10 
REMARK    6  A    between atoms: C_10  and  N_11 
ROOT
HETATM    1  N   UNL     1     -43.039  54.821 -52.222  1.00  0.00    -0.306 N 
HETATM    2  C   UNL     1     -43.030  56.099 -52.727  1.00  0.00     0.320 C 
HETATM    3  N   UNL     1     -44.301  56.638 -52.688  1.00  0.00    -0.343 N 
HETATM    4  O   UNL     1     -42.071  56.685 -53.208  1.00  0.00    -0.247 OA
HETATM    5  H   UNL     1     -43.946  54.379 -52.143  1.00  0.00     0.171 HD
HETATM    6  H   UNL     1     -44.832  56.380 -51.866  1.00  0.00     0.164 HD
ENDROOT
BRANCH   3   7
HETATM    7  C   UNL     1     -44.572  57.947 -53.249  1.00  0.00     0.126 C 
BRANCH   7   8
HETATM    8  C   UNL     1     -44.919  57.899 -54.736  1.00  0.00     0.040 C 
BRANCH   8   9
HETATM    9  C   UNL     1     -43.820  58.516 -55.597  1.00  0.00     0.131 C 
BRANCH   9  10
HETATM   10  N   UNL     1     -43.401  57.631 -56.669  1.00  0.00    -0.341 N 
HETATM   11  C   UNL     1     -42.949  58.045 -57.896  1.00  0.00     0.139 A 
HETATM   12  C   UNL     1     -42.670  56.905 -58.647  1.00  0.00     0.011 A 
HETATM   13  N   UNL     1     -42.805  59.329 -58.285  1.00  0.00    -0.242 NA
HETATM   14  C   UNL     1     -42.186  57.090 -59.951  1.00  0.00     0.017 A 
HETATM   15  C   UNL     1     -42.971  55.783 -57.829  1.00  0.00     0.032 A 
HETATM   16  C   UNL     1     -42.020  58.399 -60.401  1.00  0.00     0.020 A 
HETATM   17  C   UNL     1     -42.336  59.448 -59.548  1.00  0.00     0.119 A 
HETATM   18  C   UNL     1     -43.421  56.260 -56.614  1.00  0.00     0.093 A 
ENDBRANCH   9  10
ENDBRANCH   8   9
ENDBRANCH   7   8
ENDBRANCH   3   7
BRANCH   1  19
HETATM   19  C   UNL     1     -41.943  53.948 -52.074  1.00  0.00     0.071 A 
HETATM   20  C   UNL     1     -41.373  53.852 -50.793  1.00  0.00     0.095 A 
HETATM   21  C   UNL     1     -40.255  53.052 -50.558  1.00  0.00     0.041 A 
HETATM   22  C   UNL     1     -39.716  52.308 -51.607  1.00  0.00     0.026 A 
HETATM   23  C   UNL     1     -40.292  52.382 -52.876  1.00  0.00     0.036 A 
HETATM   24  C   UNL     1     -41.400  53.198 -53.117  1.00  0.00     0.056 A 
HETATM   25 CL   UNL     1     -39.612  51.464 -54.165  1.00  0.00    -0.084 Cl
BRANCH  20  26
HETATM   26  O   UNL     1     -41.920  54.590 -49.769  1.00  0.00    -0.354 OA
HETATM   27  C   UNL     1     -40.987  54.700 -48.691  1.00  0.00     0.210 C 
ENDBRANCH  20  26
ENDBRANCH   1  19
TORSDOF 6
ENDMDL
MODEL 10
REMARK VINA RESULT:      -6.5      3.197      5.066
REMARK  6 active torsions:
REMARK  status: ('A' for Active; 'I' for Inactive)
REMARK    1  A    between atoms: O_2  and  C_3 
REMARK    2  A    between atoms: C_4  and  N_5 
REMARK       I    between atoms: N_5  and  C_6 
REMARK       I    between atoms: C_6  and  N_7 
REMARK    3  A    between atoms: N_7  and  C_8 
REMARK    4  A    between atoms: C_8  and  C_9 
REMARK    5  A    between atoms: C_9  and  C_10 
REMARK    6  A    between atoms: C_10  and  N_11 
ROOT
HETATM    1  N   UNL     1     -42.335  53.836 -54.249  1.00  0.00    -0.306 N 
HETATM    2  C   UNL     1     -42.074  54.787 -55.205  1.00  0.00     0.320 C 
HETATM    3  N   UNL     1     -43.060  54.774 -56.173  1.00  0.00    -0.343 N 
HETATM    4  O   UNL     1     -41.094  55.514 -55.261  1.00  0.00    -0.247 OA
HETATM    5  H   UNL     1     -43.013  53.127 -54.497  1.00  0.00     0.171 HD
HETATM    6  H   UNL     1     -43.990  54.606 -55.812  1.00  0.00     0.164 HD
ENDROOT
BRANCH   3   7
HETATM    7  C   UNL     1     -42.966  55.627 -57.343  1.00  0.00     0.126 C 
BRANCH   7   8
HETATM    8  C   UNL     1     -43.604  56.999 -57.133  1.00  0.00     0.040 C 
BRANCH   8   9
HETATM    9  C   UNL     1     -42.568  58.120 -57.171  1.00  0.00     0.131 C 
BRANCH   9  10
HETATM   10  N   UNL     1     -42.526  58.786 -58.460  1.00  0.00    -0.341 N 
HETATM   11  C   UNL     1     -41.882  59.970 -58.711  1.00  0.00     0.139 A 
HETATM   12  C   UNL     1     -42.093  60.286 -60.052  1.00  0.00     0.011 A 
HETATM   13  N   UNL     1     -41.174  60.683 -57.811  1.00  0.00    -0.242 NA
HETATM   14  C   UNL     1     -41.515  61.470 -60.537  1.00  0.00     0.017 A 
HETATM   15  C   UNL     1     -42.891  59.249 -60.605  1.00  0.00     0.032 A 
HETATM   16  C   UNL     1     -40.774  62.242 -59.644  1.00  0.00     0.020 A 
HETATM   17  C   UNL     1     -40.641  61.811 -58.331  1.00  0.00     0.119 A 
HETATM   18  C   UNL     1     -43.145  58.337 -59.601  1.00  0.00     0.093 A 
ENDBRANCH   9  10
ENDBRANCH   8   9
ENDBRANCH   7   8
ENDBRANCH   3   7
BRANCH   1  19
HETATM   19  C   UNL     1     -41.581  53.551 -53.093  1.00  0.00     0.071 A 
HETATM   20  C   UNL     1     -40.593  52.558 -53.205  1.00  0.00     0.095 A 
HETATM   21  C   UNL     1     -39.828  52.172 -52.104  1.00  0.00     0.041 A 
HETATM   22  C   UNL     1     -40.027  52.808 -50.879  1.00  0.00     0.026 A 
HETATM   23  C   UNL     1     -40.992  53.810 -50.767  1.00  0.00     0.036 A 
HETATM   24  C   UNL     1     -41.771  54.185 -51.865  1.00  0.00     0.056 A 
HETATM   25 CL   UNL     1     -41.232  54.583 -49.247  1.00  0.00    -0.084 Cl
BRANCH  20  26
HETATM   26  O   UNL     1     -40.408  51.943 -54.422  1.00  0.00    -0.354 OA
HETATM   27  C   UNL     1     -40.050  50.573 -54.230  1.00  0.00     0.210 C 
ENDBRANCH  20  26
ENDBRANCH   1  19
TORSDOF 6
ENDMDL
