MODEL 1
REMARK VINA RESULT:      -8.7      0.000      0.000
REMARK  8 active torsions:
REMARK  status: ('A' for Active; 'I' for Inactive)
REMARK    1  A    between atoms: C_5  and  C_6 
REMARK    2  A    between atoms: N_7  and  N_8 
REMARK       I    between atoms: N_8  and  C_9 
REMARK    3  A    between atoms: C_9  and  C_10 
REMARK    4  A    between atoms: N_11  and  C_12 
REMARK    5  A    between atoms: C_16  and  N_17 
REMARK    6  A    between atoms: C_20  and  C_21 
REMARK    7  A    between atoms: C_21  and  N_22 
REMARK    8  A    between atoms: C_30  and  O_31 
ROOT
HETATM    1  C   UNL     1     -43.995  57.218 -56.335  1.00  0.00     0.159 A 
HETATM    2  N   UNL     1     -44.504  57.535 -57.598  1.00  0.00    -0.184 N 
HETATM    3  N   UNL     1     -45.386  58.568 -57.458  1.00  0.00    -0.058 NA
HETATM    4  N   UNL     1     -45.426  58.956 -56.200  1.00  0.00    -0.132 NA
HETATM    5  C   UNL     1     -44.597  58.152 -55.489  1.00  0.00     0.118 A 
ENDROOT
BRANCH   1   6
HETATM    6  C   UNL     1     -43.051  56.221 -55.884  1.00  0.00     0.292 C 
HETATM    7  N   UNL     1     -43.515  55.002 -55.435  1.00  0.00    -0.242 N 
HETATM    8  H   UNL     1     -44.487  54.721 -55.550  1.00  0.00     0.192 HD
HETATM    9  O   UNL     1     -41.850  56.509 -55.860  1.00  0.00    -0.264 OA
BRANCH   7  10
HETATM   10  N   UNL     1     -42.628  54.079 -54.964  1.00  0.00    -0.183 NA
HETATM   11  C   UNL     1     -42.202  54.281 -53.755  1.00  0.00     0.153 C 
BRANCH  11  12
HETATM   12  C   UNL     1     -41.236  53.360 -53.122  1.00  0.00     0.017 A 
HETATM   13  C   UNL     1     -40.821  52.243 -53.855  1.00  0.00     0.034 A 
HETATM   14  C   UNL     1     -39.911  51.351 -53.284  1.00  0.00     0.012 A 
HETATM   15  C   UNL     1     -39.415  51.562 -51.998  1.00  0.00     0.022 A 
HETATM   16 BR   UNL     1     -39.348  49.839 -54.269  1.00  0.00    -0.051 Br
HETATM   17  C   UNL     1     -39.830  52.678 -51.270  1.00  0.00     0.039 A 
HETATM   18  C   UNL     1     -40.738  53.575 -51.830  1.00  0.00     0.077 A 
BRANCH  18  19
HETATM   19  O   UNL     1     -41.097  54.644 -51.056  1.00  0.00    -0.360 OA
HETATM   20  H   UNL     1     -40.907  54.413 -50.121  1.00  0.00     0.217 HD
ENDBRANCH  18  19
ENDBRANCH  11  12
ENDBRANCH   7  10
ENDBRANCH   1   6
BRANCH   2  21
HETATM   21  C   UNL     1     -44.224  57.005 -58.882  1.00  0.00     0.230 A 
HETATM   22  N   UNL     1     -42.996  57.070 -59.396  1.00  0.00    -0.081 NA
HETATM   23  O   UNL     1     -43.123  56.485 -60.657  1.00  0.00    -0.103 OA
HETATM   24  N   UNL     1     -44.420  56.052 -60.878  1.00  0.00    -0.083 NA
HETATM   25  C   UNL     1     -45.105  56.377 -59.783  1.00  0.00     0.201 A 
BRANCH  25  26
HETATM   26  N   UNL     1     -46.410  56.117 -59.602  1.00  0.00    -0.379 N 
HETATM   27  H   UNL     1     -46.714  55.519 -58.839  1.00  0.00     0.158 HD
HETATM   28  H   UNL     1     -47.136  56.367 -60.269  1.00  0.00     0.158 HD
ENDBRANCH  25  26
ENDBRANCH   2  21
BRANCH   5  29
HETATM   29  C   UNL     1     -44.480  58.343 -54.007  1.00  0.00     0.298 C 
BRANCH  29  30
HETATM   30  N   UNL     1     -43.082  58.266 -53.433  1.00  0.00    -0.066 N 
HETATM   31  H   UNL     1     -42.708  57.358 -53.783  1.00  0.00     0.280 HD
HETATM   32  C   UNL     1     -42.172  59.358 -53.928  1.00  0.00     0.235 C 
HETATM   33  C   UNL     1     -40.757  59.108 -53.424  1.00  0.00     0.028 C 
HETATM   34  C   UNL     1     -40.713  58.976 -51.906  1.00  0.00     0.003 C 
HETATM   35  C   UNL     1     -41.689  57.912 -51.419  1.00  0.00     0.028 C 
HETATM   36  C   UNL     1     -43.100  58.164 -51.932  1.00  0.00     0.235 C 
ENDBRANCH  29  30
ENDBRANCH   5  29
TORSDOF 8
ENDMDL
MODEL 2
REMARK VINA RESULT:      -8.5      2.151      5.612
REMARK  8 active torsions:
REMARK  status: ('A' for Active; 'I' for Inactive)
REMARK    1  A    between atoms: C_5  and  C_6 
REMARK    2  A    between atoms: N_7  and  N_8 
REMARK       I    between atoms: N_8  and  C_9 
REMARK    3  A    between atoms: C_9  and  C_10 
REMARK    4  A    between atoms: N_11  and  C_12 
REMARK    5  A    between atoms: C_16  and  N_17 
REMARK    6  A    between atoms: C_20  and  C_21 
REMARK    7  A    between atoms: C_21  and  N_22 
REMARK    8  A    between atoms: C_30  and  O_31 
ROOT
HETATM    1  C   UNL     1     -42.132  58.128 -54.395  1.00  0.00     0.159 A 
HETATM    2  N   UNL     1     -41.664  59.219 -53.655  1.00  0.00    -0.184 N 
HETATM    3  N   UNL     1     -42.248  60.351 -54.146  1.00  0.00    -0.058 NA
HETATM    4  N   UNL     1     -43.091  60.040 -55.109  1.00  0.00    -0.132 NA
HETATM    5  C   UNL     1     -43.041  58.697 -55.290  1.00  0.00     0.118 A 
ENDROOT
BRANCH   1   6
HETATM    6  C   UNL     1     -41.853  56.711 -54.330  1.00  0.00     0.292 C 
HETATM    7  N   UNL     1     -42.082  56.028 -53.153  1.00  0.00    -0.242 N 
HETATM    8  H   UNL     1     -42.581  56.453 -52.373  1.00  0.00     0.192 HD
HETATM    9  O   UNL     1     -41.363  56.157 -55.319  1.00  0.00    -0.264 OA
BRANCH   7  10
HETATM   10  N   UNL     1     -41.773  54.702 -53.077  1.00  0.00    -0.183 NA
HETATM   11  C   UNL     1     -40.885  54.386 -52.184  1.00  0.00     0.153 C 
BRANCH  11  12
HETATM   12  C   UNL     1     -40.455  52.986 -51.998  1.00  0.00     0.017 A 
HETATM   13  C   UNL     1     -40.213  52.218 -53.141  1.00  0.00     0.034 A 
HETATM   14  C   UNL     1     -39.809  50.889 -52.999  1.00  0.00     0.012 A 
HETATM   15  C   UNL     1     -39.645  50.323 -51.735  1.00  0.00     0.022 A 
HETATM   16 BR   UNL     1     -39.482  49.846 -54.542  1.00  0.00    -0.051 Br
HETATM   17  C   UNL     1     -39.886  51.093 -50.596  1.00  0.00     0.039 A 
HETATM   18  C   UNL     1     -40.290  52.420 -50.726  1.00  0.00     0.077 A 
BRANCH  18  19
HETATM   19  O   UNL     1     -40.507  53.109 -49.565  1.00  0.00    -0.360 OA
HETATM   20  H   UNL     1     -40.290  54.052 -49.733  1.00  0.00     0.217 HD
ENDBRANCH  18  19
ENDBRANCH  11  12
ENDBRANCH   7  10
ENDBRANCH   1   6
BRANCH   2  21
HETATM   21  C   UNL     1     -40.782  59.293 -52.549  1.00  0.00     0.230 A 
HETATM   22  N   UNL     1     -39.461  59.252 -52.722  1.00  0.00    -0.081 NA
HETATM   23  O   UNL     1     -38.944  59.318 -51.428  1.00  0.00    -0.103 OA
HETATM   24  N   UNL     1     -39.959  59.426 -50.491  1.00  0.00    -0.083 NA
HETATM   25  C   UNL     1     -41.098  59.406 -51.181  1.00  0.00     0.201 A 
BRANCH  25  26
HETATM   26  N   UNL     1     -42.319  59.496 -50.630  1.00  0.00    -0.379 N 
HETATM   27  H   UNL     1     -42.439  59.916 -49.712  1.00  0.00     0.158 HD
HETATM   28  H   UNL     1     -43.147  59.042 -51.007  1.00  0.00     0.158 HD
ENDBRANCH  25  26
ENDBRANCH   2  21
BRANCH   5  29
HETATM   29  C   UNL     1     -43.875  58.069 -56.364  1.00  0.00     0.298 C 
BRANCH  29  30
HETATM   30  N   UNL     1     -43.123  57.535 -57.565  1.00  0.00    -0.066 N 
HETATM   31  H   UNL     1     -42.255  57.118 -57.163  1.00  0.00     0.280 HD
HETATM   32  C   UNL     1     -43.861  56.445 -58.295  1.00  0.00     0.235 C 
HETATM   33  C   UNL     1     -42.966  55.867 -59.383  1.00  0.00     0.028 C 
HETATM   34  C   UNL     1     -42.462  56.948 -60.334  1.00  0.00     0.003 C 
HETATM   35  C   UNL     1     -41.777  58.074 -59.570  1.00  0.00     0.028 C 
HETATM   36  C   UNL     1     -42.674  58.643 -58.479  1.00  0.00     0.235 C 
ENDBRANCH  29  30
ENDBRANCH   5  29
TORSDOF 8
ENDMDL
MODEL 3
REMARK VINA RESULT:      -8.4      3.475      7.449
REMARK  8 active torsions:
REMARK  status: ('A' for Active; 'I' for Inactive)
REMARK    1  A    between atoms: C_5  and  C_6 
REMARK    2  A    between atoms: N_7  and  N_8 
REMARK       I    between atoms: N_8  and  C_9 
REMARK    3  A    between atoms: C_9  and  C_10 
REMARK    4  A    between atoms: N_11  and  C_12 
REMARK    5  A    between atoms: C_16  and  N_17 
REMARK    6  A    between atoms: C_20  and  C_21 
REMARK    7  A    between atoms: C_21  and  N_22 
REMARK    8  A    between atoms: C_30  and  O_31 
ROOT
HETATM    1  C   UNL     1     -40.738  53.978 -52.861  1.00  0.00     0.159 A 
HETATM    2  N   UNL     1     -40.391  52.709 -52.385  1.00  0.00    -0.184 N 
HETATM    3  N   UNL     1     -40.413  52.744 -51.020  1.00  0.00    -0.058 NA
HETATM    4  N   UNL     1     -40.800  53.933 -50.607  1.00  0.00    -0.132 NA
HETATM    5  C   UNL     1     -41.000  54.710 -51.701  1.00  0.00     0.118 A 
ENDROOT
BRANCH   1   6
HETATM    6  C   UNL     1     -40.865  54.520 -54.195  1.00  0.00     0.292 C 
HETATM    7  N   UNL     1     -41.953  54.171 -54.968  1.00  0.00    -0.242 N 
HETATM    8  H   UNL     1     -42.748  53.665 -54.581  1.00  0.00     0.192 HD
HETATM    9  O   UNL     1     -39.962  55.242 -54.630  1.00  0.00    -0.264 OA
BRANCH   7  10
HETATM   10  N   UNL     1     -42.048  54.644 -56.244  1.00  0.00    -0.183 NA
HETATM   11  C   UNL     1     -42.887  55.619 -56.418  1.00  0.00     0.153 C 
BRANCH  11  12
HETATM   12  C   UNL     1     -43.090  56.222 -57.750  1.00  0.00     0.017 A 
HETATM   13  C   UNL     1     -42.629  57.526 -57.956  1.00  0.00     0.034 A 
HETATM   14  C   UNL     1     -42.810  58.127 -59.203  1.00  0.00     0.012 A 
HETATM   15  C   UNL     1     -43.441  57.442 -60.241  1.00  0.00     0.022 A 
HETATM   16 BR   UNL     1     -42.189  59.890 -59.485  1.00  0.00    -0.051 Br
HETATM   17  C   UNL     1     -43.899  56.140 -60.033  1.00  0.00     0.039 A 
HETATM   18  C   UNL     1     -43.725  55.531 -58.792  1.00  0.00     0.077 A 
BRANCH  18  19
HETATM   19  O   UNL     1     -44.200  54.255 -58.665  1.00  0.00    -0.360 OA
HETATM   20  H   UNL     1     -45.176  54.288 -58.768  1.00  0.00     0.217 HD
ENDBRANCH  18  19
ENDBRANCH  11  12
ENDBRANCH   7  10
ENDBRANCH   1   6
BRANCH   2  21
HETATM   21  C   UNL     1     -40.089  51.503 -53.063  1.00  0.00     0.230 A 
HETATM   22  N   UNL     1     -40.224  51.409 -54.387  1.00  0.00    -0.081 NA
HETATM   23  O   UNL     1     -39.870  50.090 -54.673  1.00  0.00    -0.103 OA
HETATM   24  N   UNL     1     -39.500  49.411 -53.523  1.00  0.00    -0.083 NA
HETATM   25  C   UNL     1     -39.640  50.282 -52.524  1.00  0.00     0.201 A 
BRANCH  25  26
HETATM   26  N   UNL     1     -39.371  50.007 -51.238  1.00  0.00    -0.379 N 
HETATM   27  H   UNL     1     -38.533  49.489 -50.987  1.00  0.00     0.158 HD
HETATM   28  H   UNL     1     -40.026  50.161 -50.476  1.00  0.00     0.158 HD
ENDBRANCH  25  26
ENDBRANCH   2  21
BRANCH   5  29
HETATM   29  C   UNL     1     -41.408  56.140 -51.522  1.00  0.00     0.298 C 
BRANCH  29  30
HETATM   30  N   UNL     1     -42.171  56.764 -52.670  1.00  0.00    -0.066 N 
HETATM   31  H   UNL     1     -42.039  56.098 -53.462  1.00  0.00     0.280 HD
HETATM   32  C   UNL     1     -43.648  56.883 -52.411  1.00  0.00     0.235 C 
HETATM   33  C   UNL     1     -44.347  57.372 -53.673  1.00  0.00     0.028 C 
HETATM   34  C   UNL     1     -43.752  58.682 -54.178  1.00  0.00     0.003 C 
HETATM   35  C   UNL     1     -42.245  58.560 -54.371  1.00  0.00     0.028 C 
HETATM   36  C   UNL     1     -41.553  58.065 -53.109  1.00  0.00     0.235 C 
ENDBRANCH  29  30
ENDBRANCH   5  29
TORSDOF 8
ENDMDL
MODEL 4
REMARK VINA RESULT:      -8.4      3.379      7.298
REMARK  8 active torsions:
REMARK  status: ('A' for Active; 'I' for Inactive)
REMARK    1  A    between atoms: C_5  and  C_6 
REMARK    2  A    between atoms: N_7  and  N_8 
REMARK       I    between atoms: N_8  and  C_9 
REMARK    3  A    between atoms: C_9  and  C_10 
REMARK    4  A    between atoms: N_11  and  C_12 
REMARK    5  A    between atoms: C_16  and  N_17 
REMARK    6  A    between atoms: C_20  and  C_21 
REMARK    7  A    between atoms: C_21  and  N_22 
REMARK    8  A    between atoms: C_30  and  O_31 
ROOT
HETATM    1  C   UNL     1     -41.093  53.465 -52.417  1.00  0.00     0.159 A 
HETATM    2  N   UNL     1     -40.239  52.379 -52.196  1.00  0.00    -0.184 N 
HETATM    3  N   UNL     1     -39.690  52.513 -50.953  1.00  0.00    -0.058 NA
HETATM    4  N   UNL     1     -40.180  53.580 -50.358  1.00  0.00    -0.132 NA
HETATM    5  C   UNL     1     -41.032  54.186 -51.222  1.00  0.00     0.118 A 
ENDROOT
BRANCH   1   6
HETATM    6  C   UNL     1     -41.918  53.846 -53.540  1.00  0.00     0.292 C 
HETATM    7  N   UNL     1     -41.320  54.193 -54.734  1.00  0.00    -0.242 N 
HETATM    8  H   UNL     1     -40.325  54.047 -54.899  1.00  0.00     0.192 HD
HETATM    9  O   UNL     1     -43.142  53.903 -53.385  1.00  0.00    -0.264 OA
BRANCH   7  10
HETATM   10  N   UNL     1     -42.095  54.600 -55.780  1.00  0.00    -0.183 NA
HETATM   11  C   UNL     1     -42.028  55.864 -56.067  1.00  0.00     0.153 C 
BRANCH  11  12
HETATM   12  C   UNL     1     -42.818  56.438 -57.173  1.00  0.00     0.017 A 
HETATM   13  C   UNL     1     -43.364  55.559 -58.114  1.00  0.00     0.034 A 
HETATM   14  C   UNL     1     -44.113  56.070 -59.175  1.00  0.00     0.012 A 
HETATM   15  C   UNL     1     -44.322  57.443 -59.305  1.00  0.00     0.022 A 
HETATM   16 BR   UNL     1     -44.850  54.885 -60.450  1.00  0.00    -0.051 Br
HETATM   17  C   UNL     1     -43.778  58.318 -58.364  1.00  0.00     0.039 A 
HETATM   18  C   UNL     1     -43.028  57.818 -57.301  1.00  0.00     0.077 A 
BRANCH  18  19
HETATM   19  O   UNL     1     -42.528  58.738 -56.421  1.00  0.00    -0.360 OA
HETATM   20  H   UNL     1     -42.033  58.249 -55.728  1.00  0.00     0.217 HD
ENDBRANCH  18  19
ENDBRANCH  11  12
ENDBRANCH   7  10
ENDBRANCH   1   6
BRANCH   2  21
HETATM   21  C   UNL     1     -39.930  51.251 -52.995  1.00  0.00     0.230 A 
HETATM   22  N   UNL     1     -39.936  51.332 -54.325  1.00  0.00    -0.081 NA
HETATM   23  O   UNL     1     -39.620  50.040 -54.747  1.00  0.00    -0.103 OA
HETATM   24  N   UNL     1     -39.401  49.201 -53.666  1.00  0.00    -0.083 NA
HETATM   25  C   UNL     1     -39.598  49.946 -52.580  1.00  0.00     0.201 A 
BRANCH  25  26
HETATM   26  N   UNL     1     -39.474  49.497 -51.321  1.00  0.00    -0.379 N 
HETATM   27  H   UNL     1     -39.010  48.612 -51.135  1.00  0.00     0.158 HD
HETATM   28  H   UNL     1     -39.939  49.916 -50.520  1.00  0.00     0.158 HD
ENDBRANCH  25  26
ENDBRANCH   2  21
BRANCH   5  29
HETATM   29  C   UNL     1     -41.706  55.461 -50.818  1.00  0.00     0.298 C 
BRANCH  29  30
HETATM   30  N   UNL     1     -41.153  56.730 -51.431  1.00  0.00    -0.066 N 
HETATM   31  H   UNL     1     -40.206  56.461 -51.774  1.00  0.00     0.280 HD
HETATM   32  C   UNL     1     -41.948  57.219 -52.611  1.00  0.00     0.235 C 
HETATM   33  C   UNL     1     -41.232  58.400 -53.252  1.00  0.00     0.028 C 
HETATM   34  C   UNL     1     -40.967  59.515 -52.245  1.00  0.00     0.003 C 
HETATM   35  C   UNL     1     -40.219  58.986 -51.027  1.00  0.00     0.028 C 
HETATM   36  C   UNL     1     -40.936  57.801 -50.395  1.00  0.00     0.235 C 
ENDBRANCH  29  30
ENDBRANCH   5  29
TORSDOF 8
ENDMDL
MODEL 5
REMARK VINA RESULT:      -8.3      2.410      5.216
REMARK  8 active torsions:
REMARK  status: ('A' for Active; 'I' for Inactive)
REMARK    1  A    between atoms: C_5  and  C_6 
REMARK    2  A    between atoms: N_7  and  N_8 
REMARK       I    between atoms: N_8  and  C_9 
REMARK    3  A    between atoms: C_9  and  C_10 
REMARK    4  A    between atoms: N_11  and  C_12 
REMARK    5  A    between atoms: C_16  and  N_17 
REMARK    6  A    between atoms: C_20  and  C_21 
REMARK    7  A    between atoms: C_21  and  N_22 
REMARK    8  A    between atoms: C_30  and  O_31 
ROOT
HETATM    1  C   UNL     1     -43.416  58.820 -54.261  1.00  0.00     0.159 A 
HETATM    2  N   UNL     1     -44.576  59.309 -53.652  1.00  0.00    -0.184 N 
HETATM    3  N   UNL     1     -45.187  60.167 -54.522  1.00  0.00    -0.058 NA
HETATM    4  N   UNL     1     -44.518  60.209 -55.655  1.00  0.00    -0.132 NA
HETATM    5  C   UNL     1     -43.432  59.406 -55.528  1.00  0.00     0.118 A 
ENDROOT
BRANCH   1   6
HETATM    6  C   UNL     1     -42.390  57.905 -53.814  1.00  0.00     0.292 C 
HETATM    7  N   UNL     1     -42.688  56.565 -53.679  1.00  0.00    -0.242 N 
HETATM    8  H   UNL     1     -43.561  56.171 -54.024  1.00  0.00     0.192 HD
HETATM    9  O   UNL     1     -41.282  58.359 -53.512  1.00  0.00    -0.264 OA
BRANCH   7  10
HETATM   10  N   UNL     1     -41.734  55.710 -53.210  1.00  0.00    -0.183 NA
HETATM   11  C   UNL     1     -41.997  54.447 -53.354  1.00  0.00     0.153 C 
BRANCH  11  12
HETATM   12  C   UNL     1     -41.052  53.413 -52.888  1.00  0.00     0.017 A 
HETATM   13  C   UNL     1     -40.774  52.345 -53.747  1.00  0.00     0.034 A 
HETATM   14  C   UNL     1     -39.888  51.348 -53.335  1.00  0.00     0.012 A 
HETATM   15  C   UNL     1     -39.279  51.408 -52.082  1.00  0.00     0.022 A 
HETATM   16 BR   UNL     1     -39.511  49.901 -54.492  1.00  0.00    -0.051 Br
HETATM   17  C   UNL     1     -39.557  52.475 -51.227  1.00  0.00     0.039 A 
HETATM   18  C   UNL     1     -40.440  53.475 -51.628  1.00  0.00     0.077 A 
BRANCH  18  19
HETATM   19  O   UNL     1     -40.662  54.489 -50.736  1.00  0.00    -0.360 OA
HETATM   20  H   UNL     1     -41.401  55.034 -51.083  1.00  0.00     0.217 HD
ENDBRANCH  18  19
ENDBRANCH  11  12
ENDBRANCH   7  10
ENDBRANCH   1   6
BRANCH   2  21
HETATM   21  C   UNL     1     -45.165  59.031 -52.393  1.00  0.00     0.230 A 
HETATM   22  N   UNL     1     -44.976  57.855 -51.794  1.00  0.00    -0.081 NA
HETATM   23  O   UNL     1     -45.722  57.947 -50.619  1.00  0.00    -0.103 OA
HETATM   24  N   UNL     1     -46.330  59.188 -50.510  1.00  0.00    -0.083 NA
HETATM   25  C   UNL     1     -45.992  59.859 -51.609  1.00  0.00     0.201 A 
BRANCH  25  26
HETATM   26  N   UNL     1     -46.381  61.115 -51.878  1.00  0.00    -0.379 N 
HETATM   27  H   UNL     1     -47.110  61.292 -52.564  1.00  0.00     0.158 HD
HETATM   28  H   UNL     1     -45.897  61.943 -51.541  1.00  0.00     0.158 HD
ENDBRANCH  25  26
ENDBRANCH   2  21
BRANCH   5  29
HETATM   29  C   UNL     1     -42.461  59.299 -56.664  1.00  0.00     0.298 C 
BRANCH  29  30
HETATM   30  N   UNL     1     -42.834  58.336 -57.771  1.00  0.00    -0.066 N 
HETATM   31  H   UNL     1     -43.825  58.571 -57.995  1.00  0.00     0.280 HD
HETATM   32  C   UNL     1     -42.022  58.522 -59.023  1.00  0.00     0.235 C 
HETATM   33  C   UNL     1     -42.571  57.624 -60.123  1.00  0.00     0.028 C 
HETATM   34  C   UNL     1     -42.618  56.163 -59.689  1.00  0.00     0.003 C 
HETATM   35  C   UNL     1     -43.389  56.004 -58.384  1.00  0.00     0.028 C 
HETATM   36  C   UNL     1     -42.839  56.909 -57.290  1.00  0.00     0.235 C 
ENDBRANCH  29  30
ENDBRANCH   5  29
TORSDOF 8
ENDMDL
MODEL 6
REMARK VINA RESULT:      -8.2      3.514      7.831
REMARK  8 active torsions:
REMARK  status: ('A' for Active; 'I' for Inactive)
REMARK    1  A    between atoms: C_5  and  C_6 
REMARK    2  A    between atoms: N_7  and  N_8 
REMARK       I    between atoms: N_8  and  C_9 
REMARK    3  A    between atoms: C_9  and  C_10 
REMARK    4  A    between atoms: N_11  and  C_12 
REMARK    5  A    between atoms: C_16  and  N_17 
REMARK    6  A    between atoms: C_20  and  C_21 
REMARK    7  A    between atoms: C_21  and  N_22 
REMARK    8  A    between atoms: C_30  and  O_31 
ROOT
HETATM    1  C   UNL     1     -41.751  55.263 -52.030  1.00  0.00     0.159 A 
HETATM    2  N   UNL     1     -42.613  55.694 -51.016  1.00  0.00    -0.184 N 
HETATM    3  N   UNL     1     -42.281  55.038 -49.865  1.00  0.00    -0.058 NA
HETATM    4  N   UNL     1     -41.238  54.263 -50.075  1.00  0.00    -0.132 NA
HETATM    5  C   UNL     1     -40.894  54.371 -51.383  1.00  0.00     0.118 A 
ENDROOT
BRANCH   1   6
HETATM    6  C   UNL     1     -41.646  55.601 -53.431  1.00  0.00     0.292 C 
HETATM    7  N   UNL     1     -42.432  54.937 -54.350  1.00  0.00    -0.242 N 
HETATM    8  H   UNL     1     -43.191  54.322 -54.064  1.00  0.00     0.192 HD
HETATM    9  O   UNL     1     -40.810  56.443 -53.777  1.00  0.00    -0.264 OA
BRANCH   7  10
HETATM   10  N   UNL     1     -42.297  55.222 -55.678  1.00  0.00    -0.183 NA
HETATM   11  C   UNL     1     -43.102  56.129 -56.139  1.00  0.00     0.153 C 
BRANCH  11  12
HETATM   12  C   UNL     1     -43.066  56.531 -57.559  1.00  0.00     0.017 A 
HETATM   13  C   UNL     1     -42.610  57.818 -57.864  1.00  0.00     0.034 A 
HETATM   14  C   UNL     1     -42.567  58.230 -59.197  1.00  0.00     0.012 A 
HETATM   15  C   UNL     1     -42.971  57.375 -60.222  1.00  0.00     0.022 A 
HETATM   16 BR   UNL     1     -41.954  59.969 -59.614  1.00  0.00    -0.051 Br
HETATM   17  C   UNL     1     -43.424  56.091 -59.915  1.00  0.00     0.039 A 
HETATM   18  C   UNL     1     -43.471  55.670 -58.588  1.00  0.00     0.077 A 
BRANCH  18  19
HETATM   19  O   UNL     1     -43.926  54.399 -58.366  1.00  0.00    -0.360 OA
HETATM   20  H   UNL     1     -44.907  54.429 -58.370  1.00  0.00     0.217 HD
ENDBRANCH  18  19
ENDBRANCH  11  12
ENDBRANCH   7  10
ENDBRANCH   1   6
BRANCH   2  21
HETATM   21  C   UNL     1     -43.653  56.656 -51.014  1.00  0.00     0.230 A 
HETATM   22  N   UNL     1     -44.865  56.352 -50.549  1.00  0.00    -0.081 NA
HETATM   23  O   UNL     1     -45.606  57.519 -50.738  1.00  0.00    -0.103 OA
HETATM   24  N   UNL     1     -44.825  58.522 -51.291  1.00  0.00    -0.083 NA
HETATM   25  C   UNL     1     -43.618  57.989 -51.468  1.00  0.00     0.201 A 
BRANCH  25  26
HETATM   26  N   UNL     1     -42.567  58.649 -51.979  1.00  0.00    -0.379 N 
HETATM   27  H   UNL     1     -42.700  59.537 -52.455  1.00  0.00     0.158 HD
HETATM   28  H   UNL     1     -41.631  58.258 -52.051  1.00  0.00     0.158 HD
ENDBRANCH  25  26
ENDBRANCH   2  21
BRANCH   5  29
HETATM   29  C   UNL     1     -39.755  53.555 -51.913  1.00  0.00     0.298 C 
BRANCH  29  30
HETATM   30  N   UNL     1     -40.115  52.200 -52.485  1.00  0.00    -0.066 N 
HETATM   31  H   UNL     1     -41.100  52.045 -52.182  1.00  0.00     0.280 HD
HETATM   32  C   UNL     1     -40.085  52.160 -53.989  1.00  0.00     0.235 C 
HETATM   33  C   UNL     1     -40.609  50.814 -54.471  1.00  0.00     0.028 C 
HETATM   34  C   UNL     1     -39.836  49.653 -53.856  1.00  0.00     0.003 C 
HETATM   35  C   UNL     1     -39.822  49.748 -52.336  1.00  0.00     0.028 C 
HETATM   36  C   UNL     1     -39.303  51.097 -51.859  1.00  0.00     0.235 C 
ENDBRANCH  29  30
ENDBRANCH   5  29
TORSDOF 8
ENDMDL
MODEL 7
REMARK VINA RESULT:      -7.9      1.761      2.224
REMARK  8 active torsions:
REMARK  status: ('A' for Active; 'I' for Inactive)
REMARK    1  A    between atoms: C_5  and  C_6 
REMARK    2  A    between atoms: N_7  and  N_8 
REMARK       I    between atoms: N_8  and  C_9 
REMARK    3  A    between atoms: C_9  and  C_10 
REMARK    4  A    between atoms: N_11  and  C_12 
REMARK    5  A    between atoms: C_16  and  N_17 
REMARK    6  A    between atoms: C_20  and  C_21 
REMARK    7  A    between atoms: C_21  and  N_22 
REMARK    8  A    between atoms: C_30  and  O_31 
ROOT
HETATM    1  C   UNL     1     -42.927  57.788 -56.868  1.00  0.00     0.159 A 
HETATM    2  N   UNL     1     -43.312  57.915 -58.206  1.00  0.00    -0.184 N 
HETATM    3  N   UNL     1     -43.323  59.243 -58.525  1.00  0.00    -0.058 NA
HETATM    4  N   UNL     1     -42.921  59.956 -57.492  1.00  0.00    -0.132 NA
HETATM    5  C   UNL     1     -42.678  59.103 -56.466  1.00  0.00     0.118 A 
ENDROOT
BRANCH   1   6
HETATM    6  C   UNL     1     -42.757  56.642 -56.005  1.00  0.00     0.292 C 
HETATM    7  N   UNL     1     -41.659  55.823 -56.173  1.00  0.00    -0.242 N 
HETATM    8  H   UNL     1     -40.886  56.080 -56.783  1.00  0.00     0.192 HD
HETATM    9  O   UNL     1     -43.633  56.393 -55.170  1.00  0.00    -0.264 OA
BRANCH   7  10
HETATM   10  N   UNL     1     -41.524  54.713 -55.391  1.00  0.00    -0.183 NA
HETATM   11  C   UNL     1     -40.640  54.801 -54.445  1.00  0.00     0.153 C 
BRANCH  11  12
HETATM   12  C   UNL     1     -40.390  53.672 -53.527  1.00  0.00     0.017 A 
HETATM   13  C   UNL     1     -40.068  52.432 -54.088  1.00  0.00     0.034 A 
HETATM   14  C   UNL     1     -39.830  51.342 -53.248  1.00  0.00     0.012 A 
HETATM   15  C   UNL     1     -39.908  51.479 -51.863  1.00  0.00     0.022 A 
HETATM   16 BR   UNL     1     -39.397  49.663 -54.002  1.00  0.00    -0.051 Br
HETATM   17  C   UNL     1     -40.227  52.718 -51.306  1.00  0.00     0.039 A 
HETATM   18  C   UNL     1     -40.467  53.812 -52.134  1.00  0.00     0.077 A 
BRANCH  18  19
HETATM   19  O   UNL     1     -40.775  54.992 -51.515  1.00  0.00    -0.360 OA
HETATM   20  H   UNL     1     -39.931  55.417 -51.248  1.00  0.00     0.217 HD
ENDBRANCH  18  19
ENDBRANCH  11  12
ENDBRANCH   7  10
ENDBRANCH   1   6
BRANCH   2  21
HETATM   21  C   UNL     1     -43.622  56.944 -59.190  1.00  0.00     0.230 A 
HETATM   22  N   UNL     1     -43.107  55.716 -59.126  1.00  0.00    -0.081 NA
HETATM   23  O   UNL     1     -43.609  55.076 -60.259  1.00  0.00    -0.103 OA
HETATM   24  N   UNL     1     -44.443  55.916 -60.979  1.00  0.00    -0.083 NA
HETATM   25  C   UNL     1     -44.449  57.075 -60.322  1.00  0.00     0.201 A 
BRANCH  25  26
HETATM   26  N   UNL     1     -45.151  58.155 -60.700  1.00  0.00    -0.379 N 
HETATM   27  H   UNL     1     -44.879  58.681 -61.526  1.00  0.00     0.158 HD
HETATM   28  H   UNL     1     -45.878  58.585 -60.135  1.00  0.00     0.158 HD
ENDBRANCH  25  26
ENDBRANCH   2  21
BRANCH   5  29
HETATM   29  C   UNL     1     -42.245  59.651 -55.141  1.00  0.00     0.298 C 
BRANCH  29  30
HETATM   30  N   UNL     1     -43.292  60.423 -54.365  1.00  0.00    -0.066 N 
HETATM   31  H   UNL     1     -43.527  61.231 -54.981  1.00  0.00     0.280 HD
HETATM   32  C   UNL     1     -44.556  59.642 -54.128  1.00  0.00     0.235 C 
HETATM   33  C   UNL     1     -45.598  60.546 -53.484  1.00  0.00     0.028 C 
HETATM   34  C   UNL     1     -45.077  61.187 -52.202  1.00  0.00     0.003 C 
HETATM   35  C   UNL     1     -43.763  61.917 -52.450  1.00  0.00     0.028 C 
HETATM   36  C   UNL     1     -42.727  61.010 -53.099  1.00  0.00     0.235 C 
ENDBRANCH  29  30
ENDBRANCH   5  29
TORSDOF 8
ENDMDL
MODEL 8
REMARK VINA RESULT:      -7.7      2.498      5.854
REMARK  8 active torsions:
REMARK  status: ('A' for Active; 'I' for Inactive)
REMARK    1  A    between atoms: C_5  and  C_6 
REMARK    2  A    between atoms: N_7  and  N_8 
REMARK       I    between atoms: N_8  and  C_9 
REMARK    3  A    between atoms: C_9  and  C_10 
REMARK    4  A    between atoms: N_11  and  C_12 
REMARK    5  A    between atoms: C_16  and  N_17 
REMARK    6  A    between atoms: C_20  and  C_21 
REMARK    7  A    between atoms: C_21  and  N_22 
REMARK    8  A    between atoms: C_30  and  O_31 
ROOT
HETATM    1  C   UNL     1     -42.560  59.044 -54.233  1.00  0.00     0.159 A 
HETATM    2  N   UNL     1     -42.141  59.903 -53.212  1.00  0.00    -0.184 N 
HETATM    3  N   UNL     1     -42.707  61.128 -53.424  1.00  0.00    -0.058 NA
HETATM    4  N   UNL     1     -43.494  61.082 -54.479  1.00  0.00    -0.132 NA
HETATM    5  C   UNL     1     -43.423  59.831 -54.999  1.00  0.00     0.118 A 
ENDROOT
BRANCH   1   6
HETATM    6  C   UNL     1     -42.274  57.657 -54.522  1.00  0.00     0.292 C 
HETATM    7  N   UNL     1     -42.181  56.754 -53.483  1.00  0.00    -0.242 N 
HETATM    8  H   UNL     1     -42.455  56.997 -52.533  1.00  0.00     0.192 HD
HETATM    9  O   UNL     1     -42.064  57.326 -55.693  1.00  0.00    -0.264 OA
BRANCH   7  10
HETATM   10  N   UNL     1     -41.863  55.454 -53.751  1.00  0.00    -0.183 NA
HETATM   11  C   UNL     1     -40.943  54.938 -52.996  1.00  0.00     0.153 C 
BRANCH  11  12
HETATM   12  C   UNL     1     -40.500  53.541 -53.179  1.00  0.00     0.017 A 
HETATM   13  C   UNL     1     -40.401  52.731 -52.044  1.00  0.00     0.034 A 
HETATM   14  C   UNL     1     -39.980  51.407 -52.183  1.00  0.00     0.012 A 
HETATM   15  C   UNL     1     -39.661  50.887 -53.437  1.00  0.00     0.022 A 
HETATM   16 BR   UNL     1     -39.843  50.308 -50.651  1.00  0.00    -0.051 Br
HETATM   17  C   UNL     1     -39.762  51.698 -54.569  1.00  0.00     0.039 A 
HETATM   18  C   UNL     1     -40.180  53.021 -54.441  1.00  0.00     0.077 A 
BRANCH  18  19
HETATM   19  O   UNL     1     -40.254  53.752 -55.595  1.00  0.00    -0.360 OA
HETATM   20  H   UNL     1     -39.725  54.568 -55.465  1.00  0.00     0.217 HD
ENDBRANCH  18  19
ENDBRANCH  11  12
ENDBRANCH   7  10
ENDBRANCH   1   6
BRANCH   2  21
HETATM   21  C   UNL     1     -41.321  59.683 -52.078  1.00  0.00     0.230 A 
HETATM   22  N   UNL     1     -40.073  59.235 -52.212  1.00  0.00    -0.081 NA
HETATM   23  O   UNL     1     -39.609  59.119 -50.901  1.00  0.00    -0.103 OA
HETATM   24  N   UNL     1     -40.574  59.524 -49.993  1.00  0.00    -0.083 NA
HETATM   25  C   UNL     1     -41.636  59.869 -50.718  1.00  0.00     0.201 A 
BRANCH  25  26
HETATM   26  N   UNL     1     -42.788  60.328 -50.202  1.00  0.00    -0.379 N 
HETATM   27  H   UNL     1     -42.890  61.311 -49.967  1.00  0.00     0.158 HD
HETATM   28  H   UNL     1     -43.548  59.729 -49.891  1.00  0.00     0.158 HD
ENDBRANCH  25  26
ENDBRANCH   2  21
BRANCH   5  29
HETATM   29  C   UNL     1     -44.192  59.508 -56.243  1.00  0.00     0.298 C 
BRANCH  29  30
HETATM   30  N   UNL     1     -43.373  59.310 -57.501  1.00  0.00    -0.066 N 
HETATM   31  H   UNL     1     -42.487  58.875 -57.166  1.00  0.00     0.280 HD
HETATM   32  C   UNL     1     -44.008  58.363 -58.483  1.00  0.00     0.235 C 
HETATM   33  C   UNL     1     -43.045  58.107 -59.635  1.00  0.00     0.028 C 
HETATM   34  C   UNL     1     -42.603  59.405 -60.301  1.00  0.00     0.003 C 
HETATM   35  C   UNL     1     -42.024  60.376 -59.280  1.00  0.00     0.028 C 
HETATM   36  C   UNL     1     -42.988  60.623 -58.127  1.00  0.00     0.235 C 
ENDBRANCH  29  30
ENDBRANCH   5  29
TORSDOF 8
ENDMDL
MODEL 9
REMARK VINA RESULT:      -7.7      3.649      6.578
REMARK  8 active torsions:
REMARK  status: ('A' for Active; 'I' for Inactive)
REMARK    1  A    between atoms: C_5  and  C_6 
REMARK    2  A    between atoms: N_7  and  N_8 
REMARK       I    between atoms: N_8  and  C_9 
REMARK    3  A    between atoms: C_9  and  C_10 
REMARK    4  A    between atoms: N_11  and  C_12 
REMARK    5  A    between atoms: C_16  and  N_17 
REMARK    6  A    between atoms: C_20  and  C_21 
REMARK    7  A    between atoms: C_21  and  N_22 
REMARK    8  A    between atoms: C_30  and  O_31 
ROOT
HETATM    1  C   UNL     1     -43.728  60.313 -51.621  1.00  0.00     0.159 A 
HETATM    2  N   UNL     1     -44.771  60.856 -50.864  1.00  0.00    -0.184 N 
HETATM    3  N   UNL     1     -45.329  61.879 -51.576  1.00  0.00    -0.058 NA
HETATM    4  N   UNL     1     -44.742  61.982 -52.751  1.00  0.00    -0.132 NA
HETATM    5  C   UNL     1     -43.759  61.049 -52.808  1.00  0.00     0.118 A 
ENDROOT
BRANCH   1   6
HETATM    6  C   UNL     1     -42.796  59.238 -51.370  1.00  0.00     0.292 C 
HETATM    7  N   UNL     1     -43.275  57.963 -51.148  1.00  0.00    -0.242 N 
HETATM    8  H   UNL     1     -44.252  57.721 -51.302  1.00  0.00     0.192 HD
HETATM    9  O   UNL     1     -41.591  59.500 -51.306  1.00  0.00    -0.264 OA
BRANCH   7  10
HETATM   10  N   UNL     1     -42.398  56.957 -50.862  1.00  0.00    -0.183 NA
HETATM   11  C   UNL     1     -42.457  55.926 -51.647  1.00  0.00     0.153 C 
BRANCH  11  12
HETATM   12  C   UNL     1     -41.567  54.765 -51.449  1.00  0.00     0.017 A 
HETATM   13  C   UNL     1     -41.241  53.991 -52.568  1.00  0.00     0.034 A 
HETATM   14  C   UNL     1     -40.405  52.884 -52.413  1.00  0.00     0.012 A 
HETATM   15  C   UNL     1     -39.894  52.544 -51.161  1.00  0.00     0.022 A 
HETATM   16 BR   UNL     1     -39.963  51.834 -53.922  1.00  0.00    -0.051 Br
HETATM   17  C   UNL     1     -40.219  53.318 -50.047  1.00  0.00     0.039 A 
HETATM   18  C   UNL     1     -41.053  54.426 -50.189  1.00  0.00     0.077 A 
BRANCH  18  19
HETATM   19  O   UNL     1     -41.327  55.135 -49.052  1.00  0.00    -0.360 OA
HETATM   20  H   UNL     1     -40.477  55.292 -48.587  1.00  0.00     0.217 HD
ENDBRANCH  18  19
ENDBRANCH  11  12
ENDBRANCH   7  10
ENDBRANCH   1   6
BRANCH   2  21
HETATM   21  C   UNL     1     -45.299  60.496 -49.600  1.00  0.00     0.230 A 
HETATM   22  N   UNL     1     -45.836  59.292 -49.400  1.00  0.00    -0.081 NA
HETATM   23  O   UNL     1     -46.263  59.325 -48.072  1.00  0.00    -0.103 OA
HETATM   24  N   UNL     1     -45.955  60.539 -47.479  1.00  0.00    -0.083 NA
HETATM   25  C   UNL     1     -45.363  61.268 -48.423  1.00  0.00     0.201 A 
BRANCH  25  26
HETATM   26  N   UNL     1     -44.905  62.516 -48.240  1.00  0.00    -0.379 N 
HETATM   27  H   UNL     1     -44.140  62.693 -47.595  1.00  0.00     0.158 HD
HETATM   28  H   UNL     1     -45.362  63.348 -48.604  1.00  0.00     0.158 HD
ENDBRANCH  25  26
ENDBRANCH   2  21
BRANCH   5  29
HETATM   29  C   UNL     1     -42.892  60.969 -54.027  1.00  0.00     0.298 C 
BRANCH  29  30
HETATM   30  N   UNL     1     -43.109  59.767 -54.922  1.00  0.00    -0.066 N 
HETATM   31  H   UNL     1     -43.930  59.278 -54.504  1.00  0.00     0.280 HD
HETATM   32  C   UNL     1     -43.464  60.133 -56.338  1.00  0.00     0.235 C 
HETATM   33  C   UNL     1     -43.816  58.872 -57.115  1.00  0.00     0.028 C 
HETATM   34  C   UNL     1     -42.693  57.842 -57.060  1.00  0.00     0.003 C 
HETATM   35  C   UNL     1     -42.303  57.534 -55.619  1.00  0.00     0.028 C 
HETATM   36  C   UNL     1     -41.959  58.799 -54.845  1.00  0.00     0.235 C 
ENDBRANCH  29  30
ENDBRANCH   5  29
TORSDOF 8
ENDMDL
MODEL 10
REMARK VINA RESULT:      -7.7      1.682      2.181
REMARK  8 active torsions:
REMARK  status: ('A' for Active; 'I' for Inactive)
REMARK    1  A    between atoms: C_5  and  C_6 
REMARK    2  A    between atoms: N_7  and  N_8 
REMARK       I    between atoms: N_8  and  C_9 
REMARK    3  A    between atoms: C_9  and  C_10 
REMARK    4  A    between atoms: N_11  and  C_12 
REMARK    5  A    between atoms: C_16  and  N_17 
REMARK    6  A    between atoms: C_20  and  C_21 
REMARK    7  A    between atoms: C_21  and  N_22 
REMARK    8  A    between atoms: C_30  and  O_31 
ROOT
HETATM    1  C   UNL     1     -43.872  58.542 -54.671  1.00  0.00     0.159 A 
HETATM    2  N   UNL     1     -44.202  58.833 -55.998  1.00  0.00    -0.184 N 
HETATM    3  N   UNL     1     -44.371  60.183 -56.112  1.00  0.00    -0.058 NA
HETATM    4  N   UNL     1     -44.119  60.766 -54.958  1.00  0.00    -0.132 NA
HETATM    5  C   UNL     1     -43.819  59.796 -54.058  1.00  0.00     0.118 A 
ENDROOT
BRANCH   1   6
HETATM    6  C   UNL     1     -43.597  57.302 -53.982  1.00  0.00     0.292 C 
HETATM    7  N   UNL     1     -42.359  56.710 -54.120  1.00  0.00    -0.242 N 
HETATM    8  H   UNL     1     -41.580  57.189 -54.569  1.00  0.00     0.192 HD
HETATM    9  O   UNL     1     -44.501  56.774 -53.327  1.00  0.00    -0.264 OA
BRANCH   7  10
HETATM   10  N   UNL     1     -42.115  55.514 -53.509  1.00  0.00    -0.183 NA
HETATM   11  C   UNL     1     -40.924  55.030 -53.686  1.00  0.00     0.153 C 
BRANCH  11  12
HETATM   12  C   UNL     1     -40.528  53.741 -53.084  1.00  0.00     0.017 A 
HETATM   13  C   UNL     1     -40.313  52.657 -53.940  1.00  0.00     0.034 A 
HETATM   14  C   UNL     1     -39.941  51.424 -53.402  1.00  0.00     0.012 A 
HETATM   15  C   UNL     1     -39.783  51.263 -52.026  1.00  0.00     0.022 A 
HETATM   16 BR   UNL     1     -39.652  49.954 -54.556  1.00  0.00    -0.051 Br
HETATM   17  C   UNL     1     -39.996  52.348 -51.174  1.00  0.00     0.039 A 
HETATM   18  C   UNL     1     -40.368  53.583 -51.700  1.00  0.00     0.077 A 
BRANCH  18  19
HETATM   19  O   UNL     1     -40.559  54.597 -50.802  1.00  0.00    -0.360 OA
HETATM   20  H   UNL     1     -39.993  55.350 -51.077  1.00  0.00     0.217 HD
ENDBRANCH  18  19
ENDBRANCH  11  12
ENDBRANCH   7  10
ENDBRANCH   1   6
BRANCH   2  21
HETATM   21  C   UNL     1     -44.332  58.000 -57.137  1.00  0.00     0.230 A 
HETATM   22  N   UNL     1     -45.494  57.897 -57.781  1.00  0.00    -0.081 NA
HETATM   23  O   UNL     1     -45.238  56.983 -58.804  1.00  0.00    -0.103 OA
HETATM   24  N   UNL     1     -43.917  56.567 -58.781  1.00  0.00    -0.083 NA
HETATM   25  C   UNL     1     -43.355  57.190 -57.748  1.00  0.00     0.201 A 
BRANCH  25  26
HETATM   26  N   UNL     1     -42.067  57.055 -57.392  1.00  0.00    -0.379 N 
HETATM   27  H   UNL     1     -41.347  56.946 -58.100  1.00  0.00     0.158 HD
HETATM   28  H   UNL     1     -41.755  56.913 -56.435  1.00  0.00     0.158 HD
ENDBRANCH  25  26
ENDBRANCH   2  21
BRANCH   5  29
HETATM   29  C   UNL     1     -43.530  60.176 -52.638  1.00  0.00     0.298 C 
BRANCH  29  30
HETATM   30  N   UNL     1     -42.280  59.576 -52.029  1.00  0.00    -0.066 N 
HETATM   31  H   UNL     1     -42.526  58.575 -51.868  1.00  0.00     0.280 HD
HETATM   32  C   UNL     1     -41.090  59.614 -52.949  1.00  0.00     0.235 C 
HETATM   33  C   UNL     1     -39.934  58.853 -52.315  1.00  0.00     0.028 C 
HETATM   34  C   UNL     1     -39.597  59.390 -50.927  1.00  0.00     0.003 C 
HETATM   35  C   UNL     1     -40.830  59.404 -50.032  1.00  0.00     0.028 C 
HETATM   36  C   UNL     1     -41.984  60.160 -50.674  1.00  0.00     0.235 C 
ENDBRANCH  29  30
ENDBRANCH   5  29
TORSDOF 8
ENDMDL
