MODEL 1
REMARK VINA RESULT:      -7.7      0.000      0.000
REMARK  13 active torsions:
REMARK  status: ('A' for Active; 'I' for Inactive)
REMARK    1  A    between atoms: C_2  and  O_3 
REMARK    2  A    between atoms: O_3  and  C_4 
REMARK    3  A    between atoms: C_5  and  O_6 
REMARK    4  A    between atoms: C_9  and  C_10 
REMARK    5  A    between atoms: N_11  and  C_12 
REMARK    6  A    between atoms: C_12  and  C_13 
REMARK    7  A    between atoms: C_13  and  N_14 
REMARK    8  A    between atoms: C_20  and  O_21 
REMARK    9  A    between atoms: C_22  and  C_23 
REMARK   10  A    between atoms: C_23  and  C_24 
REMARK   11  A    between atoms: C_28  and  O_29 
REMARK   12  A    between atoms: O_29  and  C_30 
REMARK   13  A    between atoms: C_30  and  C_31 
ROOT
HETATM    1  C   UNL     1     -44.775  58.853 -52.216  1.00  0.00     0.161 A 
HETATM    2  N   UNL     1     -45.491  59.879 -51.448  1.00  0.00    -0.332 N 
HETATM    3  C   UNL     1     -46.228  60.686 -52.282  1.00  0.00     0.278 A 
HETATM    4  O   UNL     1     -47.039  61.535 -51.956  1.00  0.00    -0.265 OA
HETATM    5  C   UNL     1     -45.925  60.302 -53.673  1.00  0.00     0.146 A 
HETATM    6  C   UNL     1     -45.115  59.237 -53.625  1.00  0.00     0.059 A 
ENDROOT
BRANCH   6   7
HETATM    7  C   UNL     1     -44.869  58.399 -54.826  1.00  0.00     0.194 C 
HETATM    8  O   UNL     1     -45.517  58.544 -55.856  1.00  0.00    -0.287 OA
BRANCH   7   9
HETATM    9  C   UNL     1     -43.910  57.279 -54.734  1.00  0.00     0.021 A 
HETATM   10  C   UNL     1     -42.549  57.469 -55.031  1.00  0.00    -0.045 A 
HETATM   11  C   UNL     1     -41.977  58.821 -55.359  1.00  0.00     0.049 C 
HETATM   12  C   UNL     1     -41.691  56.362 -54.959  1.00  0.00     0.044 A 
HETATM   13  C   UNL     1     -42.168  55.094 -54.618  1.00  0.00     0.069 A 
HETATM   14  C   UNL     1     -43.505  54.933 -54.263  1.00  0.00     0.038 A 
HETATM   15  C   UNL     1     -44.370  56.030 -54.302  1.00  0.00     0.019 A 
BRANCH  13  16
HETATM   16  O   UNL     1     -41.227  54.105 -54.623  1.00  0.00    -0.347 OA
BRANCH  16  17
HETATM   17  C   UNL     1     -40.509  53.911 -53.405  1.00  0.00     0.214 C 
BRANCH  17  18
HETATM   18  C   UNL     1     -40.231  52.436 -53.267  1.00  0.00    -0.034 A 
HETATM   19  C   UNL     1     -39.764  51.908 -52.055  1.00  0.00     0.009 A 
HETATM   20  C   UNL     1     -39.482  50.546 -51.938  1.00  0.00     0.001 A 
HETATM   21  C   UNL     1     -39.655  49.700 -53.031  1.00  0.00     0.000 A 
HETATM   22  C   UNL     1     -40.108  50.215 -54.245  1.00  0.00     0.001 A 
HETATM   23  C   UNL     1     -40.392  51.577 -54.365  1.00  0.00     0.009 A 
ENDBRANCH  17  18
ENDBRANCH  16  17
ENDBRANCH  13  16
ENDBRANCH   7   9
ENDBRANCH   6   7
BRANCH   1  24
HETATM   24  C   UNL     1     -43.314  58.828 -51.816  1.00  0.00    -0.028 A 
HETATM   25  C   UNL     1     -42.515  59.987 -51.848  1.00  0.00     0.012 A 
HETATM   26  C   UNL     1     -41.194  59.946 -51.407  1.00  0.00     0.040 A 
HETATM   27  C   UNL     1     -40.681  58.761 -50.896  1.00  0.00     0.099 A 
HETATM   28  C   UNL     1     -41.459  57.605 -50.812  1.00  0.00     0.102 A 
HETATM   29  C   UNL     1     -42.765  57.634 -51.301  1.00  0.00     0.049 A 
BRANCH  27  30
HETATM   30  O   UNL     1     -39.390  58.760 -50.448  1.00  0.00    -0.358 OA
HETATM   31  H   UNL     1     -38.846  59.061 -51.202  1.00  0.00     0.218 HD
ENDBRANCH  27  30
BRANCH  28  32
HETATM   32  O   UNL     1     -40.847  56.524 -50.234  1.00  0.00    -0.349 OA
BRANCH  32  33
HETATM   33  C   UNL     1     -41.703  55.448 -49.839  1.00  0.00     0.171 C 
HETATM   34  C   UNL     1     -40.835  54.322 -49.306  1.00  0.00     0.034 C 
ENDBRANCH  32  33
ENDBRANCH  28  32
ENDBRANCH   1  24
BRANCH   5  35
HETATM   35  O   UNL     1     -46.500  60.901 -54.753  1.00  0.00    -0.355 OA
HETATM   36  H   UNL     1     -47.464  60.919 -54.611  1.00  0.00     0.218 HD
ENDBRANCH   5  35
BRANCH   2  37
HETATM   37  C   UNL     1     -45.455  59.912 -49.980  1.00  0.00     0.155 C 
BRANCH  37  38
HETATM   38  C   UNL     1     -44.924  61.197 -49.303  1.00  0.00     0.254 C 
BRANCH  38  39
HETATM   39  N   UNL     1     -45.980  62.268 -49.133  1.00  0.00    -0.077 N 
HETATM   40  H   UNL     1     -46.698  62.054 -49.856  1.00  0.00     0.279 HD
HETATM   41  C   UNL     1     -46.635  62.291 -47.788  1.00  0.00     0.269 C 
HETATM   42  C   UNL     1     -45.463  63.624 -49.522  1.00  0.00     0.269 C 
ENDBRANCH  38  39
ENDBRANCH  37  38
ENDBRANCH   2  37
TORSDOF 13
ENDMDL
MODEL 2
REMARK VINA RESULT:      -7.7      3.888      7.047
REMARK  13 active torsions:
REMARK  status: ('A' for Active; 'I' for Inactive)
REMARK    1  A    between atoms: C_2  and  O_3 
REMARK    2  A    between atoms: O_3  and  C_4 
REMARK    3  A    between atoms: C_5  and  O_6 
REMARK    4  A    between atoms: C_9  and  C_10 
REMARK    5  A    between atoms: N_11  and  C_12 
REMARK    6  A    between atoms: C_12  and  C_13 
REMARK    7  A    between atoms: C_13  and  N_14 
REMARK    8  A    between atoms: C_20  and  O_21 
REMARK    9  A    between atoms: C_22  and  C_23 
REMARK   10  A    between atoms: C_23  and  C_24 
REMARK   11  A    between atoms: C_28  and  O_29 
REMARK   12  A    between atoms: O_29  and  C_30 
REMARK   13  A    between atoms: C_30  and  C_31 
ROOT
HETATM    1  C   UNL     1     -43.543  58.351 -57.154  1.00  0.00     0.161 A 
HETATM    2  N   UNL     1     -43.675  59.710 -57.692  1.00  0.00    -0.332 N 
HETATM    3  C   UNL     1     -44.457  60.487 -56.869  1.00  0.00     0.278 A 
HETATM    4  O   UNL     1     -44.645  61.688 -56.952  1.00  0.00    -0.265 OA
HETATM    5  C   UNL     1     -44.989  59.623 -55.798  1.00  0.00     0.146 A 
HETATM    6  C   UNL     1     -44.440  58.411 -55.954  1.00  0.00     0.059 A 
ENDROOT
BRANCH   6   7
HETATM    7  C   UNL     1     -44.503  57.391 -54.877  1.00  0.00     0.194 C 
HETATM    8  O   UNL     1     -45.421  57.367 -54.066  1.00  0.00    -0.287 OA
BRANCH   7   9
HETATM    9  C   UNL     1     -43.366  56.466 -54.700  1.00  0.00     0.021 A 
HETATM   10  C   UNL     1     -42.210  56.868 -54.009  1.00  0.00    -0.045 A 
HETATM   11  C   UNL     1     -42.099  58.207 -53.334  1.00  0.00     0.049 C 
HETATM   12  C   UNL     1     -41.148  55.957 -53.901  1.00  0.00     0.044 A 
HETATM   13  C   UNL     1     -41.219  54.686 -54.476  1.00  0.00     0.069 A 
HETATM   14  C   UNL     1     -42.395  54.278 -55.101  1.00  0.00     0.038 A 
HETATM   15  C   UNL     1     -43.474  55.161 -55.195  1.00  0.00     0.019 A 
BRANCH  13  16
HETATM   16  O   UNL     1     -40.099  53.921 -54.322  1.00  0.00    -0.347 OA
BRANCH  16  17
HETATM   17  C   UNL     1     -40.197  52.564 -54.754  1.00  0.00     0.214 C 
BRANCH  17  18
HETATM   18  C   UNL     1     -39.954  51.684 -53.555  1.00  0.00    -0.034 A 
HETATM   19  C   UNL     1     -39.791  50.299 -53.708  1.00  0.00     0.009 A 
HETATM   20  C   UNL     1     -39.592  49.483 -52.593  1.00  0.00     0.001 A 
HETATM   21  C   UNL     1     -39.563  50.038 -51.316  1.00  0.00     0.000 A 
HETATM   22  C   UNL     1     -39.737  51.412 -51.150  1.00  0.00     0.001 A 
HETATM   23  C   UNL     1     -39.935  52.231 -52.264  1.00  0.00     0.009 A 
ENDBRANCH  17  18
ENDBRANCH  16  17
ENDBRANCH  13  16
ENDBRANCH   7   9
ENDBRANCH   6   7
BRANCH   1  24
HETATM   24  C   UNL     1     -43.858  57.332 -58.230  1.00  0.00    -0.028 A 
HETATM   25  C   UNL     1     -42.921  56.362 -58.632  1.00  0.00     0.012 A 
HETATM   26  C   UNL     1     -43.266  55.394 -59.573  1.00  0.00     0.040 A 
HETATM   27  C   UNL     1     -44.557  55.368 -60.084  1.00  0.00     0.099 A 
HETATM   28  C   UNL     1     -45.522  56.290 -59.676  1.00  0.00     0.102 A 
HETATM   29  C   UNL     1     -45.161  57.289 -58.772  1.00  0.00     0.049 A 
BRANCH  27  30
HETATM   30  O   UNL     1     -44.871  54.391 -60.986  1.00  0.00    -0.358 OA
HETATM   31  H   UNL     1     -44.544  53.555 -60.599  1.00  0.00     0.218 HD
ENDBRANCH  27  30
BRANCH  28  32
HETATM   32  O   UNL     1     -46.770  56.114 -60.214  1.00  0.00    -0.349 OA
BRANCH  32  33
HETATM   33  C   UNL     1     -47.363  57.262 -60.825  1.00  0.00     0.171 C 
HETATM   34  C   UNL     1     -48.167  56.800 -62.027  1.00  0.00     0.034 C 
ENDBRANCH  32  33
ENDBRANCH  28  32
ENDBRANCH   1  24
BRANCH   5  35
HETATM   35  O   UNL     1     -45.796  60.084 -54.803  1.00  0.00    -0.355 OA
HETATM   36  H   UNL     1     -45.514  60.990 -54.580  1.00  0.00     0.218 HD
ENDBRANCH   5  35
BRANCH   2  37
HETATM   37  C   UNL     1     -42.958  60.137 -58.901  1.00  0.00     0.155 C 
BRANCH  37  38
HETATM   38  C   UNL     1     -41.526  60.694 -58.729  1.00  0.00     0.254 C 
BRANCH  38  39
HETATM   39  N   UNL     1     -41.215  61.849 -59.657  1.00  0.00    -0.077 N 
HETATM   40  H   UNL     1     -40.866  61.404 -60.531  1.00  0.00     0.279 HD
HETATM   41  C   UNL     1     -42.386  62.719 -59.987  1.00  0.00     0.269 C 
HETATM   42  C   UNL     1     -40.045  62.656 -59.165  1.00  0.00     0.269 C 
ENDBRANCH  38  39
ENDBRANCH  37  38
ENDBRANCH   2  37
TORSDOF 13
ENDMDL
MODEL 3
REMARK VINA RESULT:      -7.6      1.070      2.178
REMARK  13 active torsions:
REMARK  status: ('A' for Active; 'I' for Inactive)
REMARK    1  A    between atoms: C_2  and  O_3 
REMARK    2  A    between atoms: O_3  and  C_4 
REMARK    3  A    between atoms: C_5  and  O_6 
REMARK    4  A    between atoms: C_9  and  C_10 
REMARK    5  A    between atoms: N_11  and  C_12 
REMARK    6  A    between atoms: C_12  and  C_13 
REMARK    7  A    between atoms: C_13  and  N_14 
REMARK    8  A    between atoms: C_20  and  O_21 
REMARK    9  A    between atoms: C_22  and  C_23 
REMARK   10  A    between atoms: C_23  and  C_24 
REMARK   11  A    between atoms: C_28  and  O_29 
REMARK   12  A    between atoms: O_29  and  C_30 
REMARK   13  A    between atoms: C_30  and  C_31 
ROOT
HETATM    1  C   UNL     1     -45.042  58.326 -52.102  1.00  0.00     0.161 A 
HETATM    2  N   UNL     1     -45.344  59.564 -51.373  1.00  0.00    -0.332 N 
HETATM    3  C   UNL     1     -45.399  60.635 -52.233  1.00  0.00     0.278 A 
HETATM    4  O   UNL     1     -45.764  61.768 -51.974  1.00  0.00    -0.265 OA
HETATM    5  C   UNL     1     -45.004  60.164 -53.574  1.00  0.00     0.146 A 
HETATM    6  C   UNL     1     -44.828  58.839 -53.495  1.00  0.00     0.059 A 
ENDROOT
BRANCH   6   7
HETATM    7  C   UNL     1     -44.738  57.997 -54.715  1.00  0.00     0.194 C 
HETATM    8  O   UNL     1     -45.486  58.169 -55.671  1.00  0.00    -0.287 OA
BRANCH   7   9
HETATM    9  C   UNL     1     -43.815  56.845 -54.725  1.00  0.00     0.021 A 
HETATM   10  C   UNL     1     -42.431  57.031 -54.890  1.00  0.00    -0.045 A 
HETATM   11  C   UNL     1     -41.806  58.397 -54.968  1.00  0.00     0.049 C 
HETATM   12  C   UNL     1     -41.606  55.897 -54.926  1.00  0.00     0.044 A 
HETATM   13  C   UNL     1     -42.137  54.609 -54.816  1.00  0.00     0.069 A 
HETATM   14  C   UNL     1     -43.500  54.443 -54.587  1.00  0.00     0.038 A 
HETATM   15  C   UNL     1     -44.335  55.562 -54.521  1.00  0.00     0.019 A 
BRANCH  13  16
HETATM   16  O   UNL     1     -41.221  53.601 -54.903  1.00  0.00    -0.347 OA
BRANCH  16  17
HETATM   17  C   UNL     1     -40.177  53.612 -53.929  1.00  0.00     0.214 C 
BRANCH  17  18
HETATM   18  C   UNL     1     -39.970  52.193 -53.465  1.00  0.00    -0.034 A 
HETATM   19  C   UNL     1     -40.099  51.123 -54.363  1.00  0.00     0.009 A 
HETATM   20  C   UNL     1     -39.933  49.808 -53.925  1.00  0.00     0.001 A 
HETATM   21  C   UNL     1     -39.645  49.548 -52.587  1.00  0.00     0.000 A 
HETATM   22  C   UNL     1     -39.527  50.603 -51.683  1.00  0.00     0.001 A 
HETATM   23  C   UNL     1     -39.691  51.919 -52.118  1.00  0.00     0.009 A 
ENDBRANCH  17  18
ENDBRANCH  16  17
ENDBRANCH  13  16
ENDBRANCH   7   9
ENDBRANCH   6   7
BRANCH   1  24
HETATM   24  C   UNL     1     -43.902  57.590 -51.430  1.00  0.00    -0.028 A 
HETATM   25  C   UNL     1     -44.046  56.272 -50.955  1.00  0.00     0.012 A 
HETATM   26  C   UNL     1     -42.957  55.597 -50.405  1.00  0.00     0.040 A 
HETATM   27  C   UNL     1     -41.716  56.220 -50.365  1.00  0.00     0.099 A 
HETATM   28  C   UNL     1     -41.531  57.510 -50.866  1.00  0.00     0.102 A 
HETATM   29  C   UNL     1     -42.632  58.203 -51.369  1.00  0.00     0.049 A 
BRANCH  27  30
HETATM   30  O   UNL     1     -40.664  55.523 -49.844  1.00  0.00    -0.358 OA
HETATM   31  H   UNL     1     -41.013  54.635 -49.629  1.00  0.00     0.218 HD
ENDBRANCH  27  30
BRANCH  28  32
HETATM   32  O   UNL     1     -40.245  57.981 -50.818  1.00  0.00    -0.349 OA
BRANCH  32  33
HETATM   33  C   UNL     1     -40.075  59.382 -51.050  1.00  0.00     0.171 C 
HETATM   34  C   UNL     1     -38.888  59.858 -50.232  1.00  0.00     0.034 C 
ENDBRANCH  32  33
ENDBRANCH  28  32
ENDBRANCH   1  24
BRANCH   5  35
HETATM   35  O   UNL     1     -44.963  60.976 -54.666  1.00  0.00    -0.355 OA
HETATM   36  H   UNL     1     -45.697  61.614 -54.597  1.00  0.00     0.218 HD
ENDBRANCH   5  35
BRANCH   2  37
HETATM   37  C   UNL     1     -45.633  59.562 -49.933  1.00  0.00     0.155 C 
BRANCH  37  38
HETATM   38  C   UNL     1     -45.321  60.849 -49.136  1.00  0.00     0.254 C 
BRANCH  38  39
HETATM   39  N   UNL     1     -45.169  60.613 -47.648  1.00  0.00    -0.077 N 
HETATM   40  H   UNL     1     -44.330  60.003 -47.558  1.00  0.00     0.279 HD
HETATM   41  C   UNL     1     -44.961  61.852 -46.837  1.00  0.00     0.269 C 
HETATM   42  C   UNL     1     -46.291  59.775 -47.102  1.00  0.00     0.269 C 
ENDBRANCH  38  39
ENDBRANCH  37  38
ENDBRANCH   2  37
TORSDOF 13
ENDMDL
MODEL 4
REMARK VINA RESULT:      -7.5      2.348      5.259
REMARK  13 active torsions:
REMARK  status: ('A' for Active; 'I' for Inactive)
REMARK    1  A    between atoms: C_2  and  O_3 
REMARK    2  A    between atoms: O_3  and  C_4 
REMARK    3  A    between atoms: C_5  and  O_6 
REMARK    4  A    between atoms: C_9  and  C_10 
REMARK    5  A    between atoms: N_11  and  C_12 
REMARK    6  A    between atoms: C_12  and  C_13 
REMARK    7  A    between atoms: C_13  and  N_14 
REMARK    8  A    between atoms: C_20  and  O_21 
REMARK    9  A    between atoms: C_22  and  C_23 
REMARK   10  A    between atoms: C_23  and  C_24 
REMARK   11  A    between atoms: C_28  and  O_29 
REMARK   12  A    between atoms: O_29  and  C_30 
REMARK   13  A    between atoms: C_30  and  C_31 
ROOT
HETATM    1  C   UNL     1     -42.340  60.025 -53.459  1.00  0.00     0.161 A 
HETATM    2  N   UNL     1     -43.035  61.312 -53.332  1.00  0.00    -0.332 N 
HETATM    3  C   UNL     1     -43.356  61.565 -52.020  1.00  0.00     0.278 A 
HETATM    4  O   UNL     1     -43.805  62.600 -51.558  1.00  0.00    -0.265 OA
HETATM    5  C   UNL     1     -42.995  60.376 -51.225  1.00  0.00     0.146 A 
HETATM    6  C   UNL     1     -42.391  59.513 -52.051  1.00  0.00     0.059 A 
ENDROOT
BRANCH   6   7
HETATM    7  C   UNL     1     -41.618  58.357 -51.530  1.00  0.00     0.194 C 
HETATM    8  O   UNL     1     -40.868  58.466 -50.567  1.00  0.00    -0.287 OA
BRANCH   7   9
HETATM    9  C   UNL     1     -41.655  57.079 -52.268  1.00  0.00     0.021 A 
HETATM   10  C   UNL     1     -42.636  56.112 -51.987  1.00  0.00    -0.045 A 
HETATM   11  C   UNL     1     -43.747  56.353 -51.003  1.00  0.00     0.049 C 
HETATM   12  C   UNL     1     -42.601  54.902 -52.697  1.00  0.00     0.044 A 
HETATM   13  C   UNL     1     -41.612  54.647 -53.651  1.00  0.00     0.069 A 
HETATM   14  C   UNL     1     -40.687  55.640 -53.966  1.00  0.00     0.038 A 
HETATM   15  C   UNL     1     -40.722  56.862 -53.289  1.00  0.00     0.019 A 
BRANCH  13  16
HETATM   16  O   UNL     1     -41.681  53.416 -54.236  1.00  0.00    -0.347 OA
BRANCH  16  17
HETATM   17  C   UNL     1     -40.440  52.841 -54.644  1.00  0.00     0.214 C 
BRANCH  17  18
HETATM   18  C   UNL     1     -40.077  51.777 -53.640  1.00  0.00    -0.034 A 
HETATM   19  C   UNL     1     -39.951  50.437 -54.034  1.00  0.00     0.009 A 
HETATM   20  C   UNL     1     -39.641  49.450 -53.097  1.00  0.00     0.001 A 
HETATM   21  C   UNL     1     -39.463  49.789 -51.758  1.00  0.00     0.000 A 
HETATM   22  C   UNL     1     -39.597  51.116 -51.351  1.00  0.00     0.001 A 
HETATM   23  C   UNL     1     -39.906  52.106 -52.286  1.00  0.00     0.009 A 
ENDBRANCH  17  18
ENDBRANCH  16  17
ENDBRANCH  13  16
ENDBRANCH   7   9
ENDBRANCH   6   7
BRANCH   1  24
HETATM   24  C   UNL     1     -42.986  59.190 -54.546  1.00  0.00    -0.028 A 
HETATM   25  C   UNL     1     -44.316  58.741 -54.446  1.00  0.00     0.012 A 
HETATM   26  C   UNL     1     -44.904  58.035 -55.494  1.00  0.00     0.040 A 
HETATM   27  C   UNL     1     -44.179  57.811 -56.658  1.00  0.00     0.099 A 
HETATM   28  C   UNL     1     -42.871  58.279 -56.804  1.00  0.00     0.102 A 
HETATM   29  C   UNL     1     -42.268  58.941 -55.735  1.00  0.00     0.049 A 
BRANCH  27  30
HETATM   30  O   UNL     1     -44.791  57.138 -57.677  1.00  0.00    -0.358 OA
HETATM   31  H   UNL     1     -45.072  57.821 -58.317  1.00  0.00     0.218 HD
ENDBRANCH  27  30
BRANCH  28  32
HETATM   32  O   UNL     1     -42.294  58.039 -58.023  1.00  0.00    -0.349 OA
BRANCH  32  33
HETATM   33  C   UNL     1     -42.173  59.164 -58.899  1.00  0.00     0.171 C 
HETATM   34  C   UNL     1     -42.148  58.653 -60.328  1.00  0.00     0.034 C 
ENDBRANCH  32  33
ENDBRANCH  28  32
ENDBRANCH   1  24
BRANCH   5  35
HETATM   35  O   UNL     1     -43.173  60.300 -49.877  1.00  0.00    -0.355 OA
HETATM   36  H   UNL     1     -43.015  59.378 -49.602  1.00  0.00     0.218 HD
ENDBRANCH   5  35
BRANCH   2  37
HETATM   37  C   UNL     1     -43.235  62.201 -54.484  1.00  0.00     0.155 C 
BRANCH  37  38
HETATM   38  C   UNL     1     -44.687  62.564 -54.869  1.00  0.00     0.254 C 
BRANCH  38  39
HETATM   39  N   UNL     1     -45.255  61.691 -55.967  1.00  0.00    -0.077 N 
HETATM   40  H   UNL     1     -45.177  60.718 -55.604  1.00  0.00     0.279 HD
HETATM   41  C   UNL     1     -46.684  61.970 -56.312  1.00  0.00     0.269 C 
HETATM   42  C   UNL     1     -44.379  61.696 -57.189  1.00  0.00     0.269 C 
ENDBRANCH  38  39
ENDBRANCH  37  38
ENDBRANCH   2  37
TORSDOF 13
ENDMDL
MODEL 5
REMARK VINA RESULT:      -7.4      2.562      5.479
REMARK  13 active torsions:
REMARK  status: ('A' for Active; 'I' for Inactive)
REMARK    1  A    between atoms: C_2  and  O_3 
REMARK    2  A    between atoms: O_3  and  C_4 
REMARK    3  A    between atoms: C_5  and  O_6 
REMARK    4  A    between atoms: C_9  and  C_10 
REMARK    5  A    between atoms: N_11  and  C_12 
REMARK    6  A    between atoms: C_12  and  C_13 
REMARK    7  A    between atoms: C_13  and  N_14 
REMARK    8  A    between atoms: C_20  and  O_21 
REMARK    9  A    between atoms: C_22  and  C_23 
REMARK   10  A    between atoms: C_23  and  C_24 
REMARK   11  A    between atoms: C_28  and  O_29 
REMARK   12  A    between atoms: O_29  and  C_30 
REMARK   13  A    between atoms: C_30  and  C_31 
ROOT
HETATM    1  C   UNL     1     -42.589  59.120 -53.949  1.00  0.00     0.161 A 
HETATM    2  N   UNL     1     -43.081  59.956 -55.051  1.00  0.00    -0.332 N 
HETATM    3  C   UNL     1     -44.356  60.403 -54.793  1.00  0.00     0.278 A 
HETATM    4  O   UNL     1     -44.991  61.224 -55.432  1.00  0.00    -0.265 OA
HETATM    5  C   UNL     1     -44.818  59.766 -53.546  1.00  0.00     0.146 A 
HETATM    6  C   UNL     1     -43.793  59.056 -53.057  1.00  0.00     0.059 A 
ENDROOT
BRANCH   6   7
HETATM    7  C   UNL     1     -43.801  58.549 -51.662  1.00  0.00     0.194 C 
HETATM    8  O   UNL     1     -44.201  59.237 -50.729  1.00  0.00    -0.287 OA
BRANCH   7   9
HETATM    9  C   UNL     1     -43.193  57.234 -51.373  1.00  0.00     0.021 A 
HETATM   10  C   UNL     1     -41.907  57.142 -50.813  1.00  0.00    -0.045 A 
HETATM   11  C   UNL     1     -41.124  58.354 -50.389  1.00  0.00     0.049 C 
HETATM   12  C   UNL     1     -41.366  55.866 -50.592  1.00  0.00     0.044 A 
HETATM   13  C   UNL     1     -42.073  54.709 -50.932  1.00  0.00     0.069 A 
HETATM   14  C   UNL     1     -43.371  54.815 -51.425  1.00  0.00     0.038 A 
HETATM   15  C   UNL     1     -43.937  56.076 -51.626  1.00  0.00     0.019 A 
BRANCH  13  16
HETATM   16  O   UNL     1     -41.409  53.541 -50.694  1.00  0.00    -0.347 OA
BRANCH  16  17
HETATM   17  C   UNL     1     -40.062  53.474 -51.162  1.00  0.00     0.214 C 
BRANCH  17  18
HETATM   18  C   UNL     1     -39.922  52.210 -51.972  1.00  0.00    -0.034 A 
HETATM   19  C   UNL     1     -40.137  52.224 -53.357  1.00  0.00     0.009 A 
HETATM   20  C   UNL     1     -40.032  51.047 -54.101  1.00  0.00     0.001 A 
HETATM   21  C   UNL     1     -39.721  49.846 -53.468  1.00  0.00     0.000 A 
HETATM   22  C   UNL     1     -39.517  49.817 -52.090  1.00  0.00     0.001 A 
HETATM   23  C   UNL     1     -39.620  50.993 -51.343  1.00  0.00     0.009 A 
ENDBRANCH  17  18
ENDBRANCH  16  17
ENDBRANCH  13  16
ENDBRANCH   7   9
ENDBRANCH   6   7
BRANCH   1  24
HETATM   24  C   UNL     1     -42.033  57.819 -54.490  1.00  0.00    -0.028 A 
HETATM   25  C   UNL     1     -40.921  57.186 -53.902  1.00  0.00     0.012 A 
HETATM   26  C   UNL     1     -40.477  55.954 -54.380  1.00  0.00     0.040 A 
HETATM   27  C   UNL     1     -41.164  55.335 -55.415  1.00  0.00     0.099 A 
HETATM   28  C   UNL     1     -42.295  55.917 -55.992  1.00  0.00     0.102 A 
HETATM   29  C   UNL     1     -42.708  57.173 -55.547  1.00  0.00     0.049 A 
BRANCH  27  30
HETATM   30  O   UNL     1     -40.719  54.116 -55.844  1.00  0.00    -0.358 OA
HETATM   31  H   UNL     1     -40.274  53.710 -55.074  1.00  0.00     0.218 HD
ENDBRANCH  27  30
BRANCH  28  32
HETATM   32  O   UNL     1     -42.910  55.172 -56.963  1.00  0.00    -0.349 OA
BRANCH  32  33
HETATM   33  C   UNL     1     -43.249  55.860 -58.170  1.00  0.00     0.171 C 
HETATM   34  C   UNL     1     -44.000  54.898 -59.071  1.00  0.00     0.034 C 
ENDBRANCH  32  33
ENDBRANCH  28  32
ENDBRANCH   1  24
BRANCH   5  35
HETATM   35  O   UNL     1     -46.042  60.003 -52.999  1.00  0.00    -0.355 OA
HETATM   36  H   UNL     1     -46.137  59.437 -52.211  1.00  0.00     0.218 HD
ENDBRANCH   5  35
BRANCH   2  37
HETATM   37  C   UNL     1     -42.230  60.306 -56.196  1.00  0.00     0.155 C 
BRANCH  37  38
HETATM   38  C   UNL     1     -42.807  60.088 -57.613  1.00  0.00     0.254 C 
BRANCH  38  39
HETATM   39  N   UNL     1     -41.845  60.465 -58.719  1.00  0.00    -0.077 N 
HETATM   40  H   UNL     1     -41.176  59.670 -58.775  1.00  0.00     0.279 HD
HETATM   41  C   UNL     1     -42.479  60.665 -60.059  1.00  0.00     0.269 C 
HETATM   42  C   UNL     1     -40.987  61.637 -58.332  1.00  0.00     0.269 C 
ENDBRANCH  38  39
ENDBRANCH  37  38
ENDBRANCH   2  37
TORSDOF 13
ENDMDL
MODEL 6
REMARK VINA RESULT:      -7.4      2.064      4.591
REMARK  13 active torsions:
REMARK  status: ('A' for Active; 'I' for Inactive)
REMARK    1  A    between atoms: C_2  and  O_3 
REMARK    2  A    between atoms: O_3  and  C_4 
REMARK    3  A    between atoms: C_5  and  O_6 
REMARK    4  A    between atoms: C_9  and  C_10 
REMARK    5  A    between atoms: N_11  and  C_12 
REMARK    6  A    between atoms: C_12  and  C_13 
REMARK    7  A    between atoms: C_13  and  N_14 
REMARK    8  A    between atoms: C_20  and  O_21 
REMARK    9  A    between atoms: C_22  and  C_23 
REMARK   10  A    between atoms: C_23  and  C_24 
REMARK   11  A    between atoms: C_28  and  O_29 
REMARK   12  A    between atoms: O_29  and  C_30 
REMARK   13  A    between atoms: C_30  and  C_31 
ROOT
HETATM    1  C   UNL     1     -43.298  60.630 -52.796  1.00  0.00     0.161 A 
HETATM    2  N   UNL     1     -44.313  61.670 -52.587  1.00  0.00    -0.332 N 
HETATM    3  C   UNL     1     -44.657  61.757 -51.259  1.00  0.00     0.278 A 
HETATM    4  O   UNL     1     -45.358  62.604 -50.734  1.00  0.00    -0.265 OA
HETATM    5  C   UNL     1     -43.964  60.672 -50.537  1.00  0.00     0.146 A 
HETATM    6  C   UNL     1     -43.170  60.051 -51.418  1.00  0.00     0.059 A 
ENDROOT
BRANCH   6   7
HETATM    7  C   UNL     1     -42.098  59.125 -50.973  1.00  0.00     0.194 C 
HETATM    8  O   UNL     1     -41.216  59.486 -50.203  1.00  0.00    -0.287 OA
BRANCH   7   9
HETATM    9  C   UNL     1     -42.020  57.778 -51.573  1.00  0.00     0.021 A 
HETATM   10  C   UNL     1     -41.164  57.521 -52.658  1.00  0.00    -0.045 A 
HETATM   11  C   UNL     1     -40.220  58.557 -53.203  1.00  0.00     0.049 C 
HETATM   12  C   UNL     1     -41.156  56.231 -53.209  1.00  0.00     0.044 A 
HETATM   13  C   UNL     1     -41.986  55.223 -52.710  1.00  0.00     0.069 A 
HETATM   14  C   UNL     1     -42.780  55.474 -51.594  1.00  0.00     0.038 A 
HETATM   15  C   UNL     1     -42.781  56.745 -51.014  1.00  0.00     0.019 A 
BRANCH  13  16
HETATM   16  O   UNL     1     -41.898  54.029 -53.366  1.00  0.00    -0.347 OA
BRANCH  16  17
HETATM   17  C   UNL     1     -40.622  53.706 -53.919  1.00  0.00     0.214 C 
BRANCH  17  18
HETATM   18  C   UNL     1     -40.267  52.312 -53.465  1.00  0.00    -0.034 A 
HETATM   19  C   UNL     1     -39.862  52.074 -52.144  1.00  0.00     0.009 A 
HETATM   20  C   UNL     1     -39.509  50.787 -51.734  1.00  0.00     0.001 A 
HETATM   21  C   UNL     1     -39.548  49.729 -52.640  1.00  0.00     0.000 A 
HETATM   22  C   UNL     1     -39.937  49.956 -53.959  1.00  0.00     0.001 A 
HETATM   23  C   UNL     1     -40.292  51.242 -54.372  1.00  0.00     0.009 A 
ENDBRANCH  17  18
ENDBRANCH  16  17
ENDBRANCH  13  16
ENDBRANCH   7   9
ENDBRANCH   6   7
BRANCH   1  24
HETATM   24  C   UNL     1     -43.720  59.708 -53.921  1.00  0.00    -0.028 A 
HETATM   25  C   UNL     1     -44.703  58.716 -53.739  1.00  0.00     0.012 A 
HETATM   26  C   UNL     1     -45.120  57.931 -54.813  1.00  0.00     0.040 A 
HETATM   27  C   UNL     1     -44.587  58.161 -56.075  1.00  0.00     0.099 A 
HETATM   28  C   UNL     1     -43.642  59.165 -56.296  1.00  0.00     0.102 A 
HETATM   29  C   UNL     1     -43.189  59.915 -55.212  1.00  0.00     0.049 A 
BRANCH  27  30
HETATM   30  O   UNL     1     -45.035  57.392 -57.111  1.00  0.00    -0.358 OA
HETATM   31  H   UNL     1     -44.356  56.701 -57.243  1.00  0.00     0.218 HD
ENDBRANCH  27  30
BRANCH  28  32
HETATM   32  O   UNL     1     -43.244  59.322 -57.598  1.00  0.00    -0.349 OA
BRANCH  32  33
HETATM   33  C   UNL     1     -41.943  58.830 -57.927  1.00  0.00     0.171 C 
HETATM   34  C   UNL     1     -42.067  57.937 -59.148  1.00  0.00     0.034 C 
ENDBRANCH  32  33
ENDBRANCH  28  32
ENDBRANCH   1  24
BRANCH   5  35
HETATM   35  O   UNL     1     -44.079  60.480 -49.194  1.00  0.00    -0.355 OA
HETATM   36  H   UNL     1     -43.249  60.771 -48.775  1.00  0.00     0.218 HD
ENDBRANCH   5  35
BRANCH   2  37
HETATM   37  C   UNL     1     -44.778  62.529 -53.685  1.00  0.00     0.155 C 
BRANCH  37  38
HETATM   38  C   UNL     1     -46.268  62.438 -54.087  1.00  0.00     0.254 C 
BRANCH  38  39
HETATM   39  N   UNL     1     -47.201  63.082 -53.083  1.00  0.00    -0.077 N 
HETATM   40  H   UNL     1     -46.716  62.989 -52.167  1.00  0.00     0.279 HD
HETATM   41  C   UNL     1     -47.492  64.527 -53.338  1.00  0.00     0.269 C 
HETATM   42  C   UNL     1     -48.464  62.284 -52.909  1.00  0.00     0.269 C 
ENDBRANCH  38  39
ENDBRANCH  37  38
ENDBRANCH   2  37
TORSDOF 13
ENDMDL
MODEL 7
REMARK VINA RESULT:      -7.3      2.194      4.565
REMARK  13 active torsions:
REMARK  status: ('A' for Active; 'I' for Inactive)
REMARK    1  A    between atoms: C_2  and  O_3 
REMARK    2  A    between atoms: O_3  and  C_4 
REMARK    3  A    between atoms: C_5  and  O_6 
REMARK    4  A    between atoms: C_9  and  C_10 
REMARK    5  A    between atoms: N_11  and  C_12 
REMARK    6  A    between atoms: C_12  and  C_13 
REMARK    7  A    between atoms: C_13  and  N_14 
REMARK    8  A    between atoms: C_20  and  O_21 
REMARK    9  A    between atoms: C_22  and  C_23 
REMARK   10  A    between atoms: C_23  and  C_24 
REMARK   11  A    between atoms: C_28  and  O_29 
REMARK   12  A    between atoms: O_29  and  C_30 
REMARK   13  A    between atoms: C_30  and  C_31 
ROOT
HETATM    1  C   UNL     1     -44.002  60.537 -53.421  1.00  0.00     0.161 A 
HETATM    2  N   UNL     1     -45.351  61.063 -53.659  1.00  0.00    -0.332 N 
HETATM    3  C   UNL     1     -46.209  60.677 -52.658  1.00  0.00     0.278 A 
HETATM    4  O   UNL     1     -47.354  61.058 -52.481  1.00  0.00    -0.265 OA
HETATM    5  C   UNL     1     -45.481  59.757 -51.763  1.00  0.00     0.146 A 
HETATM    6  C   UNL     1     -44.214  59.704 -52.192  1.00  0.00     0.059 A 
ENDROOT
BRANCH   6   7
HETATM    7  C   UNL     1     -43.136  59.131 -51.347  1.00  0.00     0.194 C 
HETATM    8  O   UNL     1     -42.486  59.826 -50.575  1.00  0.00    -0.287 OA
BRANCH   7   9
HETATM    9  C   UNL     1     -42.753  57.717 -51.535  1.00  0.00     0.021 A 
HETATM   10  C   UNL     1     -41.612  57.373 -52.279  1.00  0.00    -0.045 A 
HETATM   11  C   UNL     1     -40.672  58.406 -52.839  1.00  0.00     0.049 C 
HETATM   12  C   UNL     1     -41.315  56.012 -52.453  1.00  0.00     0.044 A 
HETATM   13  C   UNL     1     -42.136  55.016 -51.917  1.00  0.00     0.069 A 
HETATM   14  C   UNL     1     -43.226  55.372 -51.127  1.00  0.00     0.038 A 
HETATM   15  C   UNL     1     -43.521  56.722 -50.920  1.00  0.00     0.019 A 
BRANCH  13  16
HETATM   16  O   UNL     1     -41.744  53.739 -52.196  1.00  0.00    -0.347 OA
BRANCH  16  17
HETATM   17  C   UNL     1     -40.580  53.599 -53.010  1.00  0.00     0.214 C 
BRANCH  17  18
HETATM   18  C   UNL     1     -40.204  52.139 -53.023  1.00  0.00    -0.034 A 
HETATM   19  C   UNL     1     -39.804  51.495 -51.843  1.00  0.00     0.009 A 
HETATM   20  C   UNL     1     -39.431  50.149 -51.863  1.00  0.00     0.001 A 
HETATM   21  C   UNL     1     -39.444  49.439 -53.061  1.00  0.00     0.000 A 
HETATM   22  C   UNL     1     -39.828  50.071 -54.242  1.00  0.00     0.001 A 
HETATM   23  C   UNL     1     -40.203  51.416 -54.225  1.00  0.00     0.009 A 
ENDBRANCH  17  18
ENDBRANCH  16  17
ENDBRANCH  13  16
ENDBRANCH   7   9
ENDBRANCH   6   7
BRANCH   1  24
HETATM   24  C   UNL     1     -43.482  59.850 -54.667  1.00  0.00    -0.028 A 
HETATM   25  C   UNL     1     -42.546  60.466 -55.519  1.00  0.00     0.012 A 
HETATM   26  C   UNL     1     -42.033  59.780 -56.618  1.00  0.00     0.040 A 
HETATM   27  C   UNL     1     -42.422  58.466 -56.846  1.00  0.00     0.099 A 
HETATM   28  C   UNL     1     -43.317  57.813 -55.996  1.00  0.00     0.102 A 
HETATM   29  C   UNL     1     -43.867  58.517 -54.926  1.00  0.00     0.049 A 
BRANCH  27  30
HETATM   30  O   UNL     1     -41.883  57.813 -57.917  1.00  0.00    -0.358 OA
HETATM   31  H   UNL     1     -40.935  58.053 -57.926  1.00  0.00     0.218 HD
ENDBRANCH  27  30
BRANCH  28  32
HETATM   32  O   UNL     1     -43.569  56.502 -56.303  1.00  0.00    -0.349 OA
BRANCH  32  33
HETATM   33  C   UNL     1     -42.652  55.540 -55.775  1.00  0.00     0.171 C 
HETATM   34  C   UNL     1     -43.452  54.380 -55.212  1.00  0.00     0.034 C 
ENDBRANCH  32  33
ENDBRANCH  28  32
ENDBRANCH   1  24
BRANCH   5  35
HETATM   35  O   UNL     1     -46.042  59.196 -50.656  1.00  0.00    -0.355 OA
HETATM   36  H   UNL     1     -46.147  59.894 -49.984  1.00  0.00     0.218 HD
ENDBRANCH   5  35
BRANCH   2  37
HETATM   37  C   UNL     1     -45.644  61.957 -54.788  1.00  0.00     0.155 C 
BRANCH  37  38
HETATM   38  C   UNL     1     -46.422  61.369 -55.987  1.00  0.00     0.254 C 
BRANCH  38  39
HETATM   39  N   UNL     1     -45.570  61.188 -57.226  1.00  0.00    -0.077 N 
HETATM   40  H   UNL     1     -44.588  61.219 -56.883  1.00  0.00     0.279 HD
HETATM   41  C   UNL     1     -45.791  59.899 -57.953  1.00  0.00     0.269 C 
HETATM   42  C   UNL     1     -45.673  62.370 -58.148  1.00  0.00     0.269 C 
ENDBRANCH  38  39
ENDBRANCH  37  38
ENDBRANCH   2  37
TORSDOF 13
ENDMDL
MODEL 8
REMARK VINA RESULT:      -7.3      2.078      4.382
REMARK  13 active torsions:
REMARK  status: ('A' for Active; 'I' for Inactive)
REMARK    1  A    between atoms: C_2  and  O_3 
REMARK    2  A    between atoms: O_3  and  C_4 
REMARK    3  A    between atoms: C_5  and  O_6 
REMARK    4  A    between atoms: C_9  and  C_10 
REMARK    5  A    between atoms: N_11  and  C_12 
REMARK    6  A    between atoms: C_12  and  C_13 
REMARK    7  A    between atoms: C_13  and  N_14 
REMARK    8  A    between atoms: C_20  and  O_21 
REMARK    9  A    between atoms: C_22  and  C_23 
REMARK   10  A    between atoms: C_23  and  C_24 
REMARK   11  A    between atoms: C_28  and  O_29 
REMARK   12  A    between atoms: O_29  and  C_30 
REMARK   13  A    between atoms: C_30  and  C_31 
ROOT
HETATM    1  C   UNL     1     -43.592  59.923 -52.707  1.00  0.00     0.161 A 
HETATM    2  N   UNL     1     -44.910  60.530 -52.491  1.00  0.00    -0.332 N 
HETATM    3  C   UNL     1     -45.621  59.830 -51.545  1.00  0.00     0.278 A 
HETATM    4  O   UNL     1     -46.681  60.148 -51.037  1.00  0.00    -0.265 OA
HETATM    5  C   UNL     1     -44.838  58.634 -51.181  1.00  0.00     0.146 A 
HETATM    6  C   UNL     1     -43.669  58.710 -51.830  1.00  0.00     0.059 A 
ENDROOT
BRANCH   6   7
HETATM    7  C   UNL     1     -42.520  57.847 -51.454  1.00  0.00     0.194 C 
HETATM    8  O   UNL     1     -41.717  58.184 -50.592  1.00  0.00    -0.287 OA
BRANCH   7   9
HETATM    9  C   UNL     1     -42.266  56.615 -52.228  1.00  0.00     0.021 A 
HETATM   10  C   UNL     1     -41.272  56.580 -53.221  1.00  0.00    -0.045 A 
HETATM   11  C   UNL     1     -40.356  57.743 -53.487  1.00  0.00     0.049 C 
HETATM   12  C   UNL     1     -41.098  55.392 -53.948  1.00  0.00     0.044 A 
HETATM   13  C   UNL     1     -41.898  54.271 -53.709  1.00  0.00     0.069 A 
HETATM   14  C   UNL     1     -42.834  54.299 -52.678  1.00  0.00     0.038 A 
HETATM   15  C   UNL     1     -43.003  55.464 -51.925  1.00  0.00     0.019 A 
BRANCH  13  16
HETATM   16  O   UNL     1     -41.640  53.200 -54.514  1.00  0.00    -0.347 OA
BRANCH  16  17
HETATM   17  C   UNL     1     -40.269  52.822 -54.642  1.00  0.00     0.214 C 
BRANCH  17  18
HETATM   18  C   UNL     1     -39.987  51.767 -53.604  1.00  0.00    -0.034 A 
HETATM   19  C   UNL     1     -39.884  50.417 -53.969  1.00  0.00     0.009 A 
HETATM   20  C   UNL     1     -39.649  49.438 -53.001  1.00  0.00     0.001 A 
HETATM   21  C   UNL     1     -39.524  49.796 -51.661  1.00  0.00     0.000 A 
HETATM   22  C   UNL     1     -39.636  51.134 -51.284  1.00  0.00     0.001 A 
HETATM   23  C   UNL     1     -39.870  52.115 -52.250  1.00  0.00     0.009 A 
ENDBRANCH  17  18
ENDBRANCH  16  17
ENDBRANCH  13  16
ENDBRANCH   7   9
ENDBRANCH   6   7
BRANCH   1  24
HETATM   24  C   UNL     1     -43.349  59.718 -54.188  1.00  0.00    -0.028 A 
HETATM   25  C   UNL     1     -42.241  60.287 -54.845  1.00  0.00     0.012 A 
HETATM   26  C   UNL     1     -42.007  60.021 -56.193  1.00  0.00     0.040 A 
HETATM   27  C   UNL     1     -42.852  59.156 -56.876  1.00  0.00     0.099 A 
HETATM   28  C   UNL     1     -43.935  58.542 -56.242  1.00  0.00     0.102 A 
HETATM   29  C   UNL     1     -44.197  58.849 -54.908  1.00  0.00     0.049 A 
BRANCH  27  30
HETATM   30  O   UNL     1     -42.581  58.895 -58.189  1.00  0.00    -0.358 OA
HETATM   31  H   UNL     1     -42.837  59.702 -58.679  1.00  0.00     0.218 HD
ENDBRANCH  27  30
BRANCH  28  32
HETATM   32  O   UNL     1     -44.651  57.668 -57.016  1.00  0.00    -0.349 OA
BRANCH  32  33
HETATM   33  C   UNL     1     -45.928  58.123 -57.470  1.00  0.00     0.171 C 
HETATM   34  C   UNL     1     -45.974  57.982 -58.980  1.00  0.00     0.034 C 
ENDBRANCH  32  33
ENDBRANCH  28  32
ENDBRANCH   1  24
BRANCH   5  35
HETATM   35  O   UNL     1     -45.254  57.726 -50.255  1.00  0.00    -0.355 OA
HETATM   36  H   UNL     1     -45.141  58.122 -49.371  1.00  0.00     0.218 HD
ENDBRANCH   5  35
BRANCH   2  37
HETATM   37  C   UNL     1     -45.307  61.776 -53.161  1.00  0.00     0.155 C 
BRANCH  37  38
HETATM   38  C   UNL     1     -45.345  63.068 -52.313  1.00  0.00     0.254 C 
BRANCH  38  39
HETATM   39  N   UNL     1     -43.986  63.712 -52.138  1.00  0.00    -0.077 N 
HETATM   40  H   UNL     1     -44.182  64.730 -52.044  1.00  0.00     0.279 HD
HETATM   41  C   UNL     1     -43.225  63.250 -50.936  1.00  0.00     0.269 C 
HETATM   42  C   UNL     1     -43.160  63.613 -53.390  1.00  0.00     0.269 C 
ENDBRANCH  38  39
ENDBRANCH  37  38
ENDBRANCH   2  37
TORSDOF 13
ENDMDL
MODEL 9
REMARK VINA RESULT:      -7.3      2.515      5.282
REMARK  13 active torsions:
REMARK  status: ('A' for Active; 'I' for Inactive)
REMARK    1  A    between atoms: C_2  and  O_3 
REMARK    2  A    between atoms: O_3  and  C_4 
REMARK    3  A    between atoms: C_5  and  O_6 
REMARK    4  A    between atoms: C_9  and  C_10 
REMARK    5  A    between atoms: N_11  and  C_12 
REMARK    6  A    between atoms: C_12  and  C_13 
REMARK    7  A    between atoms: C_13  and  N_14 
REMARK    8  A    between atoms: C_20  and  O_21 
REMARK    9  A    between atoms: C_22  and  C_23 
REMARK   10  A    between atoms: C_23  and  C_24 
REMARK   11  A    between atoms: C_28  and  O_29 
REMARK   12  A    between atoms: O_29  and  C_30 
REMARK   13  A    between atoms: C_30  and  C_31 
ROOT
HETATM    1  C   UNL     1     -43.936  60.489 -53.596  1.00  0.00     0.161 A 
HETATM    2  N   UNL     1     -45.227  61.105 -53.924  1.00  0.00    -0.332 N 
HETATM    3  C   UNL     1     -46.144  60.879 -52.925  1.00  0.00     0.278 A 
HETATM    4  O   UNL     1     -47.255  61.369 -52.821  1.00  0.00    -0.265 OA
HETATM    5  C   UNL     1     -45.524  59.980 -51.933  1.00  0.00     0.146 A 
HETATM    6  C   UNL     1     -44.254  59.785 -52.311  1.00  0.00     0.059 A 
ENDROOT
BRANCH   6   7
HETATM    7  C   UNL     1     -43.255  59.197 -51.384  1.00  0.00     0.194 C 
HETATM    8  O   UNL     1     -42.682  59.877 -50.540  1.00  0.00    -0.287 OA
BRANCH   7   9
HETATM    9  C   UNL     1     -42.846  57.790 -51.568  1.00  0.00     0.021 A 
HETATM   10  C   UNL     1     -41.653  57.468 -52.238  1.00  0.00    -0.045 A 
HETATM   11  C   UNL     1     -40.687  58.517 -52.714  1.00  0.00     0.049 C 
HETATM   12  C   UNL     1     -41.333  56.113 -52.413  1.00  0.00     0.044 A 
HETATM   13  C   UNL     1     -42.179  55.101 -51.952  1.00  0.00     0.069 A 
HETATM   14  C   UNL     1     -43.324  55.435 -51.233  1.00  0.00     0.038 A 
HETATM   15  C   UNL     1     -43.646  56.778 -51.024  1.00  0.00     0.019 A 
BRANCH  13  16
HETATM   16  O   UNL     1     -41.758  53.831 -52.224  1.00  0.00    -0.347 OA
BRANCH  16  17
HETATM   17  C   UNL     1     -40.566  53.715 -53.001  1.00  0.00     0.214 C 
BRANCH  17  18
HETATM   18  C   UNL     1     -40.193  52.255 -53.052  1.00  0.00    -0.034 A 
HETATM   19  C   UNL     1     -40.321  51.528 -54.243  1.00  0.00     0.009 A 
HETATM   20  C   UNL     1     -40.000  50.169 -54.281  1.00  0.00     0.001 A 
HETATM   21  C   UNL     1     -39.559  49.524 -53.128  1.00  0.00     0.000 A 
HETATM   22  C   UNL     1     -39.440  50.233 -51.935  1.00  0.00     0.001 A 
HETATM   23  C   UNL     1     -39.759  51.592 -51.894  1.00  0.00     0.009 A 
ENDBRANCH  17  18
ENDBRANCH  16  17
ENDBRANCH  13  16
ENDBRANCH   7   9
ENDBRANCH   6   7
BRANCH   1  24
HETATM   24  C   UNL     1     -43.443  59.657 -54.762  1.00  0.00    -0.028 A 
HETATM   25  C   UNL     1     -44.024  58.417 -55.087  1.00  0.00     0.012 A 
HETATM   26  C   UNL     1     -43.595  57.709 -56.209  1.00  0.00     0.040 A 
HETATM   27  C   UNL     1     -42.616  58.256 -57.028  1.00  0.00     0.099 A 
HETATM   28  C   UNL     1     -42.049  59.503 -56.756  1.00  0.00     0.102 A 
HETATM   29  C   UNL     1     -42.444  60.186 -55.606  1.00  0.00     0.049 A 
BRANCH  27  30
HETATM   30  O   UNL     1     -42.235  57.550 -58.134  1.00  0.00    -0.358 OA
HETATM   31  H   UNL     1     -41.313  57.271 -57.967  1.00  0.00     0.218 HD
ENDBRANCH  27  30
BRANCH  28  32
HETATM   32  O   UNL     1     -41.139  59.949 -57.677  1.00  0.00    -0.349 OA
BRANCH  32  33
HETATM   33  C   UNL     1     -41.593  60.964 -58.576  1.00  0.00     0.171 C 
HETATM   34  C   UNL     1     -40.693  62.177 -58.417  1.00  0.00     0.034 C 
ENDBRANCH  32  33
ENDBRANCH  28  32
ENDBRANCH   1  24
BRANCH   5  35
HETATM   35  O   UNL     1     -46.162  59.565 -50.803  1.00  0.00    -0.355 OA
HETATM   36  H   UNL     1     -45.599  59.785 -50.039  1.00  0.00     0.218 HD
ENDBRANCH   5  35
BRANCH   2  37
HETATM   37  C   UNL     1     -45.410  61.921 -55.132  1.00  0.00     0.155 C 
BRANCH  37  38
HETATM   38  C   UNL     1     -46.221  61.309 -56.297  1.00  0.00     0.254 C 
BRANCH  38  39
HETATM   39  N   UNL     1     -45.379  60.993 -57.515  1.00  0.00    -0.077 N 
HETATM   40  H   UNL     1     -44.439  60.754 -57.137  1.00  0.00     0.279 HD
HETATM   41  C   UNL     1     -45.878  59.850 -58.341  1.00  0.00     0.269 C 
HETATM   42  C   UNL     1     -45.135  62.217 -58.353  1.00  0.00     0.269 C 
ENDBRANCH  38  39
ENDBRANCH  37  38
ENDBRANCH   2  37
TORSDOF 13
ENDMDL
MODEL 10
REMARK VINA RESULT:      -7.1      2.232      4.149
REMARK  13 active torsions:
REMARK  status: ('A' for Active; 'I' for Inactive)
REMARK    1  A    between atoms: C_2  and  O_3 
REMARK    2  A    between atoms: O_3  and  C_4 
REMARK    3  A    between atoms: C_5  and  O_6 
REMARK    4  A    between atoms: C_9  and  C_10 
REMARK    5  A    between atoms: N_11  and  C_12 
REMARK    6  A    between atoms: C_12  and  C_13 
REMARK    7  A    between atoms: C_13  and  N_14 
REMARK    8  A    between atoms: C_20  and  O_21 
REMARK    9  A    between atoms: C_22  and  C_23 
REMARK   10  A    between atoms: C_23  and  C_24 
REMARK   11  A    between atoms: C_28  and  O_29 
REMARK   12  A    between atoms: O_29  and  C_30 
REMARK   13  A    between atoms: C_30  and  C_31 
ROOT
HETATM    1  C   UNL     1     -43.597  59.894 -52.810  1.00  0.00     0.161 A 
HETATM    2  N   UNL     1     -44.565  60.279 -53.844  1.00  0.00    -0.332 N 
HETATM    3  C   UNL     1     -44.008  60.175 -55.097  1.00  0.00     0.278 A 
HETATM    4  O   UNL     1     -44.581  60.282 -56.168  1.00  0.00    -0.265 OA
HETATM    5  C   UNL     1     -42.583  59.832 -54.935  1.00  0.00     0.146 A 
HETATM    6  C   UNL     1     -42.363  59.648 -53.627  1.00  0.00     0.059 A 
ENDROOT
BRANCH   6   7
HETATM    7  C   UNL     1     -41.128  58.987 -53.137  1.00  0.00     0.194 C 
HETATM    8  O   UNL     1     -40.029  59.522 -53.236  1.00  0.00    -0.287 OA
BRANCH   7   9
HETATM    9  C   UNL     1     -41.207  57.599 -52.637  1.00  0.00     0.021 A 
HETATM   10  C   UNL     1     -41.078  57.319 -51.266  1.00  0.00    -0.045 A 
HETATM   11  C   UNL     1     -40.952  58.402 -50.230  1.00  0.00     0.049 C 
HETATM   12  C   UNL     1     -41.128  55.979 -50.853  1.00  0.00     0.044 A 
HETATM   13  C   UNL     1     -41.286  54.940 -51.774  1.00  0.00     0.069 A 
HETATM   14  C   UNL     1     -41.478  55.237 -53.121  1.00  0.00     0.038 A 
HETATM   15  C   UNL     1     -41.458  56.567 -53.548  1.00  0.00     0.019 A 
BRANCH  13  16
HETATM   16  O   UNL     1     -41.281  53.687 -51.233  1.00  0.00    -0.347 OA
BRANCH  16  17
HETATM   17  C   UNL     1     -39.998  53.118 -50.971  1.00  0.00     0.214 C 
BRANCH  17  18
HETATM   18  C   UNL     1     -39.856  51.892 -51.836  1.00  0.00    -0.034 A 
HETATM   19  C   UNL     1     -39.938  51.990 -53.232  1.00  0.00     0.009 A 
HETATM   20  C   UNL     1     -39.832  50.849 -54.030  1.00  0.00     0.001 A 
HETATM   21  C   UNL     1     -39.653  49.600 -53.441  1.00  0.00     0.000 A 
HETATM   22  C   UNL     1     -39.582  49.487 -52.053  1.00  0.00     0.001 A 
HETATM   23  C   UNL     1     -39.686  50.627 -51.253  1.00  0.00     0.009 A 
ENDBRANCH  17  18
ENDBRANCH  16  17
ENDBRANCH  13  16
ENDBRANCH   7   9
ENDBRANCH   6   7
BRANCH   1  24
HETATM   24  C   UNL     1     -43.538  60.955 -51.731  1.00  0.00    -0.028 A 
HETATM   25  C   UNL     1     -43.190  62.289 -52.018  1.00  0.00     0.012 A 
HETATM   26  C   UNL     1     -43.214  63.256 -51.015  1.00  0.00     0.040 A 
HETATM   27  C   UNL     1     -43.623  62.903 -49.736  1.00  0.00     0.099 A 
HETATM   28  C   UNL     1     -44.013  61.599 -49.428  1.00  0.00     0.102 A 
HETATM   29  C   UNL     1     -43.940  60.621 -50.420  1.00  0.00     0.049 A 
BRANCH  27  30
HETATM   30  O   UNL     1     -43.659  63.880 -48.781  1.00  0.00    -0.358 OA
HETATM   31  H   UNL     1     -43.660  63.413 -47.922  1.00  0.00     0.218 HD
ENDBRANCH  27  30
BRANCH  28  32
HETATM   32  O   UNL     1     -44.448  61.402 -48.144  1.00  0.00    -0.349 OA
BRANCH  32  33
HETATM   33  C   UNL     1     -45.683  60.697 -47.994  1.00  0.00     0.171 C 
HETATM   34  C   UNL     1     -45.948  60.510 -46.512  1.00  0.00     0.034 C 
ENDBRANCH  32  33
ENDBRANCH  28  32
ENDBRANCH   1  24
BRANCH   5  35
HETATM   35  O   UNL     1     -41.739  59.643 -55.987  1.00  0.00    -0.355 OA
HETATM   36  H   UNL     1     -42.061  58.880 -56.500  1.00  0.00     0.218 HD
ENDBRANCH   5  35
BRANCH   2  37
HETATM   37  C   UNL     1     -45.955  60.622 -53.513  1.00  0.00     0.155 C 
BRANCH  37  38
HETATM   38  C   UNL     1     -46.385  62.100 -53.661  1.00  0.00     0.254 C 
BRANCH  38  39
HETATM   39  N   UNL     1     -47.484  62.504 -52.702  1.00  0.00    -0.077 N 
HETATM   40  H   UNL     1     -48.125  61.686 -52.668  1.00  0.00     0.279 HD
HETATM   41  C   UNL     1     -47.019  62.818 -51.315  1.00  0.00     0.269 C 
HETATM   42  C   UNL     1     -48.332  63.610 -53.265  1.00  0.00     0.269 C 
ENDBRANCH  38  39
ENDBRANCH  37  38
ENDBRANCH   2  37
TORSDOF 13
ENDMDL
