MODEL 1
REMARK VINA RESULT:      -9.1      0.000      0.000
REMARK  7 active torsions:
REMARK  status: ('A' for Active; 'I' for Inactive)
REMARK    1  A    between atoms: C_4  and  N_5 
REMARK       I    between atoms: N_5  and  C_6 
REMARK    2  A    between atoms: C_6  and  C_7 
REMARK    3  A    between atoms: C_7  and  N_8 
REMARK    4  A    between atoms: N_8  and  C_9 
REMARK    5  A    between atoms: C_10  and  C_11 
REMARK    6  A    between atoms: C_16  and  N_17 
REMARK       I    between atoms: N_17  and  C_18 
REMARK    7  A    between atoms: C_18  and  C_19 
ROOT
HETATM    1  C   UNL     1     -41.726  56.184 -53.054  1.00  0.00     0.024 A 
HETATM    2  C   UNL     1     -43.052  56.627 -53.252  1.00  0.00     0.071 A 
HETATM    3  C   UNL     1     -43.682  56.472 -54.512  1.00  0.00     0.047 A 
HETATM    4  C   UNL     1     -43.015  55.894 -55.588  1.00  0.00     0.035 A 
HETATM    5  C   UNL     1     -41.699  55.483 -55.403  1.00  0.00     0.031 A 
HETATM    6  C   UNL     1     -41.062  55.644 -54.165  1.00  0.00     0.026 A 
ENDROOT
BRANCH   1   7
HETATM    7  N   UNL     1     -41.064  56.448 -51.852  1.00  0.00    -0.284 NA
HETATM    8  H   UNL     1     -41.140  57.432 -51.569  1.00  0.00     0.128 HD
BRANCH   7   9
HETATM    9  C   UNL     1     -41.216  55.588 -50.653  1.00  0.00     0.195 C 
BRANCH   9  10
HETATM   10  C   UNL     1     -41.450  54.126 -51.071  1.00  0.00     0.235 C 
HETATM   11  N   UNL     1     -40.257  53.443 -51.225  1.00  0.00    -0.326 N 
HETATM   12  H   UNL     1     -39.439  54.001 -50.985  1.00  0.00     0.169 HD
HETATM   13  O   UNL     1     -42.582  53.697 -51.275  1.00  0.00    -0.272 OA
BRANCH  11  14
HETATM   14  C   UNL     1     -40.042  52.122 -51.648  1.00  0.00     0.035 A 
HETATM   15  C   UNL     1     -39.958  51.738 -52.987  1.00  0.00     0.036 A 
HETATM   16  C   UNL     1     -39.722  50.397 -53.335  1.00  0.00    -0.060 A 
HETATM   17  C   UNL     1     -39.662  49.989 -54.778  1.00  0.00     0.048 C 
HETATM   18  C   UNL     1     -39.601  49.438 -52.325  1.00  0.00     0.007 A 
HETATM   19  C   UNL     1     -39.686  49.813 -50.986  1.00  0.00     0.003 A 
HETATM   20  C   UNL     1     -39.902  51.151 -50.650  1.00  0.00     0.029 A 
ENDBRANCH  11  14
ENDBRANCH   9  10
ENDBRANCH   7   9
ENDBRANCH   1   7
BRANCH   2  21
HETATM   21  C   UNL     1     -43.840  57.324 -52.167  1.00  0.00     0.419 C 
HETATM   22  F   UNL     1     -43.163  58.366 -51.594  1.00  0.00    -0.166 F 
HETATM   23  F   UNL     1     -45.007  57.854 -52.627  1.00  0.00    -0.166 F 
HETATM   24  F   UNL     1     -44.181  56.506 -51.131  1.00  0.00    -0.166 F 
ENDBRANCH   2  21
BRANCH   4  25
HETATM   25  N   UNL     1     -43.577  55.708 -56.862  1.00  0.00    -0.321 N 
HETATM   26  C   UNL     1     -43.435  56.496 -57.991  1.00  0.00     0.279 C 
HETATM   27  O   UNL     1     -42.753  57.512 -58.066  1.00  0.00    -0.265 OA
HETATM   28  H   UNL     1     -44.165  54.891 -56.995  1.00  0.00     0.169 HD
BRANCH  26  29
HETATM   29  C   UNL     1     -44.193  55.989 -59.121  1.00  0.00     0.142 A 
HETATM   30  O   UNL     1     -45.404  56.557 -59.432  1.00  0.00    -0.317 OA
HETATM   31  C   UNL     1     -45.885  55.904 -60.522  1.00  0.00     0.143 A 
HETATM   32  C   UNL     1     -45.010  54.922 -60.921  1.00  0.00     0.027 A 
HETATM   33  C   UNL     1     -43.920  54.974 -60.019  1.00  0.00     0.045 A 
ENDBRANCH  26  29
ENDBRANCH   4  25
TORSDOF 7
ENDMDL
MODEL 2
REMARK VINA RESULT:      -8.6      4.604      8.910
REMARK  7 active torsions:
REMARK  status: ('A' for Active; 'I' for Inactive)
REMARK    1  A    between atoms: C_4  and  N_5 
REMARK       I    between atoms: N_5  and  C_6 
REMARK    2  A    between atoms: C_6  and  C_7 
REMARK    3  A    between atoms: C_7  and  N_8 
REMARK    4  A    between atoms: N_8  and  C_9 
REMARK    5  A    between atoms: C_10  and  C_11 
REMARK    6  A    between atoms: C_16  and  N_17 
REMARK       I    between atoms: N_17  and  C_18 
REMARK    7  A    between atoms: C_18  and  C_19 
ROOT
HETATM    1  C   UNL     1     -42.801  57.669 -51.526  1.00  0.00     0.024 A 
HETATM    2  C   UNL     1     -41.557  57.600 -52.192  1.00  0.00     0.071 A 
HETATM    3  C   UNL     1     -41.040  56.354 -52.624  1.00  0.00     0.047 A 
HETATM    4  C   UNL     1     -41.730  55.167 -52.398  1.00  0.00     0.035 A 
HETATM    5  C   UNL     1     -42.942  55.229 -51.718  1.00  0.00     0.031 A 
HETATM    6  C   UNL     1     -43.455  56.455 -51.274  1.00  0.00     0.026 A 
ENDROOT
BRANCH   1   7
HETATM    7  N   UNL     1     -43.251  58.879 -50.992  1.00  0.00    -0.284 NA
HETATM    8  H   UNL     1     -42.559  59.631 -51.083  1.00  0.00     0.128 HD
BRANCH   7   9
HETATM    9  C   UNL     1     -44.599  59.427 -51.282  1.00  0.00     0.195 C 
BRANCH   9  10
HETATM   10  C   UNL     1     -45.354  59.706 -49.970  1.00  0.00     0.235 C 
HETATM   11  N   UNL     1     -44.879  60.844 -49.343  1.00  0.00    -0.326 N 
HETATM   12  H   UNL     1     -44.158  61.327 -49.875  1.00  0.00     0.169 HD
HETATM   13  O   UNL     1     -46.226  58.944 -49.564  1.00  0.00    -0.272 OA
BRANCH  11  14
HETATM   14  C   UNL     1     -45.260  61.399 -48.111  1.00  0.00     0.035 A 
HETATM   15  C   UNL     1     -44.644  61.094 -46.896  1.00  0.00     0.036 A 
HETATM   16  C   UNL     1     -45.069  61.704 -45.704  1.00  0.00    -0.060 A 
HETATM   17  C   UNL     1     -44.419  61.348 -44.399  1.00  0.00     0.048 C 
HETATM   18  C   UNL     1     -46.140  62.603 -45.737  1.00  0.00     0.007 A 
HETATM   19  C   UNL     1     -46.760  62.910 -46.945  1.00  0.00     0.003 A 
HETATM   20  C   UNL     1     -46.320  62.313 -48.127  1.00  0.00     0.029 A 
ENDBRANCH  11  14
ENDBRANCH   9  10
ENDBRANCH   7   9
ENDBRANCH   1   7
BRANCH   2  21
HETATM   21  C   UNL     1     -40.702  58.823 -52.429  1.00  0.00     0.419 C 
HETATM   22  F   UNL     1     -39.620  58.577 -53.230  1.00  0.00    -0.166 F 
HETATM   23  F   UNL     1     -41.388  59.829 -53.039  1.00  0.00    -0.166 F 
HETATM   24  F   UNL     1     -40.186  59.358 -51.286  1.00  0.00    -0.166 F 
ENDBRANCH   2  21
BRANCH   4  25
HETATM   25  N   UNL     1     -41.279  53.898 -52.800  1.00  0.00    -0.321 N 
HETATM   26  C   UNL     1     -40.317  53.098 -52.208  1.00  0.00     0.279 C 
HETATM   27  O   UNL     1     -39.695  53.372 -51.187  1.00  0.00    -0.265 OA
HETATM   28  H   UNL     1     -41.704  53.496 -53.629  1.00  0.00     0.169 HD
BRANCH  26  29
HETATM   29  C   UNL     1     -40.106  51.856 -52.932  1.00  0.00     0.142 A 
HETATM   30  O   UNL     1     -39.640  50.754 -52.259  1.00  0.00    -0.317 OA
HETATM   31  C   UNL     1     -39.544  49.744 -53.163  1.00  0.00     0.143 A 
HETATM   32  C   UNL     1     -39.937  50.173 -54.409  1.00  0.00     0.027 A 
HETATM   33  C   UNL     1     -40.298  51.534 -54.262  1.00  0.00     0.045 A 
ENDBRANCH  26  29
ENDBRANCH   4  25
TORSDOF 7
ENDMDL
MODEL 3
REMARK VINA RESULT:      -8.4      4.114      7.105
REMARK  7 active torsions:
REMARK  status: ('A' for Active; 'I' for Inactive)
REMARK    1  A    between atoms: C_4  and  N_5 
REMARK       I    between atoms: N_5  and  C_6 
REMARK    2  A    between atoms: C_6  and  C_7 
REMARK    3  A    between atoms: C_7  and  N_8 
REMARK    4  A    between atoms: N_8  and  C_9 
REMARK    5  A    between atoms: C_10  and  C_11 
REMARK    6  A    between atoms: C_16  and  N_17 
REMARK       I    between atoms: N_17  and  C_18 
REMARK    7  A    between atoms: C_18  and  C_19 
ROOT
HETATM    1  C   UNL     1     -43.331  57.804 -53.409  1.00  0.00     0.024 A 
HETATM    2  C   UNL     1     -42.397  58.298 -52.470  1.00  0.00     0.071 A 
HETATM    3  C   UNL     1     -42.838  58.951 -51.293  1.00  0.00     0.047 A 
HETATM    4  C   UNL     1     -44.192  59.137 -51.031  1.00  0.00     0.035 A 
HETATM    5  C   UNL     1     -45.112  58.677 -51.968  1.00  0.00     0.031 A 
HETATM    6  C   UNL     1     -44.687  58.042 -53.142  1.00  0.00     0.026 A 
ENDROOT
BRANCH   1   7
HETATM    7  N   UNL     1     -42.897  57.272 -54.625  1.00  0.00    -0.284 NA
HETATM    8  H   UNL     1     -41.885  57.375 -54.760  1.00  0.00     0.128 HD
BRANCH   7   9
HETATM    9  C   UNL     1     -43.313  55.931 -55.103  1.00  0.00     0.195 C 
BRANCH   9  10
HETATM   10  C   UNL     1     -42.897  54.851 -54.088  1.00  0.00     0.235 C 
HETATM   11  N   UNL     1     -41.628  54.367 -54.352  1.00  0.00    -0.326 N 
HETATM   12  H   UNL     1     -41.169  54.841 -55.128  1.00  0.00     0.169 HD
HETATM   13  O   UNL     1     -43.666  54.475 -53.208  1.00  0.00    -0.272 OA
BRANCH  11  14
HETATM   14  C   UNL     1     -40.917  53.347 -53.700  1.00  0.00     0.035 A 
HETATM   15  C   UNL     1     -40.545  52.147 -54.309  1.00  0.00     0.036 A 
HETATM   16  C   UNL     1     -39.817  51.178 -53.597  1.00  0.00    -0.060 A 
HETATM   17  C   UNL     1     -39.447  49.879 -54.251  1.00  0.00     0.048 C 
HETATM   18  C   UNL     1     -39.490  51.412 -52.258  1.00  0.00     0.007 A 
HETATM   19  C   UNL     1     -39.860  52.607 -51.644  1.00  0.00     0.003 A 
HETATM   20  C   UNL     1     -40.568  53.571 -52.363  1.00  0.00     0.029 A 
ENDBRANCH  11  14
ENDBRANCH   9  10
ENDBRANCH   7   9
ENDBRANCH   1   7
BRANCH   2  21
HETATM   21  C   UNL     1     -40.906  58.203 -52.692  1.00  0.00     0.419 C 
HETATM   22  F   UNL     1     -40.486  56.938 -53.001  1.00  0.00    -0.166 F 
HETATM   23  F   UNL     1     -40.479  58.991 -53.718  1.00  0.00    -0.166 F 
HETATM   24  F   UNL     1     -40.169  58.569 -51.605  1.00  0.00    -0.166 F 
ENDBRANCH   2  21
BRANCH   4  25
HETATM   25  N   UNL     1     -44.699  59.773 -49.886  1.00  0.00    -0.321 N 
HETATM   26  C   UNL     1     -44.919  61.123 -49.676  1.00  0.00     0.279 C 
HETATM   27  O   UNL     1     -44.717  62.012 -50.497  1.00  0.00    -0.265 OA
HETATM   28  H   UNL     1     -44.945  59.183 -49.098  1.00  0.00     0.169 HD
BRANCH  26  29
HETATM   29  C   UNL     1     -45.434  61.402 -48.346  1.00  0.00     0.142 A 
HETATM   30  O   UNL     1     -46.734  61.819 -48.199  1.00  0.00    -0.317 OA
HETATM   31  C   UNL     1     -46.949  61.995 -46.870  1.00  0.00     0.143 A 
HETATM   32  C   UNL     1     -45.812  61.703 -46.153  1.00  0.00     0.027 A 
HETATM   33  C   UNL     1     -44.834  61.322 -47.103  1.00  0.00     0.045 A 
ENDBRANCH  26  29
ENDBRANCH   4  25
TORSDOF 7
ENDMDL
MODEL 4
REMARK VINA RESULT:      -8.4      3.630      6.642
REMARK  7 active torsions:
REMARK  status: ('A' for Active; 'I' for Inactive)
REMARK    1  A    between atoms: C_4  and  N_5 
REMARK       I    between atoms: N_5  and  C_6 
REMARK    2  A    between atoms: C_6  and  C_7 
REMARK    3  A    between atoms: C_7  and  N_8 
REMARK    4  A    between atoms: N_8  and  C_9 
REMARK    5  A    between atoms: C_10  and  C_11 
REMARK    6  A    between atoms: C_16  and  N_17 
REMARK       I    between atoms: N_17  and  C_18 
REMARK    7  A    between atoms: C_18  and  C_19 
ROOT
HETATM    1  C   UNL     1     -43.385  55.995 -53.241  1.00  0.00     0.024 A 
HETATM    2  C   UNL     1     -43.116  55.895 -51.858  1.00  0.00     0.071 A 
HETATM    3  C   UNL     1     -43.389  56.981 -50.991  1.00  0.00     0.047 A 
HETATM    4  C   UNL     1     -43.914  58.177 -51.472  1.00  0.00     0.035 A 
HETATM    5  C   UNL     1     -44.154  58.288 -52.838  1.00  0.00     0.031 A 
HETATM    6  C   UNL     1     -43.875  57.224 -53.706  1.00  0.00     0.026 A 
ENDROOT
BRANCH   1   7
HETATM    7  N   UNL     1     -43.003  54.972 -54.112  1.00  0.00    -0.284 NA
HETATM    8  H   UNL     1     -43.806  54.529 -54.574  1.00  0.00     0.128 HD
BRANCH   7   9
HETATM    9  C   UNL     1     -41.907  55.132 -55.099  1.00  0.00     0.195 C 
BRANCH   9  10
HETATM   10  C   UNL     1     -40.816  54.074 -54.859  1.00  0.00     0.235 C 
HETATM   11  N   UNL     1     -41.327  52.946 -54.243  1.00  0.00    -0.326 N 
HETATM   12  H   UNL     1     -42.336  52.984 -54.104  1.00  0.00     0.169 HD
HETATM   13  O   UNL     1     -39.645  54.290 -55.157  1.00  0.00    -0.272 OA
BRANCH  11  14
HETATM   14  C   UNL     1     -40.654  51.793 -53.808  1.00  0.00     0.035 A 
HETATM   15  C   UNL     1     -40.381  51.511 -52.468  1.00  0.00     0.036 A 
HETATM   16  C   UNL     1     -39.718  50.326 -52.106  1.00  0.00    -0.060 A 
HETATM   17  C   UNL     1     -39.402  50.046 -50.666  1.00  0.00     0.048 C 
HETATM   18  C   UNL     1     -39.305  49.438 -53.105  1.00  0.00     0.007 A 
HETATM   19  C   UNL     1     -39.573  49.714 -54.444  1.00  0.00     0.003 A 
HETATM   20  C   UNL     1     -40.248  50.885 -54.793  1.00  0.00     0.029 A 
ENDBRANCH  11  14
ENDBRANCH   9  10
ENDBRANCH   7   9
ENDBRANCH   1   7
BRANCH   2  21
HETATM   21  C   UNL     1     -42.488  54.664 -51.248  1.00  0.00     0.419 C 
HETATM   22  F   UNL     1     -43.065  53.498 -51.669  1.00  0.00    -0.166 F 
HETATM   23  F   UNL     1     -41.165  54.548 -51.551  1.00  0.00    -0.166 F 
HETATM   24  F   UNL     1     -42.566  54.630 -49.887  1.00  0.00    -0.166 F 
ENDBRANCH   2  21
BRANCH   4  25
HETATM   25  N   UNL     1     -44.210  59.292 -50.671  1.00  0.00    -0.321 N 
HETATM   26  C   UNL     1     -45.426  59.663 -50.124  1.00  0.00     0.279 C 
HETATM   27  O   UNL     1     -46.476  59.040 -50.239  1.00  0.00    -0.265 OA
HETATM   28  H   UNL     1     -43.445  59.921 -50.450  1.00  0.00     0.169 HD
BRANCH  26  29
HETATM   29  C   UNL     1     -45.341  60.901 -49.369  1.00  0.00     0.142 A 
HETATM   30  O   UNL     1     -46.442  61.349 -48.680  1.00  0.00    -0.317 OA
HETATM   31  C   UNL     1     -46.085  62.507 -48.065  1.00  0.00     0.143 A 
HETATM   32  C   UNL     1     -44.775  62.818 -48.345  1.00  0.00     0.027 A 
HETATM   33  C   UNL     1     -44.295  61.786 -49.186  1.00  0.00     0.045 A 
ENDBRANCH  26  29
ENDBRANCH   4  25
TORSDOF 7
ENDMDL
MODEL 5
REMARK VINA RESULT:      -8.4      1.644      2.316
REMARK  7 active torsions:
REMARK  status: ('A' for Active; 'I' for Inactive)
REMARK    1  A    between atoms: C_4  and  N_5 
REMARK       I    between atoms: N_5  and  C_6 
REMARK    2  A    between atoms: C_6  and  C_7 
REMARK    3  A    between atoms: C_7  and  N_8 
REMARK    4  A    between atoms: N_8  and  C_9 
REMARK    5  A    between atoms: C_10  and  C_11 
REMARK    6  A    between atoms: C_16  and  N_17 
REMARK       I    between atoms: N_17  and  C_18 
REMARK    7  A    between atoms: C_18  and  C_19 
ROOT
HETATM    1  C   UNL     1     -42.923  57.135 -52.073  1.00  0.00     0.024 A 
HETATM    2  C   UNL     1     -42.430  58.095 -52.985  1.00  0.00     0.071 A 
HETATM    3  C   UNL     1     -42.687  57.968 -54.371  1.00  0.00     0.047 A 
HETATM    4  C   UNL     1     -43.418  56.897 -54.878  1.00  0.00     0.035 A 
HETATM    5  C   UNL     1     -43.880  55.936 -53.984  1.00  0.00     0.031 A 
HETATM    6  C   UNL     1     -43.619  56.044 -52.612  1.00  0.00     0.026 A 
ENDROOT
BRANCH   1   7
HETATM    7  N   UNL     1     -42.566  57.193 -50.723  1.00  0.00    -0.284 NA
HETATM    8  H   UNL     1     -43.354  56.984 -50.099  1.00  0.00     0.128 HD
BRANCH   7   9
HETATM    9  C   UNL     1     -41.344  56.541 -50.192  1.00  0.00     0.195 C 
BRANCH   9  10
HETATM   10  C   UNL     1     -41.385  55.028 -50.467  1.00  0.00     0.235 C 
HETATM   11  N   UNL     1     -40.502  54.668 -51.469  1.00  0.00    -0.326 N 
HETATM   12  H   UNL     1     -39.942  55.448 -51.812  1.00  0.00     0.169 HD
HETATM   13  O   UNL     1     -42.166  54.294 -49.868  1.00  0.00    -0.272 OA
BRANCH  11  14
HETATM   14  C   UNL     1     -40.283  53.407 -52.045  1.00  0.00     0.035 A 
HETATM   15  C   UNL     1     -39.924  52.272 -51.317  1.00  0.00     0.036 A 
HETATM   16  C   UNL     1     -39.739  51.036 -51.961  1.00  0.00    -0.060 A 
HETATM   17  C   UNL     1     -39.324  49.828 -51.174  1.00  0.00     0.048 C 
HETATM   18  C   UNL     1     -39.890  50.956 -53.349  1.00  0.00     0.007 A 
HETATM   19  C   UNL     1     -40.247  52.086 -54.082  1.00  0.00     0.003 A 
HETATM   20  C   UNL     1     -40.446  53.305 -53.431  1.00  0.00     0.029 A 
ENDBRANCH  11  14
ENDBRANCH   9  10
ENDBRANCH   7   9
ENDBRANCH   1   7
BRANCH   2  21
HETATM   21  C   UNL     1     -41.574  59.259 -52.544  1.00  0.00     0.419 C 
HETATM   22  F   UNL     1     -40.313  58.889 -52.166  1.00  0.00    -0.166 F 
HETATM   23  F   UNL     1     -41.404  60.185 -53.529  1.00  0.00    -0.166 F 
HETATM   24  F   UNL     1     -42.083  59.936 -51.476  1.00  0.00    -0.166 F 
ENDBRANCH   2  21
BRANCH   4  25
HETATM   25  N   UNL     1     -43.712  56.709 -56.238  1.00  0.00    -0.321 N 
HETATM   26  C   UNL     1     -43.106  55.852 -57.141  1.00  0.00     0.279 C 
HETATM   27  O   UNL     1     -42.194  55.075 -56.880  1.00  0.00    -0.265 OA
HETATM   28  H   UNL     1     -44.466  57.263 -56.631  1.00  0.00     0.169 HD
BRANCH  26  29
HETATM   29  C   UNL     1     -43.674  55.958 -58.474  1.00  0.00     0.142 A 
HETATM   30  O   UNL     1     -43.899  57.200 -59.015  1.00  0.00    -0.317 OA
HETATM   31  C   UNL     1     -44.419  57.007 -60.255  1.00  0.00     0.143 A 
HETATM   32  C   UNL     1     -44.537  55.664 -60.526  1.00  0.00     0.027 A 
HETATM   33  C   UNL     1     -44.059  54.987 -59.379  1.00  0.00     0.045 A 
ENDBRANCH  26  29
ENDBRANCH   4  25
TORSDOF 7
ENDMDL
MODEL 6
REMARK VINA RESULT:      -8.4      4.685      8.039
REMARK  7 active torsions:
REMARK  status: ('A' for Active; 'I' for Inactive)
REMARK    1  A    between atoms: C_4  and  N_5 
REMARK       I    between atoms: N_5  and  C_6 
REMARK    2  A    between atoms: C_6  and  C_7 
REMARK    3  A    between atoms: C_7  and  N_8 
REMARK    4  A    between atoms: N_8  and  C_9 
REMARK    5  A    between atoms: C_10  and  C_11 
REMARK    6  A    between atoms: C_16  and  N_17 
REMARK       I    between atoms: N_17  and  C_18 
REMARK    7  A    between atoms: C_18  and  C_19 
ROOT
HETATM    1  C   UNL     1     -41.987  60.011 -52.865  1.00  0.00     0.024 A 
HETATM    2  C   UNL     1     -41.460  59.760 -51.578  1.00  0.00     0.071 A 
HETATM    3  C   UNL     1     -42.137  60.217 -50.422  1.00  0.00     0.047 A 
HETATM    4  C   UNL     1     -43.327  60.934 -50.515  1.00  0.00     0.035 A 
HETATM    5  C   UNL     1     -43.833  61.207 -51.782  1.00  0.00     0.031 A 
HETATM    6  C   UNL     1     -43.164  60.771 -52.933  1.00  0.00     0.026 A 
ENDROOT
BRANCH   1   7
HETATM    7  N   UNL     1     -41.258  59.669 -54.007  1.00  0.00    -0.284 NA
HETATM    8  H   UNL     1     -40.347  59.255 -53.782  1.00  0.00     0.128 HD
BRANCH   7   9
HETATM    9  C   UNL     1     -41.858  58.928 -55.143  1.00  0.00     0.195 C 
BRANCH   9  10
HETATM   10  C   UNL     1     -42.147  57.472 -54.737  1.00  0.00     0.235 C 
HETATM   11  N   UNL     1     -40.998  56.820 -54.327  1.00  0.00    -0.326 N 
HETATM   12  H   UNL     1     -40.176  57.423 -54.311  1.00  0.00     0.169 HD
HETATM   13  O   UNL     1     -43.274  56.996 -54.837  1.00  0.00    -0.272 OA
BRANCH  11  14
HETATM   14  C   UNL     1     -40.831  55.483 -53.936  1.00  0.00     0.035 A 
HETATM   15  C   UNL     1     -41.051  55.019 -52.638  1.00  0.00     0.036 A 
HETATM   16  C   UNL     1     -40.881  53.660 -52.324  1.00  0.00    -0.060 A 
HETATM   17  C   UNL     1     -41.091  53.175 -50.919  1.00  0.00     0.048 C 
HETATM   18  C   UNL     1     -40.459  52.773 -53.320  1.00  0.00     0.007 A 
HETATM   19  C   UNL     1     -40.236  53.229 -54.617  1.00  0.00     0.003 A 
HETATM   20  C   UNL     1     -40.425  54.578 -54.923  1.00  0.00     0.029 A 
ENDBRANCH  11  14
ENDBRANCH   9  10
ENDBRANCH   7   9
ENDBRANCH   1   7
BRANCH   2  21
HETATM   21  C   UNL     1     -40.144  59.047 -51.372  1.00  0.00     0.419 C 
HETATM   22  F   UNL     1     -39.354  59.637 -50.424  1.00  0.00    -0.166 F 
HETATM   23  F   UNL     1     -40.307  57.758 -50.963  1.00  0.00    -0.166 F 
HETATM   24  F   UNL     1     -39.373  58.990 -52.495  1.00  0.00    -0.166 F 
ENDBRANCH   2  21
BRANCH   4  25
HETATM   25  N   UNL     1     -44.051  61.415 -49.412  1.00  0.00    -0.321 N 
HETATM   26  C   UNL     1     -45.247  60.948 -48.896  1.00  0.00     0.279 C 
HETATM   27  O   UNL     1     -45.880  59.988 -49.324  1.00  0.00    -0.265 OA
HETATM   28  H   UNL     1     -43.663  62.208 -48.912  1.00  0.00     0.169 HD
BRANCH  26  29
HETATM   29  C   UNL     1     -45.701  61.725 -47.755  1.00  0.00     0.142 A 
HETATM   30  O   UNL     1     -46.910  61.430 -47.175  1.00  0.00    -0.317 OA
HETATM   31  C   UNL     1     -47.079  62.293 -46.140  1.00  0.00     0.143 A 
HETATM   32  C   UNL     1     -46.003  63.144 -46.041  1.00  0.00     0.027 A 
HETATM   33  C   UNL     1     -45.115  62.781 -47.081  1.00  0.00     0.045 A 
ENDBRANCH  26  29
ENDBRANCH   4  25
TORSDOF 7
ENDMDL
MODEL 7
REMARK VINA RESULT:      -8.1      3.967      7.094
REMARK  7 active torsions:
REMARK  status: ('A' for Active; 'I' for Inactive)
REMARK    1  A    between atoms: C_4  and  N_5 
REMARK       I    between atoms: N_5  and  C_6 
REMARK    2  A    between atoms: C_6  and  C_7 
REMARK    3  A    between atoms: C_7  and  N_8 
REMARK    4  A    between atoms: N_8  and  C_9 
REMARK    5  A    between atoms: C_10  and  C_11 
REMARK    6  A    between atoms: C_16  and  N_17 
REMARK       I    between atoms: N_17  and  C_18 
REMARK    7  A    between atoms: C_18  and  C_19 
ROOT
HETATM    1  C   UNL     1     -43.599  57.756 -53.929  1.00  0.00     0.024 A 
HETATM    2  C   UNL     1     -43.291  59.115 -53.697  1.00  0.00     0.071 A 
HETATM    3  C   UNL     1     -43.567  59.711 -52.442  1.00  0.00     0.047 A 
HETATM    4  C   UNL     1     -44.157  58.987 -51.410  1.00  0.00     0.035 A 
HETATM    5  C   UNL     1     -44.486  57.656 -51.646  1.00  0.00     0.031 A 
HETATM    6  C   UNL     1     -44.230  57.060 -52.888  1.00  0.00     0.026 A 
ENDROOT
BRANCH   1   7
HETATM    7  N   UNL     1     -43.440  57.202 -55.202  1.00  0.00    -0.284 NA
HETATM    8  H   UNL     1     -43.715  57.850 -55.949  1.00  0.00     0.128 HD
BRANCH   7   9
HETATM    9  C   UNL     1     -42.209  56.485 -55.612  1.00  0.00     0.195 C 
BRANCH   9  10
HETATM   10  C   UNL     1     -42.187  55.071 -55.005  1.00  0.00     0.235 C 
HETATM   11  N   UNL     1     -40.997  54.819 -54.346  1.00  0.00    -0.326 N 
HETATM   12  H   UNL     1     -40.368  55.620 -54.328  1.00  0.00     0.169 HD
HETATM   13  O   UNL     1     -43.125  54.296 -55.166  1.00  0.00    -0.272 OA
BRANCH  11  14
HETATM   14  C   UNL     1     -40.568  53.641 -53.716  1.00  0.00     0.035 A 
HETATM   15  C   UNL     1     -40.298  52.450 -54.393  1.00  0.00     0.036 A 
HETATM   16  C   UNL     1     -39.853  51.314 -53.695  1.00  0.00    -0.060 A 
HETATM   17  C   UNL     1     -39.593  50.031 -54.428  1.00  0.00     0.048 C 
HETATM   18  C   UNL     1     -39.710  51.374 -52.305  1.00  0.00     0.007 A 
HETATM   19  C   UNL     1     -39.980  52.558 -51.623  1.00  0.00     0.003 A 
HETATM   20  C   UNL     1     -40.404  53.687 -52.326  1.00  0.00     0.029 A 
ENDBRANCH  11  14
ENDBRANCH   9  10
ENDBRANCH   7   9
ENDBRANCH   1   7
BRANCH   2  21
HETATM   21  C   UNL     1     -42.708  60.003 -54.771  1.00  0.00     0.419 C 
HETATM   22  F   UNL     1     -43.460  60.032 -55.913  1.00  0.00    -0.166 F 
HETATM   23  F   UNL     1     -42.598  61.301 -54.372  1.00  0.00    -0.166 F 
HETATM   24  F   UNL     1     -41.461  59.626 -55.173  1.00  0.00    -0.166 F 
ENDBRANCH   2  21
BRANCH   4  25
HETATM   25  N   UNL     1     -44.457  59.512 -50.143  1.00  0.00    -0.321 N 
HETATM   26  C   UNL     1     -45.487  60.363 -49.784  1.00  0.00     0.279 C 
HETATM   27  O   UNL     1     -46.348  60.796 -50.543  1.00  0.00    -0.265 OA
HETATM   28  H   UNL     1     -43.853  59.241 -49.373  1.00  0.00     0.169 HD
BRANCH  26  29
HETATM   29  C   UNL     1     -45.457  60.708 -48.373  1.00  0.00     0.142 A 
HETATM   30  O   UNL     1     -46.183  59.960 -47.480  1.00  0.00    -0.317 OA
HETATM   31  C   UNL     1     -45.970  60.491 -46.247  1.00  0.00     0.143 A 
HETATM   32  C   UNL     1     -45.121  61.570 -46.326  1.00  0.00     0.027 A 
HETATM   33  C   UNL     1     -44.791  61.713 -47.695  1.00  0.00     0.045 A 
ENDBRANCH  26  29
ENDBRANCH   4  25
TORSDOF 7
ENDMDL
MODEL 8
REMARK VINA RESULT:      -7.8      2.337      7.394
REMARK  7 active torsions:
REMARK  status: ('A' for Active; 'I' for Inactive)
REMARK    1  A    between atoms: C_4  and  N_5 
REMARK       I    between atoms: N_5  and  C_6 
REMARK    2  A    between atoms: C_6  and  C_7 
REMARK    3  A    between atoms: C_7  and  N_8 
REMARK    4  A    between atoms: N_8  and  C_9 
REMARK    5  A    between atoms: C_10  and  C_11 
REMARK    6  A    between atoms: C_16  and  N_17 
REMARK       I    between atoms: N_17  and  C_18 
REMARK    7  A    between atoms: C_18  and  C_19 
ROOT
HETATM    1  C   UNL     1     -43.218  57.681 -53.607  1.00  0.00     0.024 A 
HETATM    2  C   UNL     1     -41.814  57.564 -53.502  1.00  0.00     0.071 A 
HETATM    3  C   UNL     1     -41.195  56.291 -53.519  1.00  0.00     0.047 A 
HETATM    4  C   UNL     1     -41.944  55.123 -53.627  1.00  0.00     0.035 A 
HETATM    5  C   UNL     1     -43.329  55.234 -53.703  1.00  0.00     0.031 A 
HETATM    6  C   UNL     1     -43.952  56.488 -53.672  1.00  0.00     0.026 A 
ENDROOT
BRANCH   1   7
HETATM    7  N   UNL     1     -43.836  58.926 -53.467  1.00  0.00    -0.284 NA
HETATM    8  H   UNL     1     -43.415  59.493 -52.722  1.00  0.00     0.128 HD
BRANCH   7   9
HETATM    9  C   UNL     1     -44.140  59.801 -54.625  1.00  0.00     0.195 C 
BRANCH   9  10
HETATM   10  C   UNL     1     -44.392  58.952 -55.884  1.00  0.00     0.235 C 
HETATM   11  N   UNL     1     -43.210  58.627 -56.523  1.00  0.00    -0.326 N 
HETATM   12  H   UNL     1     -42.381  58.954 -56.029  1.00  0.00     0.169 HD
HETATM   13  O   UNL     1     -45.532  58.674 -56.246  1.00  0.00    -0.272 OA
BRANCH  11  14
HETATM   14  C   UNL     1     -43.017  57.921 -57.721  1.00  0.00     0.035 A 
HETATM   15  C   UNL     1     -43.681  56.736 -58.041  1.00  0.00     0.036 A 
HETATM   16  C   UNL     1     -43.450  56.093 -59.269  1.00  0.00    -0.060 A 
HETATM   17  C   UNL     1     -44.147  54.804 -59.591  1.00  0.00     0.048 C 
HETATM   18  C   UNL     1     -42.522  56.637 -60.164  1.00  0.00     0.007 A 
HETATM   19  C   UNL     1     -41.855  57.818 -59.851  1.00  0.00     0.003 A 
HETATM   20  C   UNL     1     -42.104  58.459 -58.636  1.00  0.00     0.029 A 
ENDBRANCH  11  14
ENDBRANCH   9  10
ENDBRANCH   7   9
ENDBRANCH   1   7
BRANCH   2  21
HETATM   21  C   UNL     1     -40.917  58.766 -53.318  1.00  0.00     0.419 C 
HETATM   22  F   UNL     1     -41.141  59.431 -52.144  1.00  0.00    -0.166 F 
HETATM   23  F   UNL     1     -39.596  58.435 -53.305  1.00  0.00    -0.166 F 
HETATM   24  F   UNL     1     -41.060  59.707 -54.294  1.00  0.00    -0.166 F 
ENDBRANCH   2  21
BRANCH   4  25
HETATM   25  N   UNL     1     -41.398  53.829 -53.652  1.00  0.00    -0.321 N 
HETATM   26  C   UNL     1     -40.580  53.220 -52.716  1.00  0.00     0.279 C 
HETATM   27  O   UNL     1     -40.203  53.728 -51.665  1.00  0.00    -0.265 OA
HETATM   28  H   UNL     1     -41.623  53.245 -54.451  1.00  0.00     0.169 HD
BRANCH  26  29
HETATM   29  C   UNL     1     -40.196  51.874 -53.105  1.00  0.00     0.142 A 
HETATM   30  O   UNL     1     -39.735  51.001 -52.151  1.00  0.00    -0.317 OA
HETATM   31  C   UNL     1     -39.461  49.829 -52.780  1.00  0.00     0.143 A 
HETATM   32  C   UNL     1     -39.734  49.927 -54.124  1.00  0.00     0.027 A 
HETATM   33  C   UNL     1     -40.206  51.245 -54.336  1.00  0.00     0.045 A 
ENDBRANCH  26  29
ENDBRANCH   4  25
TORSDOF 7
ENDMDL
MODEL 9
REMARK VINA RESULT:      -7.8      2.558      7.763
REMARK  7 active torsions:
REMARK  status: ('A' for Active; 'I' for Inactive)
REMARK    1  A    between atoms: C_4  and  N_5 
REMARK       I    between atoms: N_5  and  C_6 
REMARK    2  A    between atoms: C_6  and  C_7 
REMARK    3  A    between atoms: C_7  and  N_8 
REMARK    4  A    between atoms: N_8  and  C_9 
REMARK    5  A    between atoms: C_10  and  C_11 
REMARK    6  A    between atoms: C_16  and  N_17 
REMARK       I    between atoms: N_17  and  C_18 
REMARK    7  A    between atoms: C_18  and  C_19 
ROOT
HETATM    1  C   UNL     1     -43.188  57.784 -53.088  1.00  0.00     0.024 A 
HETATM    2  C   UNL     1     -41.778  57.699 -53.100  1.00  0.00     0.071 A 
HETATM    3  C   UNL     1     -41.134  56.438 -53.089  1.00  0.00     0.047 A 
HETATM    4  C   UNL     1     -41.862  55.253 -53.053  1.00  0.00     0.035 A 
HETATM    5  C   UNL     1     -43.251  55.335 -53.012  1.00  0.00     0.031 A 
HETATM    6  C   UNL     1     -43.898  56.578 -53.009  1.00  0.00     0.026 A 
ENDROOT
BRANCH   1   7
HETATM    7  N   UNL     1     -43.820  59.025 -52.975  1.00  0.00    -0.284 NA
HETATM    8  H   UNL     1     -43.177  59.810 -53.129  1.00  0.00     0.128 HD
BRANCH   7   9
HETATM    9  C   UNL     1     -45.113  59.325 -53.637  1.00  0.00     0.195 C 
BRANCH   9  10
HETATM   10  C   UNL     1     -44.924  59.413 -55.162  1.00  0.00     0.235 C 
HETATM   11  N   UNL     1     -45.634  58.425 -55.820  1.00  0.00    -0.326 N 
HETATM   12  H   UNL     1     -46.198  57.849 -55.196  1.00  0.00     0.169 HD
HETATM   13  O   UNL     1     -44.180  60.251 -55.663  1.00  0.00    -0.272 OA
BRANCH  11  14
HETATM   14  C   UNL     1     -45.679  58.134 -57.192  1.00  0.00     0.035 A 
HETATM   15  C   UNL     1     -44.594  57.637 -57.918  1.00  0.00     0.036 A 
HETATM   16  C   UNL     1     -44.719  57.351 -59.288  1.00  0.00    -0.060 A 
HETATM   17  C   UNL     1     -43.540  56.845 -60.066  1.00  0.00     0.048 C 
HETATM   18  C   UNL     1     -45.937  57.595 -59.932  1.00  0.00     0.007 A 
HETATM   19  C   UNL     1     -47.022  58.092 -59.214  1.00  0.00     0.003 A 
HETATM   20  C   UNL     1     -46.894  58.356 -57.850  1.00  0.00     0.029 A 
ENDBRANCH  11  14
ENDBRANCH   9  10
ENDBRANCH   7   9
ENDBRANCH   1   7
BRANCH   2  21
HETATM   21  C   UNL     1     -40.897  58.926 -53.075  1.00  0.00     0.419 C 
HETATM   22  F   UNL     1     -39.569  58.640 -53.241  1.00  0.00    -0.166 F 
HETATM   23  F   UNL     1     -41.206  59.811 -54.063  1.00  0.00    -0.166 F 
HETATM   24  F   UNL     1     -40.968  59.625 -51.908  1.00  0.00    -0.166 F 
ENDBRANCH   2  21
BRANCH   4  25
HETATM   25  N   UNL     1     -41.291  53.970 -53.042  1.00  0.00    -0.321 N 
HETATM   26  C   UNL     1     -40.647  53.303 -54.070  1.00  0.00     0.279 C 
HETATM   27  O   UNL     1     -40.449  53.753 -55.193  1.00  0.00    -0.265 OA
HETATM   28  H   UNL     1     -41.343  53.446 -52.174  1.00  0.00     0.169 HD
BRANCH  26  29
HETATM   29  C   UNL     1     -40.209  51.973 -53.682  1.00  0.00     0.142 A 
HETATM   30  O   UNL     1     -39.856  51.733 -52.377  1.00  0.00    -0.317 OA
HETATM   31  C   UNL     1     -39.500  50.425 -52.293  1.00  0.00     0.143 A 
HETATM   32  C   UNL     1     -39.614  49.814 -53.520  1.00  0.00     0.027 A 
HETATM   33  C   UNL     1     -40.069  50.810 -54.416  1.00  0.00     0.045 A 
ENDBRANCH  26  29
ENDBRANCH   4  25
TORSDOF 7
ENDMDL
MODEL 10
REMARK VINA RESULT:      -7.7     14.866     16.371
REMARK  7 active torsions:
REMARK  status: ('A' for Active; 'I' for Inactive)
REMARK    1  A    between atoms: C_4  and  N_5 
REMARK       I    between atoms: N_5  and  C_6 
REMARK    2  A    between atoms: C_6  and  C_7 
REMARK    3  A    between atoms: C_7  and  N_8 
REMARK    4  A    between atoms: N_8  and  C_9 
REMARK    5  A    between atoms: C_10  and  C_11 
REMARK    6  A    between atoms: C_16  and  N_17 
REMARK       I    between atoms: N_17  and  C_18 
REMARK    7  A    between atoms: C_18  and  C_19 
ROOT
HETATM    1  C   UNL     1     -37.277  41.674 -55.357  1.00  0.00     0.024 A 
HETATM    2  C   UNL     1     -36.249  41.484 -56.308  1.00  0.00     0.071 A 
HETATM    3  C   UNL     1     -36.530  40.883 -57.559  1.00  0.00     0.047 A 
HETATM    4  C   UNL     1     -37.813  40.452 -57.884  1.00  0.00     0.035 A 
HETATM    5  C   UNL     1     -38.820  40.612 -56.938  1.00  0.00     0.031 A 
HETATM    6  C   UNL     1     -38.551  41.193 -55.692  1.00  0.00     0.026 A 
ENDROOT
BRANCH   1   7
HETATM    7  N   UNL     1     -36.977  42.153 -54.079  1.00  0.00    -0.284 NA
HETATM    8  H   UNL     1     -37.131  43.164 -53.993  1.00  0.00     0.128 HD
BRANCH   7   9
HETATM    9  C   UNL     1     -37.455  41.485 -52.845  1.00  0.00     0.195 C 
BRANCH   9  10
HETATM   10  C   UNL     1     -36.392  40.501 -52.325  1.00  0.00     0.235 C 
HETATM   11  N   UNL     1     -35.343  41.162 -51.712  1.00  0.00    -0.326 N 
HETATM   12  H   UNL     1     -35.478  42.171 -51.659  1.00  0.00     0.169 HD
HETATM   13  O   UNL     1     -36.499  39.292 -52.511  1.00  0.00    -0.272 OA
BRANCH  11  14
HETATM   14  C   UNL     1     -34.164  40.634 -51.164  1.00  0.00     0.035 A 
HETATM   15  C   UNL     1     -34.119  39.893 -49.982  1.00  0.00     0.036 A 
HETATM   16  C   UNL     1     -32.901  39.379 -49.504  1.00  0.00    -0.060 A 
HETATM   17  C   UNL     1     -32.859  38.609 -48.217  1.00  0.00     0.048 C 
HETATM   18  C   UNL     1     -31.722  39.642 -50.208  1.00  0.00     0.007 A 
HETATM   19  C   UNL     1     -31.759  40.382 -51.388  1.00  0.00     0.003 A 
HETATM   20  C   UNL     1     -32.975  40.873 -51.865  1.00  0.00     0.029 A 
ENDBRANCH  11  14
ENDBRANCH   9  10
ENDBRANCH   7   9
ENDBRANCH   1   7
BRANCH   2  21
HETATM   21  C   UNL     1     -34.813  41.859 -56.028  1.00  0.00     0.419 C 
HETATM   22  F   UNL     1     -33.989  41.677 -57.104  1.00  0.00    -0.166 F 
HETATM   23  F   UNL     1     -34.674  43.168 -55.678  1.00  0.00    -0.166 F 
HETATM   24  F   UNL     1     -34.248  41.138 -55.019  1.00  0.00    -0.166 F 
ENDBRANCH   2  21
BRANCH   4  25
HETATM   25  N   UNL     1     -38.163  39.850 -59.104  1.00  0.00    -0.321 N 
HETATM   26  C   UNL     1     -38.458  38.521 -59.357  1.00  0.00     0.279 C 
HETATM   27  O   UNL     1     -38.481  37.627 -58.518  1.00  0.00    -0.265 OA
HETATM   28  H   UNL     1     -38.215  40.451 -59.920  1.00  0.00     0.169 HD
BRANCH  26  29
HETATM   29  C   UNL     1     -38.752  38.274 -60.758  1.00  0.00     0.142 A 
HETATM   30  O   UNL     1     -40.033  37.951 -61.132  1.00  0.00    -0.317 OA
HETATM   31  C   UNL     1     -40.026  37.784 -62.480  1.00  0.00     0.143 A 
HETATM   32  C   UNL     1     -38.764  37.991 -62.986  1.00  0.00     0.027 A 
HETATM   33  C   UNL     1     -37.942  38.305 -61.878  1.00  0.00     0.045 A 
ENDBRANCH  26  29
ENDBRANCH   4  25
TORSDOF 7
ENDMDL
