MODEL 1
REMARK VINA RESULT:      -8.1      0.000      0.000
REMARK  3 active torsions:
REMARK  status: ('A' for Active; 'I' for Inactive)
REMARK    1  A    between atoms: C_2  and  O_3 
REMARK    2  A    between atoms: O_3  and  C_4 
REMARK    3  A    between atoms: C_7  and  N_8 
REMARK       I    between atoms: N_8  and  C_9 
REMARK       I    between atoms: C_9  and  N_10 
ROOT
HETATM    1  N   UNL     1     -42.471  55.339 -56.911  1.00  0.00    -0.309 N 
HETATM    2  C   UNL     1     -42.686  56.636 -57.320  1.00  0.00     0.323 C 
HETATM    3  N   UNL     1     -43.126  56.785 -58.630  1.00  0.00    -0.328 N 
HETATM    4  C   UNL     1     -43.554  58.134 -59.039  1.00  0.00     0.185 C 
HETATM    5  C   UNL     1     -44.846  57.998 -59.773  1.00  0.00     0.035 A 
HETATM    6  C   UNL     1     -45.411  56.831 -60.252  1.00  0.00    -0.020 A 
HETATM    7  C   UNL     1     -44.744  55.513 -60.049  1.00  0.00     0.061 C 
HETATM    8  C   UNL     1     -43.264  55.743 -59.674  1.00  0.00     0.132 C 
HETATM    9  N   UNL     1     -45.684  59.032 -60.082  1.00  0.00    -0.357 N 
HETATM   10  H   UNL     1     -45.535  60.004 -59.843  1.00  0.00     0.166 HD
HETATM   11  C   UNL     1     -46.788  58.555 -60.757  1.00  0.00     0.043 A 
HETATM   12  C   UNL     1     -46.642  57.170 -60.875  1.00  0.00    -0.001 A 
HETATM   13  C   UNL     1     -47.899  59.241 -61.261  1.00  0.00     0.030 A 
HETATM   14  C   UNL     1     -48.890  58.490 -61.901  1.00  0.00     0.002 A 
HETATM   15  C   UNL     1     -48.772  57.108 -62.031  1.00  0.00     0.001 A 
HETATM   16  C   UNL     1     -47.655  56.436 -61.522  1.00  0.00     0.014 A 
HETATM   17  O   UNL     1     -42.522  57.619 -56.599  1.00  0.00    -0.247 OA
HETATM   18  H   UNL     1     -42.632  54.613 -57.582  1.00  0.00     0.170 HD
ENDROOT
BRANCH   1  19
HETATM   19  C   UNL     1     -42.110  54.883 -55.623  1.00  0.00     0.036 A 
HETATM   20  C   UNL     1     -40.798  54.645 -55.210  1.00  0.00     0.032 A 
HETATM   21  C   UNL     1     -40.529  54.240 -53.899  1.00  0.00     0.039 A 
HETATM   22  C   UNL     1     -41.570  54.086 -52.989  1.00  0.00     0.070 A 
HETATM   23  C   UNL     1     -42.886  54.266 -53.397  1.00  0.00     0.039 A 
HETATM   24  C   UNL     1     -43.153  54.678 -54.707  1.00  0.00     0.032 A 
BRANCH  22  25
HETATM   25  O   UNL     1     -41.261  53.676 -51.728  1.00  0.00    -0.341 OA
BRANCH  25  26
HETATM   26  C   UNL     1     -41.222  54.679 -50.689  1.00  0.00     0.057 C 
HETATM   27  C   UNL     1     -42.483  54.519 -49.830  1.00  0.00     0.045 C 
HETATM   28  C   UNL     1     -41.072  56.143 -51.144  1.00  0.00     0.045 C 
HETATM   29  C   UNL     1     -39.996  54.318 -49.835  1.00  0.00     0.045 C 
ENDBRANCH  25  26
ENDBRANCH  22  25
ENDBRANCH   1  19
TORSDOF 3
ENDMDL
MODEL 2
REMARK VINA RESULT:      -7.7      3.883      9.499
REMARK  3 active torsions:
REMARK  status: ('A' for Active; 'I' for Inactive)
REMARK    1  A    between atoms: C_2  and  O_3 
REMARK    2  A    between atoms: O_3  and  C_4 
REMARK    3  A    between atoms: C_7  and  N_8 
REMARK       I    between atoms: N_8  and  C_9 
REMARK       I    between atoms: C_9  and  N_10 
ROOT
HETATM    1  N   UNL     1     -43.141  57.516 -56.400  1.00  0.00    -0.309 N 
HETATM    2  C   UNL     1     -42.647  57.424 -55.119  1.00  0.00     0.323 C 
HETATM    3  N   UNL     1     -42.860  56.208 -54.481  1.00  0.00    -0.328 N 
HETATM    4  C   UNL     1     -42.179  56.004 -53.191  1.00  0.00     0.185 C 
HETATM    5  C   UNL     1     -41.563  54.644 -53.211  1.00  0.00     0.035 A 
HETATM    6  C   UNL     1     -41.810  53.634 -54.121  1.00  0.00    -0.020 A 
HETATM    7  C   UNL     1     -42.765  53.831 -55.249  1.00  0.00     0.061 C 
HETATM    8  C   UNL     1     -43.660  55.054 -54.952  1.00  0.00     0.132 C 
HETATM    9  N   UNL     1     -40.637  54.191 -52.315  1.00  0.00    -0.357 N 
HETATM   10  H   UNL     1     -40.255  54.720 -51.543  1.00  0.00     0.166 HD
HETATM   11  C   UNL     1     -40.279  52.896 -52.627  1.00  0.00     0.043 A 
HETATM   12  C   UNL     1     -41.001  52.522 -53.764  1.00  0.00    -0.001 A 
HETATM   13  C   UNL     1     -39.370  52.038 -51.997  1.00  0.00     0.030 A 
HETATM   14  C   UNL     1     -39.192  50.764 -52.545  1.00  0.00     0.002 A 
HETATM   15  C   UNL     1     -39.897  50.366 -53.679  1.00  0.00     0.001 A 
HETATM   16  C   UNL     1     -40.804  51.234 -54.298  1.00  0.00     0.014 A 
HETATM   17  O   UNL     1     -42.044  58.332 -54.550  1.00  0.00    -0.247 OA
HETATM   18  H   UNL     1     -43.621  56.716 -56.766  1.00  0.00     0.170 HD
ENDROOT
BRANCH   1  19
HETATM   19  C   UNL     1     -42.999  58.586 -57.312  1.00  0.00     0.036 A 
HETATM   20  C   UNL     1     -43.622  59.827 -57.173  1.00  0.00     0.032 A 
HETATM   21  C   UNL     1     -43.385  60.848 -58.100  1.00  0.00     0.039 A 
HETATM   22  C   UNL     1     -42.512  60.637 -59.162  1.00  0.00     0.070 A 
HETATM   23  C   UNL     1     -41.926  59.391 -59.346  1.00  0.00     0.039 A 
HETATM   24  C   UNL     1     -42.157  58.374 -58.414  1.00  0.00     0.032 A 
BRANCH  22  25
HETATM   25  O   UNL     1     -42.325  61.655 -60.046  1.00  0.00    -0.341 OA
BRANCH  25  26
HETATM   26  C   UNL     1     -41.237  62.571 -59.792  1.00  0.00     0.057 C 
HETATM   27  C   UNL     1     -40.395  62.672 -61.069  1.00  0.00     0.045 C 
HETATM   28  C   UNL     1     -40.335  62.256 -58.583  1.00  0.00     0.045 C 
HETATM   29  C   UNL     1     -41.914  63.929 -59.539  1.00  0.00     0.045 C 
ENDBRANCH  25  26
ENDBRANCH  22  25
ENDBRANCH   1  19
TORSDOF 3
ENDMDL
MODEL 3
REMARK VINA RESULT:      -7.5      3.155      4.824
REMARK  3 active torsions:
REMARK  status: ('A' for Active; 'I' for Inactive)
REMARK    1  A    between atoms: C_2  and  O_3 
REMARK    2  A    between atoms: O_3  and  C_4 
REMARK    3  A    between atoms: C_7  and  N_8 
REMARK       I    between atoms: N_8  and  C_9 
REMARK       I    between atoms: C_9  and  N_10 
ROOT
HETATM    1  N   UNL     1     -42.103  56.143 -55.230  1.00  0.00    -0.309 N 
HETATM    2  C   UNL     1     -42.755  56.145 -56.441  1.00  0.00     0.323 C 
HETATM    3  N   UNL     1     -43.156  57.393 -56.904  1.00  0.00    -0.328 N 
HETATM    4  C   UNL     1     -43.678  57.458 -58.279  1.00  0.00     0.185 C 
HETATM    5  C   UNL     1     -43.036  58.624 -58.955  1.00  0.00     0.035 A 
HETATM    6  C   UNL     1     -42.317  59.640 -58.353  1.00  0.00    -0.020 A 
HETATM    7  C   UNL     1     -42.088  59.653 -56.880  1.00  0.00     0.061 C 
HETATM    8  C   UNL     1     -43.090  58.695 -56.200  1.00  0.00     0.132 C 
HETATM    9  N   UNL     1     -43.060  58.861 -60.300  1.00  0.00    -0.357 N 
HETATM   10  H   UNL     1     -43.504  58.275 -60.994  1.00  0.00     0.166 HD
HETATM   11  C   UNL     1     -42.368  60.020 -60.584  1.00  0.00     0.043 A 
HETATM   12  C   UNL     1     -41.886  60.529 -59.374  1.00  0.00    -0.001 A 
HETATM   13  C   UNL     1     -42.128  60.645 -61.813  1.00  0.00     0.030 A 
HETATM   14  C   UNL     1     -41.373  61.822 -61.806  1.00  0.00     0.002 A 
HETATM   15  C   UNL     1     -40.878  62.351 -60.615  1.00  0.00     0.001 A 
HETATM   16  C   UNL     1     -41.127  61.715 -59.394  1.00  0.00     0.014 A 
HETATM   17  O   UNL     1     -42.974  55.132 -57.104  1.00  0.00    -0.247 OA
HETATM   18  H   UNL     1     -41.981  57.025 -54.772  1.00  0.00     0.170 HD
ENDROOT
BRANCH   1  19
HETATM   19  C   UNL     1     -41.512  55.047 -54.563  1.00  0.00     0.036 A 
HETATM   20  C   UNL     1     -41.939  54.550 -53.330  1.00  0.00     0.032 A 
HETATM   21  C   UNL     1     -41.325  53.427 -52.765  1.00  0.00     0.039 A 
HETATM   22  C   UNL     1     -40.289  52.786 -53.438  1.00  0.00     0.070 A 
HETATM   23  C   UNL     1     -39.815  53.299 -54.639  1.00  0.00     0.039 A 
HETATM   24  C   UNL     1     -40.436  54.416 -55.206  1.00  0.00     0.032 A 
BRANCH  22  25
HETATM   25  O   UNL     1     -39.713  51.707 -52.842  1.00  0.00    -0.341 OA
BRANCH  25  26
HETATM   26  C   UNL     1     -39.862  50.424 -53.491  1.00  0.00     0.057 C 
HETATM   27  C   UNL     1     -38.660  50.223 -54.421  1.00  0.00     0.045 C 
HETATM   28  C   UNL     1     -41.176  50.187 -54.261  1.00  0.00     0.045 C 
HETATM   29  C   UNL     1     -39.784  49.393 -52.354  1.00  0.00     0.045 C 
ENDBRANCH  25  26
ENDBRANCH  22  25
ENDBRANCH   1  19
TORSDOF 3
ENDMDL
MODEL 4
REMARK VINA RESULT:      -7.5      2.856      9.781
REMARK  3 active torsions:
REMARK  status: ('A' for Active; 'I' for Inactive)
REMARK    1  A    between atoms: C_2  and  O_3 
REMARK    2  A    between atoms: O_3  and  C_4 
REMARK    3  A    between atoms: C_7  and  N_8 
REMARK       I    between atoms: N_8  and  C_9 
REMARK       I    between atoms: C_9  and  N_10 
ROOT
HETATM    1  N   UNL     1     -43.619  56.542 -56.624  1.00  0.00    -0.309 N 
HETATM    2  C   UNL     1     -43.894  57.066 -55.382  1.00  0.00     0.323 C 
HETATM    3  N   UNL     1     -43.975  56.142 -54.346  1.00  0.00    -0.328 N 
HETATM    4  C   UNL     1     -44.072  56.680 -52.979  1.00  0.00     0.185 C 
HETATM    5  C   UNL     1     -43.113  55.921 -52.122  1.00  0.00     0.035 A 
HETATM    6  C   UNL     1     -42.463  54.745 -52.444  1.00  0.00    -0.020 A 
HETATM    7  C   UNL     1     -42.661  54.095 -53.771  1.00  0.00     0.061 C 
HETATM    8  C   UNL     1     -43.935  54.663 -54.433  1.00  0.00     0.132 C 
HETATM    9  N   UNL     1     -42.723  56.291 -50.866  1.00  0.00    -0.357 N 
HETATM   10  H   UNL     1     -43.028  57.121 -50.374  1.00  0.00     0.166 HD
HETATM   11  C   UNL     1     -41.829  55.370 -50.363  1.00  0.00     0.043 A 
HETATM   12  C   UNL     1     -41.644  54.387 -51.340  1.00  0.00    -0.001 A 
HETATM   13  C   UNL     1     -41.168  55.339 -49.130  1.00  0.00     0.030 A 
HETATM   14  C   UNL     1     -40.293  54.276 -48.888  1.00  0.00     0.002 A 
HETATM   15  C   UNL     1     -40.088  53.282 -49.845  1.00  0.00     0.001 A 
HETATM   16  C   UNL     1     -40.757  53.326 -51.074  1.00  0.00     0.014 A 
HETATM   17  O   UNL     1     -44.052  58.266 -55.163  1.00  0.00    -0.247 OA
HETATM   18  H   UNL     1     -43.513  55.548 -56.691  1.00  0.00     0.170 HD
ENDROOT
BRANCH   1  19
HETATM   19  C   UNL     1     -43.395  57.240 -57.832  1.00  0.00     0.036 A 
HETATM   20  C   UNL     1     -44.318  57.327 -58.875  1.00  0.00     0.032 A 
HETATM   21  C   UNL     1     -44.030  58.082 -60.017  1.00  0.00     0.039 A 
HETATM   22  C   UNL     1     -42.824  58.768 -60.114  1.00  0.00     0.070 A 
HETATM   23  C   UNL     1     -41.871  58.650 -59.109  1.00  0.00     0.039 A 
HETATM   24  C   UNL     1     -42.164  57.900 -57.965  1.00  0.00     0.032 A 
BRANCH  22  25
HETATM   25  O   UNL     1     -42.583  59.478 -61.250  1.00  0.00    -0.341 OA
BRANCH  25  26
HETATM   26  C   UNL     1     -42.870  60.894 -61.228  1.00  0.00     0.057 C 
HETATM   27  C   UNL     1     -41.542  61.648 -61.367  1.00  0.00     0.045 C 
HETATM   28  C   UNL     1     -43.656  61.423 -60.013  1.00  0.00     0.045 C 
HETATM   29  C   UNL     1     -43.714  61.146 -62.487  1.00  0.00     0.045 C 
ENDBRANCH  25  26
ENDBRANCH  22  25
ENDBRANCH   1  19
TORSDOF 3
ENDMDL
MODEL 5
REMARK VINA RESULT:      -7.4     16.699     20.376
REMARK  3 active torsions:
REMARK  status: ('A' for Active; 'I' for Inactive)
REMARK    1  A    between atoms: C_2  and  O_3 
REMARK    2  A    between atoms: O_3  and  C_4 
REMARK    3  A    between atoms: C_7  and  N_8 
REMARK       I    between atoms: N_8  and  C_9 
REMARK       I    between atoms: C_9  and  N_10 
ROOT
HETATM    1  N   UNL     1     -36.716  41.175 -55.857  1.00  0.00    -0.309 N 
HETATM    2  C   UNL     1     -35.516  40.971 -55.217  1.00  0.00     0.323 C 
HETATM    3  N   UNL     1     -35.490  41.311 -53.869  1.00  0.00    -0.328 N 
HETATM    4  C   UNL     1     -34.291  40.925 -53.107  1.00  0.00     0.185 C 
HETATM    5  C   UNL     1     -34.745  40.314 -51.823  1.00  0.00     0.035 A 
HETATM    6  C   UNL     1     -36.019  40.355 -51.289  1.00  0.00    -0.020 A 
HETATM    7  C   UNL     1     -37.132  41.043 -52.003  1.00  0.00     0.061 C 
HETATM    8  C   UNL     1     -36.544  41.986 -53.075  1.00  0.00     0.132 C 
HETATM    9  N   UNL     1     -33.950  39.603 -50.970  1.00  0.00    -0.357 N 
HETATM   10  H   UNL     1     -32.969  39.399 -51.109  1.00  0.00     0.166 HD
HETATM   11  C   UNL     1     -34.688  39.180 -49.884  1.00  0.00     0.043 A 
HETATM   12  C   UNL     1     -35.997  39.638 -50.062  1.00  0.00    -0.001 A 
HETATM   13  C   UNL     1     -34.300  38.426 -48.772  1.00  0.00     0.030 A 
HETATM   14  C   UNL     1     -35.276  38.129 -47.815  1.00  0.00     0.002 A 
HETATM   15  C   UNL     1     -36.589  38.570 -47.968  1.00  0.00     0.001 A 
HETATM   16  C   UNL     1     -36.963  39.325 -49.086  1.00  0.00     0.014 A 
HETATM   17  O   UNL     1     -34.516  40.508 -55.764  1.00  0.00    -0.247 OA
HETATM   18  H   UNL     1     -37.466  41.561 -55.317  1.00  0.00     0.170 HD
ENDROOT
BRANCH   1  19
HETATM   19  C   UNL     1     -37.059  40.843 -57.188  1.00  0.00     0.036 A 
HETATM   20  C   UNL     1     -36.804  41.656 -58.293  1.00  0.00     0.032 A 
HETATM   21  C   UNL     1     -37.134  41.225 -59.582  1.00  0.00     0.039 A 
HETATM   22  C   UNL     1     -37.708  39.972 -59.774  1.00  0.00     0.070 A 
HETATM   23  C   UNL     1     -38.018  39.173 -58.680  1.00  0.00     0.039 A 
HETATM   24  C   UNL     1     -37.680  39.602 -57.393  1.00  0.00     0.032 A 
BRANCH  22  25
HETATM   25  O   UNL     1     -38.025  39.603 -61.044  1.00  0.00    -0.341 OA
BRANCH  25  26
HETATM   26  C   UNL     1     -37.287  38.505 -61.627  1.00  0.00     0.057 C 
HETATM   27  C   UNL     1     -38.054  37.211 -61.333  1.00  0.00     0.045 C 
HETATM   28  C   UNL     1     -35.814  38.359 -61.201  1.00  0.00     0.045 C 
HETATM   29  C   UNL     1     -37.320  38.766 -63.142  1.00  0.00     0.045 C 
ENDBRANCH  25  26
ENDBRANCH  22  25
ENDBRANCH   1  19
TORSDOF 3
ENDMDL
MODEL 6
REMARK VINA RESULT:      -7.2      4.263      6.152
REMARK  3 active torsions:
REMARK  status: ('A' for Active; 'I' for Inactive)
REMARK    1  A    between atoms: C_2  and  O_3 
REMARK    2  A    between atoms: O_3  and  C_4 
REMARK    3  A    between atoms: C_7  and  N_8 
REMARK       I    between atoms: N_8  and  C_9 
REMARK       I    between atoms: C_9  and  N_10 
ROOT
HETATM    1  N   UNL     1     -42.727  58.533 -57.144  1.00  0.00    -0.309 N 
HETATM    2  C   UNL     1     -42.860  58.726 -58.500  1.00  0.00     0.323 C 
HETATM    3  N   UNL     1     -42.784  60.046 -58.927  1.00  0.00    -0.328 N 
HETATM    4  C   UNL     1     -42.724  60.274 -60.381  1.00  0.00     0.185 C 
HETATM    5  C   UNL     1     -41.644  61.271 -60.641  1.00  0.00     0.035 A 
HETATM    6  C   UNL     1     -41.006  62.067 -59.709  1.00  0.00    -0.020 A 
HETATM    7  C   UNL     1     -41.350  61.982 -58.260  1.00  0.00     0.061 C 
HETATM    8  C   UNL     1     -42.713  61.274 -58.100  1.00  0.00     0.132 C 
HETATM    9  N   UNL     1     -41.111  61.546 -61.869  1.00  0.00    -0.357 N 
HETATM   10  H   UNL     1     -41.375  61.103 -62.739  1.00  0.00     0.166 HD
HETATM   11  C   UNL     1     -40.134  62.512 -61.750  1.00  0.00     0.043 A 
HETATM   12  C   UNL     1     -40.046  62.855 -60.397  1.00  0.00    -0.001 A 
HETATM   13  C   UNL     1     -39.324  63.096 -62.729  1.00  0.00     0.030 A 
HETATM   14  C   UNL     1     -38.396  64.057 -62.316  1.00  0.00     0.002 A 
HETATM   15  C   UNL     1     -38.284  64.417 -60.974  1.00  0.00     0.001 A 
HETATM   16  C   UNL     1     -39.102  63.825 -60.006  1.00  0.00     0.014 A 
HETATM   17  O   UNL     1     -43.024  57.814 -59.310  1.00  0.00    -0.247 OA
HETATM   18  H   UNL     1     -42.602  59.347 -56.573  1.00  0.00     0.170 HD
ENDROOT
BRANCH   1  19
HETATM   19  C   UNL     1     -42.676  57.308 -56.441  1.00  0.00     0.036 A 
HETATM   20  C   UNL     1     -42.953  56.062 -57.007  1.00  0.00     0.032 A 
HETATM   21  C   UNL     1     -42.830  54.894 -56.248  1.00  0.00     0.039 A 
HETATM   22  C   UNL     1     -42.413  54.964 -54.922  1.00  0.00     0.070 A 
HETATM   23  C   UNL     1     -42.185  56.199 -54.327  1.00  0.00     0.039 A 
HETATM   24  C   UNL     1     -42.301  57.365 -55.090  1.00  0.00     0.032 A 
BRANCH  22  25
HETATM   25  O   UNL     1     -42.322  53.802 -54.220  1.00  0.00    -0.341 OA
BRANCH  25  26
HETATM   26  C   UNL     1     -41.003  53.249 -54.009  1.00  0.00     0.057 C 
HETATM   27  C   UNL     1     -40.672  53.372 -52.517  1.00  0.00     0.045 C 
HETATM   28  C   UNL     1     -39.861  53.839 -54.858  1.00  0.00     0.045 C 
HETATM   29  C   UNL     1     -41.138  51.759 -54.363  1.00  0.00     0.045 C 
ENDBRANCH  25  26
ENDBRANCH  22  25
ENDBRANCH   1  19
TORSDOF 3
ENDMDL
MODEL 7
REMARK VINA RESULT:      -7.1      6.336      9.507
REMARK  3 active torsions:
REMARK  status: ('A' for Active; 'I' for Inactive)
REMARK    1  A    between atoms: C_2  and  O_3 
REMARK    2  A    between atoms: O_3  and  C_4 
REMARK    3  A    between atoms: C_7  and  N_8 
REMARK       I    between atoms: N_8  and  C_9 
REMARK       I    between atoms: C_9  and  N_10 
ROOT
HETATM    1  N   UNL     1     -43.155  60.458 -50.938  1.00  0.00    -0.309 N 
HETATM    2  C   UNL     1     -43.437  59.969 -52.193  1.00  0.00     0.323 C 
HETATM    3  N   UNL     1     -42.444  59.184 -52.767  1.00  0.00    -0.328 N 
HETATM    4  C   UNL     1     -42.786  58.484 -54.017  1.00  0.00     0.185 C 
HETATM    5  C   UNL     1     -42.308  57.075 -53.895  1.00  0.00     0.035 A 
HETATM    6  C   UNL     1     -41.449  56.569 -52.938  1.00  0.00    -0.020 A 
HETATM    7  C   UNL     1     -40.900  57.440 -51.859  1.00  0.00     0.061 C 
HETATM    8  C   UNL     1     -41.077  58.921 -52.259  1.00  0.00     0.132 C 
HETATM    9  N   UNL     1     -42.664  56.053 -54.728  1.00  0.00    -0.357 N 
HETATM   10  H   UNL     1     -43.295  56.125 -55.515  1.00  0.00     0.166 HD
HETATM   11  C   UNL     1     -42.046  54.886 -54.329  1.00  0.00     0.043 A 
HETATM   12  C   UNL     1     -41.277  55.184 -53.200  1.00  0.00    -0.001 A 
HETATM   13  C   UNL     1     -42.117  53.599 -54.873  1.00  0.00     0.030 A 
HETATM   14  C   UNL     1     -41.384  52.587 -54.246  1.00  0.00     0.002 A 
HETATM   15  C   UNL     1     -40.610  52.854 -53.118  1.00  0.00     0.001 A 
HETATM   16  C   UNL     1     -40.548  54.147 -52.585  1.00  0.00     0.014 A 
HETATM   17  O   UNL     1     -44.491  60.180 -52.791  1.00  0.00    -0.247 OA
HETATM   18  H   UNL     1     -42.263  60.228 -50.545  1.00  0.00     0.170 HD
ENDROOT
BRANCH   1  19
HETATM   19  C   UNL     1     -44.001  61.203 -50.085  1.00  0.00     0.036 A 
HETATM   20  C   UNL     1     -45.142  60.692 -49.465  1.00  0.00     0.032 A 
HETATM   21  C   UNL     1     -45.895  61.488 -48.596  1.00  0.00     0.039 A 
HETATM   22  C   UNL     1     -45.501  62.796 -48.330  1.00  0.00     0.070 A 
HETATM   23  C   UNL     1     -44.399  63.338 -48.980  1.00  0.00     0.039 A 
HETATM   24  C   UNL     1     -43.643  62.538 -49.843  1.00  0.00     0.032 A 
BRANCH  22  25
HETATM   25  O   UNL     1     -46.273  63.537 -47.490  1.00  0.00    -0.341 OA
BRANCH  25  26
HETATM   26  C   UNL     1     -45.936  63.523 -46.084  1.00  0.00     0.057 C 
HETATM   27  C   UNL     1     -45.116  64.782 -45.782  1.00  0.00     0.045 C 
HETATM   28  C   UNL     1     -45.204  62.273 -45.560  1.00  0.00     0.045 C 
HETATM   29  C   UNL     1     -47.285  63.625 -45.353  1.00  0.00     0.045 C 
ENDBRANCH  25  26
ENDBRANCH  22  25
ENDBRANCH   1  19
TORSDOF 3
ENDMDL
MODEL 8
REMARK VINA RESULT:      -6.9      2.286      9.966
REMARK  3 active torsions:
REMARK  status: ('A' for Active; 'I' for Inactive)
REMARK    1  A    between atoms: C_2  and  O_3 
REMARK    2  A    between atoms: O_3  and  C_4 
REMARK    3  A    between atoms: C_7  and  N_8 
REMARK       I    between atoms: N_8  and  C_9 
REMARK       I    between atoms: C_9  and  N_10 
ROOT
HETATM    1  N   UNL     1     -43.137  57.390 -56.184  1.00  0.00    -0.309 N 
HETATM    2  C   UNL     1     -42.407  56.232 -56.049  1.00  0.00     0.323 C 
HETATM    3  N   UNL     1     -41.467  56.232 -55.024  1.00  0.00    -0.328 N 
HETATM    4  C   UNL     1     -40.808  54.950 -54.723  1.00  0.00     0.185 C 
HETATM    5  C   UNL     1     -40.816  54.771 -53.241  1.00  0.00     0.035 A 
HETATM    6  C   UNL     1     -41.108  55.730 -52.290  1.00  0.00    -0.020 A 
HETATM    7  C   UNL     1     -41.483  57.118 -52.687  1.00  0.00     0.061 C 
HETATM    8  C   UNL     1     -41.063  57.361 -54.153  1.00  0.00     0.132 C 
HETATM    9  N   UNL     1     -40.536  53.602 -52.592  1.00  0.00    -0.357 N 
HETATM   10  H   UNL     1     -40.301  52.723 -53.035  1.00  0.00     0.166 HD
HETATM   11  C   UNL     1     -40.639  53.787 -51.229  1.00  0.00     0.043 A 
HETATM   12  C   UNL     1     -41.002  55.119 -51.012  1.00  0.00    -0.001 A 
HETATM   13  C   UNL     1     -40.448  52.878 -50.182  1.00  0.00     0.030 A 
HETATM   14  C   UNL     1     -40.634  53.343 -48.877  1.00  0.00     0.002 A 
HETATM   15  C   UNL     1     -40.998  54.666 -48.631  1.00  0.00     0.001 A 
HETATM   16  C   UNL     1     -41.185  55.564 -49.689  1.00  0.00     0.014 A 
HETATM   17  O   UNL     1     -42.556  55.239 -56.760  1.00  0.00    -0.247 OA
HETATM   18  H   UNL     1     -42.931  58.140 -55.553  1.00  0.00     0.170 HD
ENDROOT
BRANCH   1  19
HETATM   19  C   UNL     1     -44.209  57.643 -57.070  1.00  0.00     0.036 A 
HETATM   20  C   UNL     1     -44.224  57.270 -58.415  1.00  0.00     0.032 A 
HETATM   21  C   UNL     1     -45.350  57.518 -59.207  1.00  0.00     0.039 A 
HETATM   22  C   UNL     1     -46.472  58.127 -58.655  1.00  0.00     0.070 A 
HETATM   23  C   UNL     1     -46.454  58.553 -57.332  1.00  0.00     0.039 A 
HETATM   24  C   UNL     1     -45.331  58.297 -56.539  1.00  0.00     0.032 A 
BRANCH  22  25
HETATM   25  O   UNL     1     -47.537  58.361 -59.469  1.00  0.00    -0.341 OA
BRANCH  25  26
HETATM   26  C   UNL     1     -47.531  59.579 -60.247  1.00  0.00     0.057 C 
HETATM   27  C   UNL     1     -47.830  59.210 -61.705  1.00  0.00     0.045 C 
HETATM   28  C   UNL     1     -46.259  60.444 -60.168  1.00  0.00     0.045 C 
HETATM   29  C   UNL     1     -48.704  60.406 -59.697  1.00  0.00     0.045 C 
ENDBRANCH  25  26
ENDBRANCH  22  25
ENDBRANCH   1  19
TORSDOF 3
ENDMDL
MODEL 9
REMARK VINA RESULT:      -6.8      5.832      9.816
REMARK  3 active torsions:
REMARK  status: ('A' for Active; 'I' for Inactive)
REMARK    1  A    between atoms: C_2  and  O_3 
REMARK    2  A    between atoms: O_3  and  C_4 
REMARK    3  A    between atoms: C_7  and  N_8 
REMARK       I    between atoms: N_8  and  C_9 
REMARK       I    between atoms: C_9  and  N_10 
ROOT
HETATM    1  N   UNL     1     -43.009  57.877 -52.045  1.00  0.00    -0.309 N 
HETATM    2  C   UNL     1     -42.421  57.216 -53.100  1.00  0.00     0.323 C 
HETATM    3  N   UNL     1     -41.311  56.443 -52.779  1.00  0.00    -0.328 N 
HETATM    4  C   UNL     1     -40.778  55.570 -53.838  1.00  0.00     0.185 C 
HETATM    5  C   UNL     1     -40.526  54.227 -53.237  1.00  0.00     0.035 A 
HETATM    6  C   UNL     1     -40.505  53.910 -51.892  1.00  0.00    -0.020 A 
HETATM    7  C   UNL     1     -40.766  54.946 -50.852  1.00  0.00     0.061 C 
HETATM    8  C   UNL     1     -40.607  56.348 -51.478  1.00  0.00     0.132 C 
HETATM    9  N   UNL     1     -40.279  53.086 -53.946  1.00  0.00    -0.357 N 
HETATM   10  H   UNL     1     -40.248  53.013 -54.955  1.00  0.00     0.166 HD
HETATM   11  C   UNL     1     -40.096  52.028 -53.082  1.00  0.00     0.043 A 
HETATM   12  C   UNL     1     -40.236  52.519 -51.780  1.00  0.00    -0.001 A 
HETATM   13  C   UNL     1     -39.826  50.681 -53.353  1.00  0.00     0.030 A 
HETATM   14  C   UNL     1     -39.699  49.812 -52.265  1.00  0.00     0.002 A 
HETATM   15  C   UNL     1     -39.836  50.274 -50.957  1.00  0.00     0.001 A 
HETATM   16  C   UNL     1     -40.104  51.624 -50.701  1.00  0.00     0.014 A 
HETATM   17  O   UNL     1     -42.830  57.272 -54.258  1.00  0.00    -0.247 OA
HETATM   18  H   UNL     1     -42.591  57.764 -51.142  1.00  0.00     0.170 HD
ENDROOT
BRANCH   1  19
HETATM   19  C   UNL     1     -44.188  58.655 -52.056  1.00  0.00     0.036 A 
HETATM   20  C   UNL     1     -45.144  58.652 -51.039  1.00  0.00     0.032 A 
HETATM   21  C   UNL     1     -46.259  59.494 -51.110  1.00  0.00     0.039 A 
HETATM   22  C   UNL     1     -46.417  60.354 -52.192  1.00  0.00     0.070 A 
HETATM   23  C   UNL     1     -45.503  60.331 -53.239  1.00  0.00     0.039 A 
HETATM   24  C   UNL     1     -44.385  59.495 -53.163  1.00  0.00     0.032 A 
BRANCH  22  25
HETATM   25  O   UNL     1     -47.525  61.143 -52.225  1.00  0.00    -0.341 OA
BRANCH  25  26
HETATM   26  C   UNL     1     -47.361  62.542 -51.901  1.00  0.00     0.057 C 
HETATM   27  C   UNL     1     -46.569  63.200 -53.037  1.00  0.00     0.045 C 
HETATM   28  C   UNL     1     -46.711  62.866 -50.542  1.00  0.00     0.045 C 
HETATM   29  C   UNL     1     -48.787  63.116 -51.895  1.00  0.00     0.045 C 
ENDBRANCH  25  26
ENDBRANCH  22  25
ENDBRANCH   1  19
TORSDOF 3
ENDMDL
MODEL 10
REMARK VINA RESULT:      -6.6      1.573      2.158
REMARK  3 active torsions:
REMARK  status: ('A' for Active; 'I' for Inactive)
REMARK    1  A    between atoms: C_2  and  O_3 
REMARK    2  A    between atoms: O_3  and  C_4 
REMARK    3  A    between atoms: C_7  and  N_8 
REMARK       I    between atoms: N_8  and  C_9 
REMARK       I    between atoms: C_9  and  N_10 
ROOT
HETATM    1  N   UNL     1     -43.674  56.171 -57.231  1.00  0.00    -0.309 N 
HETATM    2  C   UNL     1     -43.248  56.981 -58.258  1.00  0.00     0.323 C 
HETATM    3  N   UNL     1     -44.114  57.081 -59.341  1.00  0.00    -0.328 N 
HETATM    4  C   UNL     1     -43.787  58.086 -60.366  1.00  0.00     0.185 C 
HETATM    5  C   UNL     1     -45.040  58.830 -60.691  1.00  0.00     0.035 A 
HETATM    6  C   UNL     1     -46.329  58.478 -60.339  1.00  0.00    -0.020 A 
HETATM    7  C   UNL     1     -46.601  57.252 -59.535  1.00  0.00     0.061 C 
HETATM    8  C   UNL     1     -45.366  56.326 -59.585  1.00  0.00     0.132 C 
HETATM    9  N   UNL     1     -45.096  59.999 -61.395  1.00  0.00    -0.357 N 
HETATM   10  H   UNL     1     -44.302  60.501 -61.769  1.00  0.00     0.166 HD
HETATM   11  C   UNL     1     -46.406  60.414 -61.509  1.00  0.00     0.043 A 
HETATM   12  C   UNL     1     -47.204  59.475 -60.849  1.00  0.00    -0.001 A 
HETATM   13  C   UNL     1     -46.939  61.547 -62.135  1.00  0.00     0.030 A 
HETATM   14  C   UNL     1     -48.325  61.726 -62.084  1.00  0.00     0.002 A 
HETATM   15  C   UNL     1     -49.144  60.807 -61.431  1.00  0.00     0.001 A 
HETATM   16  C   UNL     1     -48.597  59.678 -60.810  1.00  0.00     0.014 A 
HETATM   17  O   UNL     1     -42.185  57.600 -58.248  1.00  0.00    -0.247 OA
HETATM   18  H   UNL     1     -44.556  55.710 -57.344  1.00  0.00     0.170 HD
ENDROOT
BRANCH   1  19
HETATM   19  C   UNL     1     -43.051  55.952 -55.981  1.00  0.00     0.036 A 
HETATM   20  C   UNL     1     -41.991  55.068 -55.774  1.00  0.00     0.032 A 
HETATM   21  C   UNL     1     -41.402  54.949 -54.511  1.00  0.00     0.039 A 
HETATM   22  C   UNL     1     -41.860  55.727 -53.452  1.00  0.00     0.070 A 
HETATM   23  C   UNL     1     -42.948  56.572 -53.627  1.00  0.00     0.039 A 
HETATM   24  C   UNL     1     -43.531  56.695 -54.892  1.00  0.00     0.032 A 
BRANCH  22  25
HETATM   25  O   UNL     1     -41.265  55.566 -52.238  1.00  0.00    -0.341 OA
BRANCH  25  26
HETATM   26  C   UNL     1     -41.779  54.530 -51.372  1.00  0.00     0.057 C 
HETATM   27  C   UNL     1     -40.814  53.340 -51.433  1.00  0.00     0.045 C 
HETATM   28  C   UNL     1     -43.222  54.059 -51.637  1.00  0.00     0.045 C 
HETATM   29  C   UNL     1     -41.728  55.135 -49.959  1.00  0.00     0.045 C 
ENDBRANCH  25  26
ENDBRANCH  22  25
ENDBRANCH   1  19
TORSDOF 3
ENDMDL
