MODEL 1
REMARK VINA RESULT:      -8.6      0.000      0.000
REMARK  6 active torsions:
REMARK  status: ('A' for Active; 'I' for Inactive)
REMARK    1  A    between atoms: O_2  and  C_3 
REMARK    2  A    between atoms: C_6  and  C_7 
REMARK    3  A    between atoms: C_11  and  C_12 
REMARK       I    between atoms: C_12  and  N_13 
REMARK    4  A    between atoms: N_13  and  N_14 
REMARK       I    between atoms: N_14  and  C_15 
REMARK    5  A    between atoms: C_15  and  C_16 
REMARK    6  A    between atoms: C_16  and  C_17 
ROOT
HETATM    1  C   UNL     1     -42.387  58.655 -51.158  1.00  0.00     0.288 C 
HETATM    2  N   UNL     1     -43.683  58.783 -50.701  1.00  0.00    -0.262 N 
HETATM    3  O   UNL     1     -41.746  59.617 -51.577  1.00  0.00    -0.264 OA
HETATM    4  H   UNL     1     -44.155  58.028 -50.209  1.00  0.00     0.190 HD
ENDROOT
BRANCH   1   5
HETATM    5  C   UNL     1     -41.843  57.327 -51.087  1.00  0.00     0.121 A 
HETATM    6  N   UNL     1     -41.547  56.722 -49.898  1.00  0.00    -0.272 N 
HETATM    7  N   UNL     1     -41.053  55.480 -50.019  1.00  0.00    -0.174 NA
HETATM    8  H   UNL     1     -41.662  57.115 -48.968  1.00  0.00     0.189 HD
HETATM    9  C   UNL     1     -41.053  55.242 -51.340  1.00  0.00     0.089 A 
HETATM   10  C   UNL     1     -41.522  56.386 -52.045  1.00  0.00     0.071 A 
BRANCH   9  11
HETATM   11  C   UNL     1     -40.616  53.960 -51.901  1.00  0.00    -0.005 A 
HETATM   12  C   UNL     1     -40.084  52.958 -51.079  1.00  0.00     0.016 A 
HETATM   13  C   UNL     1     -39.680  51.735 -51.623  1.00  0.00     0.037 A 
HETATM   14  C   UNL     1     -39.802  51.486 -52.991  1.00  0.00     0.068 A 
HETATM   15  C   UNL     1     -40.320  52.480 -53.818  1.00  0.00     0.037 A 
HETATM   16  C   UNL     1     -40.723  53.709 -53.276  1.00  0.00     0.016 A 
BRANCH  14  17
HETATM   17  O   UNL     1     -39.374  50.248 -53.385  1.00  0.00    -0.356 OA
HETATM   18  C   UNL     1     -39.800  49.801 -54.666  1.00  0.00     0.210 C 
ENDBRANCH  14  17
ENDBRANCH   9  11
ENDBRANCH   1   5
BRANCH   2  19
HETATM   19  N   UNL     1     -44.187  60.068 -50.448  1.00  0.00    -0.267 N 
HETATM   20  C   UNL     1     -45.478  60.141 -49.960  1.00  0.00     0.240 C 
HETATM   21  O   UNL     1     -46.221  59.159 -49.929  1.00  0.00    -0.272 OA
HETATM   22  H   UNL     1     -43.500  60.808 -50.307  1.00  0.00     0.190 HD
BRANCH  20  23
HETATM   23  C   UNL     1     -45.906  61.513 -49.486  1.00  0.00     0.143 C 
BRANCH  23  24
HETATM   24  C   UNL     1     -45.594  61.811 -48.038  1.00  0.00    -0.049 A 
HETATM   25  C   UNL     1     -45.373  60.790 -47.100  1.00  0.00     0.009 A 
HETATM   26  C   UNL     1     -45.038  61.098 -45.778  1.00  0.00     0.024 A 
HETATM   27  C   UNL     1     -44.902  62.428 -45.389  1.00  0.00     0.034 A 
HETATM   28 CL   UNL     1     -44.481  62.806 -43.764  1.00  0.00    -0.084 Cl
HETATM   29  C   UNL     1     -45.097  63.452 -46.310  1.00  0.00     0.024 A 
HETATM   30  C   UNL     1     -45.437  63.145 -47.630  1.00  0.00     0.009 A 
ENDBRANCH  23  24
ENDBRANCH  20  23
ENDBRANCH   2  19
TORSDOF 6
ENDMDL
MODEL 2
REMARK VINA RESULT:      -8.3      8.778     11.901
REMARK  6 active torsions:
REMARK  status: ('A' for Active; 'I' for Inactive)
REMARK    1  A    between atoms: O_2  and  C_3 
REMARK    2  A    between atoms: C_6  and  C_7 
REMARK    3  A    between atoms: C_11  and  C_12 
REMARK       I    between atoms: C_12  and  N_13 
REMARK    4  A    between atoms: N_13  and  N_14 
REMARK       I    between atoms: N_14  and  C_15 
REMARK    5  A    between atoms: C_15  and  C_16 
REMARK    6  A    between atoms: C_16  and  C_17 
ROOT
HETATM    1  C   UNL     1     -43.383  56.871 -57.703  1.00  0.00     0.288 C 
HETATM    2  N   UNL     1     -43.089  55.717 -57.005  1.00  0.00    -0.262 N 
HETATM    3  O   UNL     1     -42.768  57.919 -57.517  1.00  0.00    -0.264 OA
HETATM    4  H   UNL     1     -43.482  54.816 -57.267  1.00  0.00     0.190 HD
ENDROOT
BRANCH   1   5
HETATM    5  C   UNL     1     -44.441  56.747 -58.667  1.00  0.00     0.121 A 
HETATM    6  N   UNL     1     -44.780  55.548 -59.229  1.00  0.00    -0.272 N 
HETATM    7  N   UNL     1     -45.794  55.617 -60.105  1.00  0.00    -0.174 NA
HETATM    8  H   UNL     1     -44.347  54.647 -59.051  1.00  0.00     0.189 HD
HETATM    9  C   UNL     1     -46.162  56.908 -60.098  1.00  0.00     0.089 A 
HETATM   10  C   UNL     1     -45.322  57.653 -59.223  1.00  0.00     0.071 A 
BRANCH   9  11
HETATM   11  C   UNL     1     -47.282  57.404 -60.903  1.00  0.00    -0.005 A 
HETATM   12  C   UNL     1     -47.671  58.748 -60.846  1.00  0.00     0.016 A 
HETATM   13  C   UNL     1     -48.735  59.213 -61.626  1.00  0.00     0.037 A 
HETATM   14  C   UNL     1     -49.426  58.351 -62.478  1.00  0.00     0.068 A 
HETATM   15  C   UNL     1     -49.053  57.009 -62.535  1.00  0.00     0.037 A 
HETATM   16  C   UNL     1     -47.990  56.540 -61.751  1.00  0.00     0.016 A 
BRANCH  14  17
HETATM   17  O   UNL     1     -50.438  58.939 -63.186  1.00  0.00    -0.356 OA
HETATM   18  C   UNL     1     -51.614  59.276 -62.462  1.00  0.00     0.210 C 
ENDBRANCH  14  17
ENDBRANCH   9  11
ENDBRANCH   1   5
BRANCH   2  19
HETATM   19  N   UNL     1     -41.892  55.655 -56.274  1.00  0.00    -0.267 N 
HETATM   20  C   UNL     1     -41.743  54.580 -55.420  1.00  0.00     0.240 C 
HETATM   21  O   UNL     1     -42.677  53.819 -55.158  1.00  0.00    -0.272 OA
HETATM   22  H   UNL     1     -41.099  56.175 -56.652  1.00  0.00     0.190 HD
BRANCH  20  23
HETATM   23  C   UNL     1     -40.360  54.422 -54.825  1.00  0.00     0.143 C 
BRANCH  23  24
HETATM   24  C   UNL     1     -40.213  53.270 -53.858  1.00  0.00    -0.049 A 
HETATM   25  C   UNL     1     -39.915  51.968 -54.291  1.00  0.00     0.009 A 
HETATM   26  C   UNL     1     -39.737  50.934 -53.368  1.00  0.00     0.024 A 
HETATM   27  C   UNL     1     -39.835  51.197 -52.004  1.00  0.00     0.034 A 
HETATM   28 CL   UNL     1     -39.605  49.925 -50.869  1.00  0.00    -0.084 Cl
HETATM   29  C   UNL     1     -40.108  52.485 -51.556  1.00  0.00     0.024 A 
HETATM   30  C   UNL     1     -40.292  53.518 -52.478  1.00  0.00     0.009 A 
ENDBRANCH  23  24
ENDBRANCH  20  23
ENDBRANCH   2  19
TORSDOF 6
ENDMDL
MODEL 3
REMARK VINA RESULT:      -8.0      1.372      1.722
REMARK  6 active torsions:
REMARK  status: ('A' for Active; 'I' for Inactive)
REMARK    1  A    between atoms: O_2  and  C_3 
REMARK    2  A    between atoms: C_6  and  C_7 
REMARK    3  A    between atoms: C_11  and  C_12 
REMARK       I    between atoms: C_12  and  N_13 
REMARK    4  A    between atoms: N_13  and  N_14 
REMARK       I    between atoms: N_14  and  C_15 
REMARK    5  A    between atoms: C_15  and  C_16 
REMARK    6  A    between atoms: C_16  and  C_17 
ROOT
HETATM    1  C   UNL     1     -43.745  58.875 -51.909  1.00  0.00     0.288 C 
HETATM    2  N   UNL     1     -43.575  59.299 -50.607  1.00  0.00    -0.262 N 
HETATM    3  O   UNL     1     -44.616  59.347 -52.639  1.00  0.00    -0.264 OA
HETATM    4  H   UNL     1     -42.762  59.031 -50.057  1.00  0.00     0.190 HD
ENDROOT
BRANCH   1   5
HETATM    5  C   UNL     1     -42.822  57.865 -52.347  1.00  0.00     0.121 A 
HETATM    6  N   UNL     1     -41.686  58.167 -53.043  1.00  0.00    -0.272 N 
HETATM    7  N   UNL     1     -40.938  57.101 -53.366  1.00  0.00    -0.174 NA
HETATM    8  H   UNL     1     -41.372  59.090 -53.328  1.00  0.00     0.189 HD
HETATM    9  C   UNL     1     -41.589  56.055 -52.835  1.00  0.00     0.089 A 
HETATM   10  C   UNL     1     -42.788  56.492 -52.205  1.00  0.00     0.071 A 
BRANCH   9  11
HETATM   11  C   UNL     1     -41.075  54.686 -52.931  1.00  0.00    -0.005 A 
HETATM   12  C   UNL     1     -40.630  54.002 -51.792  1.00  0.00     0.016 A 
HETATM   13  C   UNL     1     -40.149  52.692 -51.893  1.00  0.00     0.037 A 
HETATM   14  C   UNL     1     -40.107  52.040 -53.127  1.00  0.00     0.068 A 
HETATM   15  C   UNL     1     -40.538  52.716 -54.267  1.00  0.00     0.037 A 
HETATM   16  C   UNL     1     -41.016  54.030 -54.169  1.00  0.00     0.016 A 
BRANCH  14  17
HETATM   17  O   UNL     1     -39.621  50.763 -53.079  1.00  0.00    -0.356 OA
HETATM   18  C   UNL     1     -39.570  50.050 -54.308  1.00  0.00     0.210 C 
ENDBRANCH  14  17
ENDBRANCH   9  11
ENDBRANCH   1   5
BRANCH   2  19
HETATM   19  N   UNL     1     -44.215  60.477 -50.189  1.00  0.00    -0.267 N 
HETATM   20  C   UNL     1     -45.406  60.324 -49.506  1.00  0.00     0.240 C 
HETATM   21  O   UNL     1     -45.982  59.238 -49.431  1.00  0.00    -0.272 OA
HETATM   22  H   UNL     1     -43.630  61.308 -50.103  1.00  0.00     0.190 HD
BRANCH  20  23
HETATM   23  C   UNL     1     -45.949  61.590 -48.876  1.00  0.00     0.143 C 
BRANCH  23  24
HETATM   24  C   UNL     1     -45.453  61.865 -47.475  1.00  0.00    -0.049 A 
HETATM   25  C   UNL     1     -45.395  63.165 -46.949  1.00  0.00     0.009 A 
HETATM   26  C   UNL     1     -44.978  63.381 -45.632  1.00  0.00     0.024 A 
HETATM   27  C   UNL     1     -44.637  62.299 -44.826  1.00  0.00     0.034 A 
HETATM   28 CL   UNL     1     -44.134  62.566 -43.202  1.00  0.00    -0.084 Cl
HETATM   29  C   UNL     1     -44.710  61.002 -45.324  1.00  0.00     0.024 A 
HETATM   30  C   UNL     1     -45.121  60.785 -46.641  1.00  0.00     0.009 A 
ENDBRANCH  23  24
ENDBRANCH  20  23
ENDBRANCH   2  19
TORSDOF 6
ENDMDL
MODEL 4
REMARK VINA RESULT:      -7.8      7.213      8.980
REMARK  6 active torsions:
REMARK  status: ('A' for Active; 'I' for Inactive)
REMARK    1  A    between atoms: O_2  and  C_3 
REMARK    2  A    between atoms: C_6  and  C_7 
REMARK    3  A    between atoms: C_11  and  C_12 
REMARK       I    between atoms: C_12  and  N_13 
REMARK    4  A    between atoms: N_13  and  N_14 
REMARK       I    between atoms: N_14  and  C_15 
REMARK    5  A    between atoms: C_15  and  C_16 
REMARK    6  A    between atoms: C_16  and  C_17 
ROOT
HETATM    1  C   UNL     1     -43.144  57.539 -55.875  1.00  0.00     0.288 C 
HETATM    2  N   UNL     1     -42.071  58.351 -56.184  1.00  0.00    -0.262 N 
HETATM    3  O   UNL     1     -44.306  57.923 -55.994  1.00  0.00    -0.264 OA
HETATM    4  H   UNL     1     -41.122  57.987 -56.240  1.00  0.00     0.190 HD
ENDROOT
BRANCH   1   5
HETATM    5  C   UNL     1     -42.800  56.218 -55.427  1.00  0.00     0.121 A 
HETATM    6  N   UNL     1     -43.437  55.102 -55.890  1.00  0.00    -0.272 N 
HETATM    7  N   UNL     1     -42.984  53.952 -55.369  1.00  0.00    -0.174 NA
HETATM    8  H   UNL     1     -44.195  55.068 -56.566  1.00  0.00     0.189 HD
HETATM    9  C   UNL     1     -41.985  54.320 -54.551  1.00  0.00     0.089 A 
HETATM   10  C   UNL     1     -41.853  55.736 -54.545  1.00  0.00     0.071 A 
BRANCH   9  11
HETATM   11  C   UNL     1     -41.188  53.342 -53.805  1.00  0.00    -0.005 A 
HETATM   12  C   UNL     1     -40.946  53.504 -52.435  1.00  0.00     0.016 A 
HETATM   13  C   UNL     1     -40.191  52.560 -51.731  1.00  0.00     0.037 A 
HETATM   14  C   UNL     1     -39.669  51.438 -52.375  1.00  0.00     0.068 A 
HETATM   15  C   UNL     1     -39.897  51.272 -53.740  1.00  0.00     0.037 A 
HETATM   16  C   UNL     1     -40.649  52.219 -54.450  1.00  0.00     0.016 A 
BRANCH  14  17
HETATM   17  O   UNL     1     -38.959  50.595 -51.566  1.00  0.00    -0.356 OA
HETATM   18  C   UNL     1     -39.707  49.796 -50.659  1.00  0.00     0.210 C 
ENDBRANCH  14  17
ENDBRANCH   9  11
ENDBRANCH   1   5
BRANCH   2  19
HETATM   19  N   UNL     1     -42.302  59.531 -56.907  1.00  0.00    -0.267 N 
HETATM   20  C   UNL     1     -42.113  59.467 -58.274  1.00  0.00     0.240 C 
HETATM   21  O   UNL     1     -41.585  58.494 -58.815  1.00  0.00    -0.272 OA
HETATM   22  H   UNL     1     -42.901  60.228 -56.464  1.00  0.00     0.190 HD
BRANCH  20  23
HETATM   23  C   UNL     1     -42.587  60.681 -59.043  1.00  0.00     0.143 C 
BRANCH  23  24
HETATM   24  C   UNL     1     -41.487  61.502 -59.676  1.00  0.00    -0.049 A 
HETATM   25  C   UNL     1     -41.427  61.725 -61.060  1.00  0.00     0.009 A 
HETATM   26  C   UNL     1     -40.425  62.529 -61.609  1.00  0.00     0.024 A 
HETATM   27  C   UNL     1     -39.487  63.134 -60.776  1.00  0.00     0.034 A 
HETATM   28 CL   UNL     1     -38.260  64.132 -61.452  1.00  0.00    -0.084 Cl
HETATM   29  C   UNL     1     -39.544  62.942 -59.399  1.00  0.00     0.024 A 
HETATM   30  C   UNL     1     -40.542  62.133 -58.851  1.00  0.00     0.009 A 
ENDBRANCH  23  24
ENDBRANCH  20  23
ENDBRANCH   2  19
TORSDOF 6
ENDMDL
MODEL 5
REMARK VINA RESULT:      -7.6      7.232     10.536
REMARK  6 active torsions:
REMARK  status: ('A' for Active; 'I' for Inactive)
REMARK    1  A    between atoms: O_2  and  C_3 
REMARK    2  A    between atoms: C_6  and  C_7 
REMARK    3  A    between atoms: C_11  and  C_12 
REMARK       I    between atoms: C_12  and  N_13 
REMARK    4  A    between atoms: N_13  and  N_14 
REMARK       I    between atoms: N_14  and  C_15 
REMARK    5  A    between atoms: C_15  and  C_16 
REMARK    6  A    between atoms: C_16  and  C_17 
ROOT
HETATM    1  C   UNL     1     -42.729  56.360 -57.464  1.00  0.00     0.288 C 
HETATM    2  N   UNL     1     -41.950  56.030 -56.373  1.00  0.00    -0.262 N 
HETATM    3  O   UNL     1     -43.467  55.540 -58.008  1.00  0.00    -0.264 OA
HETATM    4  H   UNL     1     -41.465  56.739 -55.826  1.00  0.00     0.190 HD
ENDROOT
BRANCH   1   5
HETATM    5  C   UNL     1     -42.625  57.726 -57.897  1.00  0.00     0.121 A 
HETATM    6  N   UNL     1     -43.478  58.698 -57.457  1.00  0.00    -0.272 N 
HETATM    7  N   UNL     1     -43.232  59.917 -57.960  1.00  0.00    -0.174 NA
HETATM    8  H   UNL     1     -44.253  58.582 -56.810  1.00  0.00     0.189 HD
HETATM    9  C   UNL     1     -42.152  59.751 -58.740  1.00  0.00     0.089 A 
HETATM   10  C   UNL     1     -41.755  58.384 -58.743  1.00  0.00     0.071 A 
BRANCH   9  11
HETATM   11  C   UNL     1     -41.528  60.868 -59.455  1.00  0.00    -0.005 A 
HETATM   12  C   UNL     1     -41.705  61.029 -60.835  1.00  0.00     0.016 A 
HETATM   13  C   UNL     1     -41.112  62.103 -61.506  1.00  0.00     0.037 A 
HETATM   14  C   UNL     1     -40.338  63.037 -60.815  1.00  0.00     0.068 A 
HETATM   15  C   UNL     1     -40.148  62.880 -59.444  1.00  0.00     0.037 A 
HETATM   16  C   UNL     1     -40.737  61.801 -58.770  1.00  0.00     0.016 A 
BRANCH  14  17
HETATM   17  O   UNL     1     -39.825  64.038 -61.593  1.00  0.00    -0.356 OA
HETATM   18  C   UNL     1     -38.550  63.806 -62.178  1.00  0.00     0.210 C 
ENDBRANCH  14  17
ENDBRANCH   9  11
ENDBRANCH   1   5
BRANCH   2  19
HETATM   19  N   UNL     1     -42.206  54.827 -55.697  1.00  0.00    -0.267 N 
HETATM   20  C   UNL     1     -41.149  54.267 -55.007  1.00  0.00     0.240 C 
HETATM   21  O   UNL     1     -39.995  54.684 -55.129  1.00  0.00    -0.272 OA
HETATM   22  H   UNL     1     -43.181  54.630 -55.470  1.00  0.00     0.190 HD
BRANCH  20  23
HETATM   23  C   UNL     1     -41.513  53.103 -54.111  1.00  0.00     0.143 C 
BRANCH  23  24
HETATM   24  C   UNL     1     -41.303  53.349 -52.634  1.00  0.00    -0.049 A 
HETATM   25  C   UNL     1     -40.113  52.989 -51.983  1.00  0.00     0.009 A 
HETATM   26  C   UNL     1     -39.931  53.274 -50.626  1.00  0.00     0.024 A 
HETATM   27  C   UNL     1     -40.927  53.939 -49.917  1.00  0.00     0.034 A 
HETATM   28 CL   UNL     1     -40.697  54.298 -48.250  1.00  0.00    -0.084 Cl
HETATM   29  C   UNL     1     -42.104  54.322 -50.552  1.00  0.00     0.024 A 
HETATM   30  C   UNL     1     -42.289  54.032 -51.906  1.00  0.00     0.009 A 
ENDBRANCH  23  24
ENDBRANCH  20  23
ENDBRANCH   2  19
TORSDOF 6
ENDMDL
MODEL 6
REMARK VINA RESULT:      -7.5      7.492      9.241
REMARK  6 active torsions:
REMARK  status: ('A' for Active; 'I' for Inactive)
REMARK    1  A    between atoms: O_2  and  C_3 
REMARK    2  A    between atoms: C_6  and  C_7 
REMARK    3  A    between atoms: C_11  and  C_12 
REMARK       I    between atoms: C_12  and  N_13 
REMARK    4  A    between atoms: N_13  and  N_14 
REMARK       I    between atoms: N_14  and  C_15 
REMARK    5  A    between atoms: C_15  and  C_16 
REMARK    6  A    between atoms: C_16  and  C_17 
ROOT
HETATM    1  C   UNL     1     -42.498  57.334 -56.590  1.00  0.00     0.288 C 
HETATM    2  N   UNL     1     -41.760  57.461 -57.749  1.00  0.00    -0.262 N 
HETATM    3  O   UNL     1     -43.250  58.224 -56.195  1.00  0.00    -0.264 OA
HETATM    4  H   UNL     1     -41.266  56.671 -58.160  1.00  0.00     0.190 HD
ENDROOT
BRANCH   1   5
HETATM    5  C   UNL     1     -42.338  56.084 -55.898  1.00  0.00     0.121 A 
HETATM    6  N   UNL     1     -43.261  55.080 -55.982  1.00  0.00    -0.272 N 
HETATM    7  N   UNL     1     -42.946  53.983 -55.276  1.00  0.00    -0.174 NA
HETATM    8  H   UNL     1     -44.129  55.092 -56.508  1.00  0.00     0.189 HD
HETATM    9  C   UNL     1     -41.752  54.260 -54.730  1.00  0.00     0.089 A 
HETATM   10  C   UNL     1     -41.347  55.579 -55.080  1.00  0.00     0.071 A 
BRANCH   9  11
HETATM   11  C   UNL     1     -41.030  53.291 -53.902  1.00  0.00    -0.005 A 
HETATM   12  C   UNL     1     -40.848  53.509 -52.530  1.00  0.00     0.016 A 
HETATM   13  C   UNL     1     -40.165  52.572 -51.747  1.00  0.00     0.037 A 
HETATM   14  C   UNL     1     -39.655  51.403 -52.313  1.00  0.00     0.068 A 
HETATM   15  C   UNL     1     -39.822  51.182 -53.679  1.00  0.00     0.037 A 
HETATM   16  C   UNL     1     -40.503  52.121 -54.467  1.00  0.00     0.016 A 
BRANCH  14  17
HETATM   17  O   UNL     1     -39.017  50.575 -51.432  1.00  0.00    -0.356 OA
HETATM   18  C   UNL     1     -39.834  49.694 -50.674  1.00  0.00     0.210 C 
ENDBRANCH  14  17
ENDBRANCH   9  11
ENDBRANCH   1   5
BRANCH   2  19
HETATM   19  N   UNL     1     -42.074  58.498 -58.640  1.00  0.00    -0.267 N 
HETATM   20  C   UNL     1     -42.263  58.142 -59.962  1.00  0.00     0.240 C 
HETATM   21  O   UNL     1     -41.984  57.018 -60.382  1.00  0.00    -0.272 OA
HETATM   22  H   UNL     1     -42.471  59.345 -58.234  1.00  0.00     0.190 HD
BRANCH  20  23
HETATM   23  C   UNL     1     -42.820  59.237 -60.846  1.00  0.00     0.143 C 
BRANCH  23  24
HETATM   24  C   UNL     1     -44.327  59.341 -60.856  1.00  0.00    -0.049 A 
HETATM   25  C   UNL     1     -45.142  58.397 -60.211  1.00  0.00     0.009 A 
HETATM   26  C   UNL     1     -46.531  58.548 -60.197  1.00  0.00     0.024 A 
HETATM   27  C   UNL     1     -47.116  59.653 -60.810  1.00  0.00     0.034 A 
HETATM   28 CL   UNL     1     -48.825  59.842 -60.783  1.00  0.00    -0.084 Cl
HETATM   29  C   UNL     1     -46.323  60.609 -61.435  1.00  0.00     0.024 A 
HETATM   30  C   UNL     1     -44.934  60.456 -61.455  1.00  0.00     0.009 A 
ENDBRANCH  23  24
ENDBRANCH  20  23
ENDBRANCH   2  19
TORSDOF 6
ENDMDL
MODEL 7
REMARK VINA RESULT:      -7.5      2.130      2.543
REMARK  6 active torsions:
REMARK  status: ('A' for Active; 'I' for Inactive)
REMARK    1  A    between atoms: O_2  and  C_3 
REMARK    2  A    between atoms: C_6  and  C_7 
REMARK    3  A    between atoms: C_11  and  C_12 
REMARK       I    between atoms: C_12  and  N_13 
REMARK    4  A    between atoms: N_13  and  N_14 
REMARK       I    between atoms: N_14  and  C_15 
REMARK    5  A    between atoms: C_15  and  C_16 
REMARK    6  A    between atoms: C_16  and  C_17 
ROOT
HETATM    1  C   UNL     1     -44.749  58.297 -52.914  1.00  0.00     0.288 C 
HETATM    2  N   UNL     1     -44.827  58.575 -51.565  1.00  0.00    -0.262 N 
HETATM    3  O   UNL     1     -45.140  59.093 -53.767  1.00  0.00    -0.264 OA
HETATM    4  H   UNL     1     -44.362  57.996 -50.869  1.00  0.00     0.190 HD
ENDROOT
BRANCH   1   5
HETATM    5  C   UNL     1     -44.162  57.027 -53.242  1.00  0.00     0.121 A 
HETATM    6  N   UNL     1     -44.645  56.238 -54.248  1.00  0.00    -0.272 N 
HETATM    7  N   UNL     1     -43.972  55.090 -54.419  1.00  0.00    -0.174 NA
HETATM    8  H   UNL     1     -45.438  56.436 -54.851  1.00  0.00     0.189 HD
HETATM    9  C   UNL     1     -42.985  55.136 -53.511  1.00  0.00     0.089 A 
HETATM   10  C   UNL     1     -43.084  56.327 -52.739  1.00  0.00     0.071 A 
BRANCH   9  11
HETATM   11  C   UNL     1     -41.984  54.072 -53.394  1.00  0.00    -0.005 A 
HETATM   12  C   UNL     1     -41.649  53.272 -54.494  1.00  0.00     0.016 A 
HETATM   13  C   UNL     1     -40.686  52.266 -54.373  1.00  0.00     0.037 A 
HETATM   14  C   UNL     1     -40.037  52.040 -53.158  1.00  0.00     0.068 A 
HETATM   15  C   UNL     1     -40.370  52.823 -52.055  1.00  0.00     0.037 A 
HETATM   16  C   UNL     1     -41.338  53.830 -52.172  1.00  0.00     0.016 A 
BRANCH  14  17
HETATM   17  O   UNL     1     -39.115  51.030 -53.184  1.00  0.00    -0.356 OA
HETATM   18  C   UNL     1     -39.491  49.837 -53.859  1.00  0.00     0.210 C 
ENDBRANCH  14  17
ENDBRANCH   9  11
ENDBRANCH   1   5
BRANCH   2  19
HETATM   19  N   UNL     1     -45.097  59.892 -51.160  1.00  0.00    -0.267 N 
HETATM   20  C   UNL     1     -44.025  60.629 -50.697  1.00  0.00     0.240 C 
HETATM   21  O   UNL     1     -42.930  60.114 -50.463  1.00  0.00    -0.272 OA
HETATM   22  H   UNL     1     -45.941  60.321 -51.539  1.00  0.00     0.190 HD
BRANCH  20  23
HETATM   23  C   UNL     1     -44.304  62.102 -50.487  1.00  0.00     0.143 C 
BRANCH  23  24
HETATM   24  C   UNL     1     -44.635  62.489 -49.064  1.00  0.00    -0.049 A 
HETATM   25  C   UNL     1     -45.057  61.545 -48.115  1.00  0.00     0.009 A 
HETATM   26  C   UNL     1     -45.308  61.927 -46.794  1.00  0.00     0.024 A 
HETATM   27  C   UNL     1     -45.121  63.250 -46.407  1.00  0.00     0.034 A 
HETATM   28 CL   UNL     1     -45.422  63.717 -44.779  1.00  0.00    -0.084 Cl
HETATM   29  C   UNL     1     -44.683  64.196 -47.329  1.00  0.00     0.024 A 
HETATM   30  C   UNL     1     -44.437  63.816 -48.650  1.00  0.00     0.009 A 
ENDBRANCH  23  24
ENDBRANCH  20  23
ENDBRANCH   2  19
TORSDOF 6
ENDMDL
MODEL 8
REMARK VINA RESULT:      -7.5      3.976     10.576
REMARK  6 active torsions:
REMARK  status: ('A' for Active; 'I' for Inactive)
REMARK    1  A    between atoms: O_2  and  C_3 
REMARK    2  A    between atoms: C_6  and  C_7 
REMARK    3  A    between atoms: C_11  and  C_12 
REMARK       I    between atoms: C_12  and  N_13 
REMARK    4  A    between atoms: N_13  and  N_14 
REMARK       I    between atoms: N_14  and  C_15 
REMARK    5  A    between atoms: C_15  and  C_16 
REMARK    6  A    between atoms: C_16  and  C_17 
ROOT
HETATM    1  C   UNL     1     -41.467  59.245 -53.496  1.00  0.00     0.288 C 
HETATM    2  N   UNL     1     -40.968  58.201 -52.744  1.00  0.00    -0.262 N 
HETATM    3  O   UNL     1     -41.359  59.275 -54.721  1.00  0.00    -0.264 OA
HETATM    4  H   UNL     1     -41.195  58.094 -51.757  1.00  0.00     0.190 HD
ENDROOT
BRANCH   1   5
HETATM    5  C   UNL     1     -42.135  60.272 -52.747  1.00  0.00     0.121 A 
HETATM    6  N   UNL     1     -42.696  61.365 -53.346  1.00  0.00    -0.272 N 
HETATM    7  N   UNL     1     -43.283  62.220 -52.495  1.00  0.00    -0.174 NA
HETATM    8  H   UNL     1     -42.704  61.580 -54.339  1.00  0.00     0.189 HD
HETATM    9  C   UNL     1     -43.133  61.654 -51.287  1.00  0.00     0.089 A 
HETATM   10  C   UNL     1     -42.399  60.440 -51.402  1.00  0.00     0.071 A 
BRANCH   9  11
HETATM   11  C   UNL     1     -43.677  62.260 -50.068  1.00  0.00    -0.005 A 
HETATM   12  C   UNL     1     -43.557  63.636 -49.833  1.00  0.00     0.016 A 
HETATM   13  C   UNL     1     -44.088  64.206 -48.671  1.00  0.00     0.037 A 
HETATM   14  C   UNL     1     -44.751  63.419 -47.728  1.00  0.00     0.068 A 
HETATM   15  C   UNL     1     -44.866  62.048 -47.949  1.00  0.00     0.037 A 
HETATM   16  C   UNL     1     -44.331  61.473 -49.110  1.00  0.00     0.016 A 
BRANCH  14  17
HETATM   17  O   UNL     1     -45.225  64.107 -46.645  1.00  0.00    -0.356 OA
HETATM   18  C   UNL     1     -45.416  63.364 -45.448  1.00  0.00     0.210 C 
ENDBRANCH  14  17
ENDBRANCH   9  11
ENDBRANCH   1   5
BRANCH   2  19
HETATM   19  N   UNL     1     -40.576  57.022 -53.397  1.00  0.00    -0.267 N 
HETATM   20  C   UNL     1     -41.485  55.982 -53.395  1.00  0.00     0.240 C 
HETATM   21  O   UNL     1     -42.501  56.004 -52.698  1.00  0.00    -0.272 OA
HETATM   22  H   UNL     1     -39.840  57.112 -54.098  1.00  0.00     0.190 HD
BRANCH  20  23
HETATM   23  C   UNL     1     -41.128  54.819 -54.296  1.00  0.00     0.143 C 
BRANCH  23  24
HETATM   24  C   UNL     1     -40.600  53.598 -53.578  1.00  0.00    -0.049 A 
HETATM   25  C   UNL     1     -40.471  53.555 -52.180  1.00  0.00     0.009 A 
HETATM   26  C   UNL     1     -40.026  52.394 -51.543  1.00  0.00     0.024 A 
HETATM   27  C   UNL     1     -39.725  51.261 -52.294  1.00  0.00     0.034 A 
HETATM   28 CL   UNL     1     -39.187  49.830 -51.507  1.00  0.00    -0.084 Cl
HETATM   29  C   UNL     1     -39.868  51.279 -53.678  1.00  0.00     0.024 A 
HETATM   30  C   UNL     1     -40.308  52.441 -54.316  1.00  0.00     0.009 A 
ENDBRANCH  23  24
ENDBRANCH  20  23
ENDBRANCH   2  19
TORSDOF 6
ENDMDL
MODEL 9
REMARK VINA RESULT:      -7.3      7.160      8.753
REMARK  6 active torsions:
REMARK  status: ('A' for Active; 'I' for Inactive)
REMARK    1  A    between atoms: O_2  and  C_3 
REMARK    2  A    between atoms: C_6  and  C_7 
REMARK    3  A    between atoms: C_11  and  C_12 
REMARK       I    between atoms: C_12  and  N_13 
REMARK    4  A    between atoms: N_13  and  N_14 
REMARK       I    between atoms: N_14  and  C_15 
REMARK    5  A    between atoms: C_15  and  C_16 
REMARK    6  A    between atoms: C_16  and  C_17 
ROOT
HETATM    1  C   UNL     1     -42.749  56.807 -56.700  1.00  0.00     0.288 C 
HETATM    2  N   UNL     1     -43.626  56.027 -57.426  1.00  0.00    -0.262 N 
HETATM    3  O   UNL     1     -42.593  58.004 -56.937  1.00  0.00    -0.264 OA
HETATM    4  H   UNL     1     -43.876  55.085 -57.132  1.00  0.00     0.190 HD
ENDROOT
BRANCH   1   5
HETATM    5  C   UNL     1     -42.055  56.124 -55.643  1.00  0.00     0.121 A 
HETATM    6  N   UNL     1     -41.544  56.783 -54.561  1.00  0.00    -0.272 N 
HETATM    7  N   UNL     1     -40.933  55.988 -53.670  1.00  0.00    -0.174 NA
HETATM    8  H   UNL     1     -41.582  57.782 -54.381  1.00  0.00     0.189 HD
HETATM    9  C   UNL     1     -41.075  54.749 -54.166  1.00  0.00     0.089 A 
HETATM   10  C   UNL     1     -41.756  54.796 -55.415  1.00  0.00     0.071 A 
BRANCH   9  11
HETATM   11  C   UNL     1     -40.573  53.565 -53.463  1.00  0.00    -0.005 A 
HETATM   12  C   UNL     1     -40.291  52.381 -54.156  1.00  0.00     0.016 A 
HETATM   13  C   UNL     1     -39.804  51.259 -53.477  1.00  0.00     0.037 A 
HETATM   14  C   UNL     1     -39.584  51.298 -52.099  1.00  0.00     0.068 A 
HETATM   15  C   UNL     1     -39.871  52.469 -51.399  1.00  0.00     0.037 A 
HETATM   16  C   UNL     1     -40.364  53.592 -52.077  1.00  0.00     0.016 A 
BRANCH  14  17
HETATM   17  O   UNL     1     -39.100  50.135 -51.567  1.00  0.00    -0.356 OA
HETATM   18  C   UNL     1     -39.888  49.516 -50.559  1.00  0.00     0.210 C 
ENDBRANCH  14  17
ENDBRANCH   9  11
ENDBRANCH   1   5
BRANCH   2  19
HETATM   19  N   UNL     1     -44.560  56.658 -58.263  1.00  0.00    -0.267 N 
HETATM   20  C   UNL     1     -44.705  56.133 -59.533  1.00  0.00     0.240 C 
HETATM   21  O   UNL     1     -43.931  55.287 -59.983  1.00  0.00    -0.272 OA
HETATM   22  H   UNL     1     -45.287  57.205 -57.804  1.00  0.00     0.190 HD
BRANCH  20  23
HETATM   23  C   UNL     1     -45.872  56.686 -60.323  1.00  0.00     0.143 C 
BRANCH  23  24
HETATM   24  C   UNL     1     -46.144  58.157 -60.108  1.00  0.00    -0.049 A 
HETATM   25  C   UNL     1     -45.344  59.154 -60.687  1.00  0.00     0.009 A 
HETATM   26  C   UNL     1     -45.651  60.506 -60.509  1.00  0.00     0.024 A 
HETATM   27  C   UNL     1     -46.773  60.871 -59.769  1.00  0.00     0.034 A 
HETATM   28 CL   UNL     1     -47.156  62.535 -59.560  1.00  0.00    -0.084 Cl
HETATM   29  C   UNL     1     -47.590  59.896 -59.207  1.00  0.00     0.024 A 
HETATM   30  C   UNL     1     -47.280  58.545 -59.380  1.00  0.00     0.009 A 
ENDBRANCH  23  24
ENDBRANCH  20  23
ENDBRANCH   2  19
TORSDOF 6
ENDMDL
MODEL 10
REMARK VINA RESULT:      -7.3      7.811     11.407
REMARK  6 active torsions:
REMARK  status: ('A' for Active; 'I' for Inactive)
REMARK    1  A    between atoms: O_2  and  C_3 
REMARK    2  A    between atoms: C_6  and  C_7 
REMARK    3  A    between atoms: C_11  and  C_12 
REMARK       I    between atoms: C_12  and  N_13 
REMARK    4  A    between atoms: N_13  and  N_14 
REMARK       I    between atoms: N_14  and  C_15 
REMARK    5  A    between atoms: C_15  and  C_16 
REMARK    6  A    between atoms: C_16  and  C_17 
ROOT
HETATM    1  C   UNL     1     -43.033  57.058 -56.681  1.00  0.00     0.288 C 
HETATM    2  N   UNL     1     -42.216  55.951 -56.584  1.00  0.00    -0.262 N 
HETATM    3  O   UNL     1     -43.926  57.282 -55.865  1.00  0.00    -0.264 OA
HETATM    4  H   UNL     1     -41.380  55.848 -57.157  1.00  0.00     0.190 HD
ENDROOT
BRANCH   1   5
HETATM    5  C   UNL     1     -42.748  57.932 -57.786  1.00  0.00     0.121 A 
HETATM    6  N   UNL     1     -43.221  57.693 -59.045  1.00  0.00    -0.272 N 
HETATM    7  N   UNL     1     -42.862  58.614 -59.952  1.00  0.00    -0.174 NA
HETATM    8  H   UNL     1     -43.794  56.909 -59.343  1.00  0.00     0.189 HD
HETATM    9  C   UNL     1     -42.152  59.516 -59.258  1.00  0.00     0.089 A 
HETATM   10  C   UNL     1     -42.040  59.112 -57.898  1.00  0.00     0.071 A 
BRANCH   9  11
HETATM   11  C   UNL     1     -41.601  60.723 -59.882  1.00  0.00    -0.005 A 
HETATM   12  C   UNL     1     -40.902  61.671 -59.124  1.00  0.00     0.016 A 
HETATM   13  C   UNL     1     -40.373  62.815 -59.732  1.00  0.00     0.037 A 
HETATM   14  C   UNL     1     -40.526  63.032 -61.102  1.00  0.00     0.068 A 
HETATM   15  C   UNL     1     -41.229  62.099 -61.862  1.00  0.00     0.037 A 
HETATM   16  C   UNL     1     -41.764  60.954 -61.255  1.00  0.00     0.016 A 
BRANCH  14  17
HETATM   17  O   UNL     1     -39.953  64.185 -61.563  1.00  0.00    -0.356 OA
HETATM   18  C   UNL     1     -38.535  64.206 -61.649  1.00  0.00     0.210 C 
ENDBRANCH  14  17
ENDBRANCH   9  11
ENDBRANCH   1   5
BRANCH   2  19
HETATM   19  N   UNL     1     -42.214  55.213 -55.390  1.00  0.00    -0.267 N 
HETATM   20  C   UNL     1     -41.092  55.329 -54.592  1.00  0.00     0.240 C 
HETATM   21  O   UNL     1     -40.066  55.887 -54.985  1.00  0.00    -0.272 OA
HETATM   22  H   UNL     1     -43.125  54.933 -55.026  1.00  0.00     0.190 HD
BRANCH  20  23
HETATM   23  C   UNL     1     -41.217  54.708 -53.217  1.00  0.00     0.143 C 
BRANCH  23  24
HETATM   24  C   UNL     1     -40.654  53.311 -53.097  1.00  0.00    -0.049 A 
HETATM   25  C   UNL     1     -40.135  52.820 -51.889  1.00  0.00     0.009 A 
HETATM   26  C   UNL     1     -39.666  51.506 -51.799  1.00  0.00     0.024 A 
HETATM   27  C   UNL     1     -39.733  50.667 -52.907  1.00  0.00     0.034 A 
HETATM   28 CL   UNL     1     -39.165  49.047 -52.791  1.00  0.00    -0.084 Cl
HETATM   29  C   UNL     1     -40.265  51.130 -54.107  1.00  0.00     0.024 A 
HETATM   30  C   UNL     1     -40.728  52.445 -54.200  1.00  0.00     0.009 A 
ENDBRANCH  23  24
ENDBRANCH  20  23
ENDBRANCH   2  19
TORSDOF 6
ENDMDL
