MODEL 1
REMARK VINA RESULT:      -9.3      0.000      0.000
REMARK  6 active torsions:
REMARK  status: ('A' for Active; 'I' for Inactive)
REMARK    1  A    between atoms: O_2  and  C_3 
REMARK    2  A    between atoms: C_5  and  N_6 
REMARK    3  A    between atoms: C_7  and  O_8 
REMARK    4  A    between atoms: C_7  and  C_9 
REMARK       I    between atoms: C_9  and  N_10 
REMARK    5  A    between atoms: N_10  and  C_11 
REMARK    6  A    between atoms: C_11  and  C_12 
ROOT
HETATM    1  N   UNL     1     -43.276  57.423 -55.375  1.00  0.00    -0.254 N 
HETATM    2  C   UNL     1     -43.376  56.269 -54.464  1.00  0.00     0.256 C 
HETATM    3  C   UNL     1     -42.847  56.549 -53.069  1.00  0.00     0.034 A 
HETATM    4  C   UNL     1     -41.908  57.558 -52.915  1.00  0.00     0.048 A 
HETATM    5  N   UNL     1     -41.573  58.326 -54.017  1.00  0.00    -0.308 N 
HETATM    6  C   UNL     1     -42.222  58.318 -55.216  1.00  0.00     0.330 C 
HETATM    7  O   UNL     1     -41.793  59.084 -56.079  1.00  0.00    -0.246 OA
HETATM    8  C   UNL     1     -43.184  55.771 -51.948  1.00  0.00     0.015 A 
HETATM    9  C   UNL     1     -42.594  56.018 -50.707  1.00  0.00     0.001 A 
HETATM   10  C   UNL     1     -41.648  57.032 -50.576  1.00  0.00     0.002 A 
HETATM   11  C   UNL     1     -41.297  57.802 -51.683  1.00  0.00     0.030 A 
HETATM   12  H   UNL     1     -40.864  59.046 -53.935  1.00  0.00     0.170 HD
ENDROOT
BRANCH   2  13
HETATM   13  O   UNL     1     -44.759  55.940 -54.279  1.00  0.00    -0.359 OA
HETATM   14  H   UNL     1     -45.008  56.365 -53.436  1.00  0.00     0.213 HD
ENDBRANCH   2  13
BRANCH   2  15
HETATM   15  C   UNL     1     -42.592  55.022 -55.052  1.00  0.00     0.279 C 
HETATM   16  N   UNL     1     -41.266  54.887 -54.702  1.00  0.00    -0.352 N 
HETATM   17  H   UNL     1     -40.779  55.688 -54.321  1.00  0.00     0.162 HD
HETATM   18  O   UNL     1     -43.186  54.178 -55.730  1.00  0.00    -0.268 OA
BRANCH  16  19
HETATM   19  C   UNL     1     -40.463  53.797 -55.196  1.00  0.00     0.161 C 
BRANCH  19  20
HETATM   20  C   UNL     1     -40.225  52.788 -54.104  1.00  0.00    -0.040 A 
HETATM   21  C   UNL     1     -40.222  53.190 -52.760  1.00  0.00     0.010 A 
HETATM   22  C   UNL     1     -39.966  52.266 -51.744  1.00  0.00     0.024 A 
HETATM   23  C   UNL     1     -39.703  50.937 -52.068  1.00  0.00     0.034 A 
HETATM   24 CL   UNL     1     -39.385  49.799 -50.818  1.00  0.00    -0.084 Cl
HETATM   25  C   UNL     1     -39.690  50.525 -53.399  1.00  0.00     0.024 A 
HETATM   26  C   UNL     1     -39.947  51.449 -54.415  1.00  0.00     0.010 A 
ENDBRANCH  19  20
ENDBRANCH  16  19
ENDBRANCH   2  15
BRANCH   1  27
HETATM   27  C   UNL     1     -44.123  57.509 -56.547  1.00  0.00     0.045 A 
HETATM   28  C   UNL     1     -43.732  56.901 -57.755  1.00  0.00     0.066 A 
HETATM   29  C   UNL     1     -44.509  56.977 -58.919  1.00  0.00     0.070 A 
HETATM   30  C   UNL     1     -45.707  57.683 -58.896  1.00  0.00     0.037 A 
HETATM   31  C   UNL     1     -46.115  58.303 -57.718  1.00  0.00     0.005 A 
HETATM   32  C   UNL     1     -45.332  58.220 -56.560  1.00  0.00     0.030 A 
BRANCH  29  33
HETATM   33  O   UNL     1     -43.977  56.334 -60.004  1.00  0.00    -0.356 OA
HETATM   34  C   UNL     1     -44.836  55.458 -60.721  1.00  0.00     0.210 C 
ENDBRANCH  29  33
ENDBRANCH   1  27
TORSDOF 6
ENDMDL
MODEL 2
REMARK VINA RESULT:      -8.6      3.488      7.042
REMARK  6 active torsions:
REMARK  status: ('A' for Active; 'I' for Inactive)
REMARK    1  A    between atoms: O_2  and  C_3 
REMARK    2  A    between atoms: C_5  and  N_6 
REMARK    3  A    between atoms: C_7  and  O_8 
REMARK    4  A    between atoms: C_7  and  C_9 
REMARK       I    between atoms: C_9  and  N_10 
REMARK    5  A    between atoms: N_10  and  C_11 
REMARK    6  A    between atoms: C_11  and  C_12 
ROOT
HETATM    1  N   UNL     1     -42.446  55.106 -52.100  1.00  0.00    -0.254 N 
HETATM    2  C   UNL     1     -42.446  56.174 -53.115  1.00  0.00     0.256 C 
HETATM    3  C   UNL     1     -43.181  57.428 -52.676  1.00  0.00     0.034 A 
HETATM    4  C   UNL     1     -44.160  57.307 -51.703  1.00  0.00     0.048 A 
HETATM    5  N   UNL     1     -44.353  56.073 -51.106  1.00  0.00    -0.308 N 
HETATM    6  C   UNL     1     -43.537  54.989 -51.243  1.00  0.00     0.330 C 
HETATM    7  O   UNL     1     -43.858  53.976 -50.622  1.00  0.00    -0.246 OA
HETATM    8  C   UNL     1     -42.987  58.682 -53.280  1.00  0.00     0.015 A 
HETATM    9  C   UNL     1     -43.759  59.782 -52.898  1.00  0.00     0.001 A 
HETATM   10  C   UNL     1     -44.742  59.636 -51.922  1.00  0.00     0.002 A 
HETATM   11  C   UNL     1     -44.950  58.394 -51.325  1.00  0.00     0.030 A 
HETATM   12  H   UNL     1     -45.086  55.953 -50.417  1.00  0.00     0.170 HD
ENDROOT
BRANCH   2  13
HETATM   13  O   UNL     1     -41.096  56.594 -53.349  1.00  0.00    -0.359 OA
HETATM   14  H   UNL     1     -40.676  55.844 -53.812  1.00  0.00     0.213 HD
ENDBRANCH   2  13
BRANCH   2  15
HETATM   15  C   UNL     1     -43.101  55.662 -54.465  1.00  0.00     0.279 C 
HETATM   16  N   UNL     1     -42.409  55.896 -55.633  1.00  0.00    -0.352 N 
HETATM   17  H   UNL     1     -41.672  56.591 -55.631  1.00  0.00     0.162 HD
HETATM   18  O   UNL     1     -44.152  55.012 -54.439  1.00  0.00    -0.268 OA
BRANCH  16  19
HETATM   19  C   UNL     1     -42.927  55.483 -56.914  1.00  0.00     0.161 C 
BRANCH  19  20
HETATM   20  C   UNL     1     -42.686  56.554 -57.944  1.00  0.00    -0.040 A 
HETATM   21  C   UNL     1     -42.774  56.251 -59.311  1.00  0.00     0.010 A 
HETATM   22  C   UNL     1     -42.516  57.231 -60.272  1.00  0.00     0.024 A 
HETATM   23  C   UNL     1     -42.159  58.517 -59.870  1.00  0.00     0.034 A 
HETATM   24 CL   UNL     1     -41.838  59.724 -61.053  1.00  0.00    -0.084 Cl
HETATM   25  C   UNL     1     -42.055  58.829 -58.516  1.00  0.00     0.024 A 
HETATM   26  C   UNL     1     -42.314  57.849 -57.556  1.00  0.00     0.010 A 
ENDBRANCH  19  20
ENDBRANCH  16  19
ENDBRANCH   2  15
BRANCH   1  27
HETATM   27  C   UNL     1     -41.440  54.063 -52.130  1.00  0.00     0.045 A 
HETATM   28  C   UNL     1     -41.358  53.185 -53.227  1.00  0.00     0.066 A 
HETATM   29  C   UNL     1     -40.416  52.149 -53.289  1.00  0.00     0.070 A 
HETATM   30  C   UNL     1     -39.531  51.966 -52.233  1.00  0.00     0.037 A 
HETATM   31  C   UNL     1     -39.594  52.814 -51.131  1.00  0.00     0.005 A 
HETATM   32  C   UNL     1     -40.538  53.847 -51.079  1.00  0.00     0.030 A 
BRANCH  29  33
HETATM   33  O   UNL     1     -40.480  51.386 -54.424  1.00  0.00    -0.356 OA
HETATM   34  C   UNL     1     -39.865  50.105 -54.378  1.00  0.00     0.210 C 
ENDBRANCH  29  33
ENDBRANCH   1  27
TORSDOF 6
ENDMDL
MODEL 3
REMARK VINA RESULT:      -8.4      2.416      3.100
REMARK  6 active torsions:
REMARK  status: ('A' for Active; 'I' for Inactive)
REMARK    1  A    between atoms: O_2  and  C_3 
REMARK    2  A    between atoms: C_5  and  N_6 
REMARK    3  A    between atoms: C_7  and  O_8 
REMARK    4  A    between atoms: C_7  and  C_9 
REMARK       I    between atoms: C_9  and  N_10 
REMARK    5  A    between atoms: N_10  and  C_11 
REMARK    6  A    between atoms: C_11  and  C_12 
ROOT
HETATM    1  N   UNL     1     -43.085  58.293 -54.264  1.00  0.00    -0.254 N 
HETATM    2  C   UNL     1     -43.595  57.812 -52.967  1.00  0.00     0.256 C 
HETATM    3  C   UNL     1     -44.115  58.921 -52.072  1.00  0.00     0.034 A 
HETATM    4  C   UNL     1     -43.628  60.205 -52.267  1.00  0.00     0.048 A 
HETATM    5  N   UNL     1     -42.768  60.433 -53.328  1.00  0.00    -0.308 N 
HETATM    6  C   UNL     1     -42.497  59.553 -54.332  1.00  0.00     0.330 C 
HETATM    7  O   UNL     1     -41.718  59.936 -55.205  1.00  0.00    -0.246 OA
HETATM    8  C   UNL     1     -44.988  58.693 -50.993  1.00  0.00     0.015 A 
HETATM    9  C   UNL     1     -45.360  59.738 -50.146  1.00  0.00     0.001 A 
HETATM   10  C   UNL     1     -44.852  61.019 -50.356  1.00  0.00     0.002 A 
HETATM   11  C   UNL     1     -43.978  61.254 -51.416  1.00  0.00     0.030 A 
HETATM   12  H   UNL     1     -42.372  61.355 -53.468  1.00  0.00     0.170 HD
ENDROOT
BRANCH   2  13
HETATM   13  O   UNL     1     -44.722  56.958 -53.198  1.00  0.00    -0.359 OA
HETATM   14  H   UNL     1     -44.354  56.054 -53.215  1.00  0.00     0.213 HD
ENDBRANCH   2  13
BRANCH   2  15
HETATM   15  C   UNL     1     -42.466  57.026 -52.179  1.00  0.00     0.279 C 
HETATM   16  N   UNL     1     -42.705  55.701 -51.885  1.00  0.00    -0.352 N 
HETATM   17  H   UNL     1     -43.655  55.355 -51.937  1.00  0.00     0.162 HD
HETATM   18  O   UNL     1     -41.392  57.577 -51.918  1.00  0.00    -0.268 OA
BRANCH  16  19
HETATM   19  C   UNL     1     -41.748  54.904 -51.159  1.00  0.00     0.161 C 
BRANCH  19  20
HETATM   20  C   UNL     1     -41.252  53.773 -52.020  1.00  0.00    -0.040 A 
HETATM   21  C   UNL     1     -40.236  52.925 -51.553  1.00  0.00     0.010 A 
HETATM   22  C   UNL     1     -39.746  51.896 -52.361  1.00  0.00     0.024 A 
HETATM   23  C   UNL     1     -40.264  51.716 -53.642  1.00  0.00     0.034 A 
HETATM   24 CL   UNL     1     -39.658  50.451 -54.639  1.00  0.00    -0.084 Cl
HETATM   25  C   UNL     1     -41.263  52.559 -54.123  1.00  0.00     0.024 A 
HETATM   26  C   UNL     1     -41.754  53.587 -53.315  1.00  0.00     0.010 A 
ENDBRANCH  19  20
ENDBRANCH  16  19
ENDBRANCH   2  15
BRANCH   1  27
HETATM   27  C   UNL     1     -42.993  57.393 -55.396  1.00  0.00     0.045 A 
HETATM   28  C   UNL     1     -43.761  57.625 -56.553  1.00  0.00     0.066 A 
HETATM   29  C   UNL     1     -43.720  56.769 -57.663  1.00  0.00     0.070 A 
HETATM   30  C   UNL     1     -42.903  55.645 -57.630  1.00  0.00     0.037 A 
HETATM   31  C   UNL     1     -42.139  55.385 -56.496  1.00  0.00     0.005 A 
HETATM   32  C   UNL     1     -42.186  56.246 -55.392  1.00  0.00     0.030 A 
BRANCH  29  33
HETATM   33  O   UNL     1     -44.534  57.140 -58.700  1.00  0.00    -0.356 OA
HETATM   34  C   UNL     1     -44.937  56.118 -59.603  1.00  0.00     0.210 C 
ENDBRANCH  29  33
ENDBRANCH   1  27
TORSDOF 6
ENDMDL
MODEL 4
REMARK VINA RESULT:      -8.0      3.170      6.706
REMARK  6 active torsions:
REMARK  status: ('A' for Active; 'I' for Inactive)
REMARK    1  A    between atoms: O_2  and  C_3 
REMARK    2  A    between atoms: C_5  and  N_6 
REMARK    3  A    between atoms: C_7  and  O_8 
REMARK    4  A    between atoms: C_7  and  C_9 
REMARK       I    between atoms: C_9  and  N_10 
REMARK    5  A    between atoms: N_10  and  C_11 
REMARK    6  A    between atoms: C_11  and  C_12 
ROOT
HETATM    1  N   UNL     1     -42.553  56.183 -53.261  1.00  0.00    -0.254 N 
HETATM    2  C   UNL     1     -42.053  57.540 -52.973  1.00  0.00     0.256 C 
HETATM    3  C   UNL     1     -43.004  58.369 -52.129  1.00  0.00     0.034 A 
HETATM    4  C   UNL     1     -44.352  58.046 -52.150  1.00  0.00     0.048 A 
HETATM    5  N   UNL     1     -44.754  56.926 -52.857  1.00  0.00    -0.308 N 
HETATM    6  C   UNL     1     -43.924  55.982 -53.386  1.00  0.00     0.330 C 
HETATM    7  O   UNL     1     -44.462  55.041 -53.969  1.00  0.00    -0.246 OA
HETATM    8  C   UNL     1     -42.599  59.508 -51.410  1.00  0.00     0.015 A 
HETATM    9  C   UNL     1     -43.535  60.287 -50.726  1.00  0.00     0.001 A 
HETATM   10  C   UNL     1     -44.885  59.947 -50.767  1.00  0.00     0.002 A 
HETATM   11  C   UNL     1     -45.299  58.827 -51.485  1.00  0.00     0.030 A 
HETATM   12  H   UNL     1     -45.738  56.690 -52.915  1.00  0.00     0.170 HD
ENDROOT
BRANCH   2  13
HETATM   13  O   UNL     1     -40.854  57.439 -52.195  1.00  0.00    -0.359 OA
HETATM   14  H   UNL     1     -40.188  57.068 -52.806  1.00  0.00     0.213 HD
ENDBRANCH   2  13
BRANCH   2  15
HETATM   15  C   UNL     1     -41.767  58.328 -54.318  1.00  0.00     0.279 C 
HETATM   16  N   UNL     1     -42.533  58.004 -55.417  1.00  0.00    -0.352 N 
HETATM   17  H   UNL     1     -43.045  57.130 -55.412  1.00  0.00     0.162 HD
HETATM   18  O   UNL     1     -40.940  59.246 -54.337  1.00  0.00    -0.268 OA
BRANCH  16  19
HETATM   19  C   UNL     1     -42.341  58.652 -56.689  1.00  0.00     0.161 C 
BRANCH  19  20
HETATM   20  C   UNL     1     -42.898  57.800 -57.799  1.00  0.00    -0.040 A 
HETATM   21  C   UNL     1     -43.362  58.396 -58.981  1.00  0.00     0.010 A 
HETATM   22  C   UNL     1     -43.914  57.614 -59.999  1.00  0.00     0.024 A 
HETATM   23  C   UNL     1     -44.012  56.234 -59.835  1.00  0.00     0.034 A 
HETATM   24 CL   UNL     1     -44.694  55.271 -61.087  1.00  0.00    -0.084 Cl
HETATM   25  C   UNL     1     -43.567  55.630 -58.661  1.00  0.00     0.024 A 
HETATM   26  C   UNL     1     -43.015  56.412 -57.644  1.00  0.00     0.010 A 
ENDBRANCH  19  20
ENDBRANCH  16  19
ENDBRANCH   2  15
BRANCH   1  27
HETATM   27  C   UNL     1     -41.634  55.124 -53.624  1.00  0.00     0.045 A 
HETATM   28  C   UNL     1     -41.281  54.134 -52.687  1.00  0.00     0.066 A 
HETATM   29  C   UNL     1     -40.379  53.104 -52.989  1.00  0.00     0.070 A 
HETATM   30  C   UNL     1     -39.800  53.050 -54.251  1.00  0.00     0.037 A 
HETATM   31  C   UNL     1     -40.123  54.020 -55.196  1.00  0.00     0.005 A 
HETATM   32  C   UNL     1     -41.026  55.045 -54.886  1.00  0.00     0.030 A 
BRANCH  29  33
HETATM   33  O   UNL     1     -40.144  52.232 -51.960  1.00  0.00    -0.356 OA
HETATM   34  C   UNL     1     -40.309  52.731 -50.639  1.00  0.00     0.210 C 
ENDBRANCH  29  33
ENDBRANCH   1  27
TORSDOF 6
ENDMDL
MODEL 5
REMARK VINA RESULT:      -7.9      3.564      7.136
REMARK  6 active torsions:
REMARK  status: ('A' for Active; 'I' for Inactive)
REMARK    1  A    between atoms: O_2  and  C_3 
REMARK    2  A    between atoms: C_5  and  N_6 
REMARK    3  A    between atoms: C_7  and  O_8 
REMARK    4  A    between atoms: C_7  and  C_9 
REMARK       I    between atoms: C_9  and  N_10 
REMARK    5  A    between atoms: N_10  and  C_11 
REMARK    6  A    between atoms: C_11  and  C_12 
ROOT
HETATM    1  N   UNL     1     -42.883  56.339 -51.649  1.00  0.00    -0.254 N 
HETATM    2  C   UNL     1     -42.747  57.132 -52.884  1.00  0.00     0.256 C 
HETATM    3  C   UNL     1     -43.613  58.378 -52.903  1.00  0.00     0.034 A 
HETATM    4  C   UNL     1     -44.750  58.399 -52.110  1.00  0.00     0.048 A 
HETATM    5  N   UNL     1     -44.989  57.328 -51.266  1.00  0.00    -0.308 N 
HETATM    6  C   UNL     1     -44.108  56.326 -50.988  1.00  0.00     0.330 C 
HETATM    7  O   UNL     1     -44.488  55.463 -50.196  1.00  0.00    -0.246 OA
HETATM    8  C   UNL     1     -43.374  59.467 -53.760  1.00  0.00     0.015 A 
HETATM    9  C   UNL     1     -44.258  60.547 -53.800  1.00  0.00     0.001 A 
HETATM   10  C   UNL     1     -45.398  60.544 -53.000  1.00  0.00     0.002 A 
HETATM   11  C   UNL     1     -45.651  59.465 -52.155  1.00  0.00     0.030 A 
HETATM   12  H   UNL     1     -45.832  57.306 -50.703  1.00  0.00     0.170 HD
ENDROOT
BRANCH   2  13
HETATM   13  O   UNL     1     -41.400  57.611 -52.983  1.00  0.00    -0.359 OA
HETATM   14  H   UNL     1     -41.466  58.576 -52.849  1.00  0.00     0.213 HD
ENDBRANCH   2  13
BRANCH   2  15
HETATM   15  C   UNL     1     -43.111  56.255 -54.154  1.00  0.00     0.279 C 
HETATM   16  N   UNL     1     -42.157  56.146 -55.142  1.00  0.00    -0.352 N 
HETATM   17  H   UNL     1     -41.394  56.812 -55.157  1.00  0.00     0.162 HD
HETATM   18  O   UNL     1     -44.181  55.640 -54.198  1.00  0.00    -0.268 OA
BRANCH  16  19
HETATM   19  C   UNL     1     -42.396  55.384 -56.341  1.00  0.00     0.161 C 
BRANCH  19  20
HETATM   20  C   UNL     1     -42.734  56.303 -57.485  1.00  0.00    -0.040 A 
HETATM   21  C   UNL     1     -42.462  57.677 -57.389  1.00  0.00     0.010 A 
HETATM   22  C   UNL     1     -42.807  58.541 -58.431  1.00  0.00     0.024 A 
HETATM   23  C   UNL     1     -43.434  58.037 -59.570  1.00  0.00     0.034 A 
HETATM   24 CL   UNL     1     -43.861  59.101 -60.851  1.00  0.00    -0.084 Cl
HETATM   25  C   UNL     1     -43.722  56.678 -59.672  1.00  0.00     0.024 A 
HETATM   26  C   UNL     1     -43.376  55.814 -58.631  1.00  0.00     0.010 A 
ENDBRANCH  19  20
ENDBRANCH  16  19
ENDBRANCH   2  15
BRANCH   1  27
HETATM   27  C   UNL     1     -41.838  55.419 -51.247  1.00  0.00     0.045 A 
HETATM   28  C   UNL     1     -41.561  54.276 -52.020  1.00  0.00     0.066 A 
HETATM   29  C   UNL     1     -40.574  53.348 -51.658  1.00  0.00     0.070 A 
HETATM   30  C   UNL     1     -39.842  53.548 -50.493  1.00  0.00     0.037 A 
HETATM   31  C   UNL     1     -40.101  54.666 -49.703  1.00  0.00     0.005 A 
HETATM   32  C   UNL     1     -41.088  55.587 -50.074  1.00  0.00     0.030 A 
BRANCH  29  33
HETATM   33  O   UNL     1     -40.440  52.291 -52.518  1.00  0.00    -0.356 OA
HETATM   34  C   UNL     1     -39.357  51.401 -52.285  1.00  0.00     0.210 C 
ENDBRANCH  29  33
ENDBRANCH   1  27
TORSDOF 6
ENDMDL
MODEL 6
REMARK VINA RESULT:      -7.8      3.857      7.453
REMARK  6 active torsions:
REMARK  status: ('A' for Active; 'I' for Inactive)
REMARK    1  A    between atoms: O_2  and  C_3 
REMARK    2  A    between atoms: C_5  and  N_6 
REMARK    3  A    between atoms: C_7  and  O_8 
REMARK    4  A    between atoms: C_7  and  C_9 
REMARK       I    between atoms: C_9  and  N_10 
REMARK    5  A    between atoms: N_10  and  C_11 
REMARK    6  A    between atoms: C_11  and  C_12 
ROOT
HETATM    1  N   UNL     1     -42.662  56.574 -52.020  1.00  0.00    -0.254 N 
HETATM    2  C   UNL     1     -42.396  57.437 -53.185  1.00  0.00     0.256 C 
HETATM    3  C   UNL     1     -42.885  58.863 -53.007  1.00  0.00     0.034 A 
HETATM    4  C   UNL     1     -43.917  59.096 -52.112  1.00  0.00     0.048 A 
HETATM    5  N   UNL     1     -44.385  58.038 -51.350  1.00  0.00    -0.308 N 
HETATM    6  C   UNL     1     -43.797  56.812 -51.250  1.00  0.00     0.330 C 
HETATM    7  O   UNL     1     -44.346  55.997 -50.508  1.00  0.00    -0.246 OA
HETATM    8  C   UNL     1     -42.413  59.938 -53.780  1.00  0.00     0.015 A 
HETATM    9  C   UNL     1     -42.966  61.213 -53.638  1.00  0.00     0.001 A 
HETATM   10  C   UNL     1     -44.008  61.422 -52.736  1.00  0.00     0.002 A 
HETATM   11  C   UNL     1     -44.491  60.361 -51.973  1.00  0.00     0.030 A 
HETATM   12  H   UNL     1     -45.161  58.177 -50.714  1.00  0.00     0.170 HD
ENDROOT
BRANCH   2  13
HETATM   13  O   UNL     1     -40.979  57.548 -53.368  1.00  0.00    -0.359 OA
HETATM   14  H   UNL     1     -40.777  56.966 -54.126  1.00  0.00     0.213 HD
ENDBRANCH   2  13
BRANCH   2  15
HETATM   15  C   UNL     1     -43.070  56.839 -54.489  1.00  0.00     0.279 C 
HETATM   16  N   UNL     1     -42.265  56.660 -55.593  1.00  0.00    -0.352 N 
HETATM   17  H   UNL     1     -41.375  57.140 -55.628  1.00  0.00     0.162 HD
HETATM   18  O   UNL     1     -44.254  56.483 -54.470  1.00  0.00    -0.268 OA
BRANCH  16  19
HETATM   19  C   UNL     1     -42.786  56.136 -56.831  1.00  0.00     0.161 C 
BRANCH  19  20
HETATM   20  C   UNL     1     -42.529  57.104 -57.955  1.00  0.00    -0.040 A 
HETATM   21  C   UNL     1     -42.331  58.467 -57.682  1.00  0.00     0.010 A 
HETATM   22  C   UNL     1     -42.129  59.376 -58.723  1.00  0.00     0.024 A 
HETATM   23  C   UNL     1     -42.133  58.928 -60.043  1.00  0.00     0.034 A 
HETATM   24 CL   UNL     1     -41.887  60.047 -61.326  1.00  0.00    -0.084 Cl
HETATM   25  C   UNL     1     -42.342  57.580 -60.329  1.00  0.00     0.024 A 
HETATM   26  C   UNL     1     -42.543  56.672 -59.288  1.00  0.00     0.010 A 
ENDBRANCH  19  20
ENDBRANCH  16  19
ENDBRANCH   2  15
BRANCH   1  27
HETATM   27  C   UNL     1     -41.886  55.369 -51.806  1.00  0.00     0.045 A 
HETATM   28  C   UNL     1     -41.090  55.230 -50.653  1.00  0.00     0.066 A 
HETATM   29  C   UNL     1     -40.307  54.092 -50.415  1.00  0.00     0.070 A 
HETATM   30  C   UNL     1     -40.302  53.060 -51.347  1.00  0.00     0.037 A 
HETATM   31  C   UNL     1     -41.072  53.173 -52.501  1.00  0.00     0.005 A 
HETATM   32  C   UNL     1     -41.852  54.314 -52.729  1.00  0.00     0.030 A 
BRANCH  29  33
HETATM   33  O   UNL     1     -39.590  54.126 -49.250  1.00  0.00    -0.356 OA
HETATM   34  C   UNL     1     -40.324  54.031 -48.036  1.00  0.00     0.210 C 
ENDBRANCH  29  33
ENDBRANCH   1  27
TORSDOF 6
ENDMDL
MODEL 7
REMARK VINA RESULT:      -7.8      3.287      6.272
REMARK  6 active torsions:
REMARK  status: ('A' for Active; 'I' for Inactive)
REMARK    1  A    between atoms: O_2  and  C_3 
REMARK    2  A    between atoms: C_5  and  N_6 
REMARK    3  A    between atoms: C_7  and  O_8 
REMARK    4  A    between atoms: C_7  and  C_9 
REMARK       I    between atoms: C_9  and  N_10 
REMARK    5  A    between atoms: N_10  and  C_11 
REMARK    6  A    between atoms: C_11  and  C_12 
ROOT
HETATM    1  N   UNL     1     -42.494  56.552 -50.649  1.00  0.00    -0.254 N 
HETATM    2  C   UNL     1     -41.850  57.656 -51.383  1.00  0.00     0.256 C 
HETATM    3  C   UNL     1     -42.692  58.917 -51.444  1.00  0.00     0.034 A 
HETATM    4  C   UNL     1     -44.067  58.794 -51.312  1.00  0.00     0.048 A 
HETATM    5  N   UNL     1     -44.598  57.547 -51.032  1.00  0.00    -0.308 N 
HETATM    6  C   UNL     1     -43.882  56.442 -50.678  1.00  0.00     0.330 C 
HETATM    7  O   UNL     1     -44.526  55.419 -50.448  1.00  0.00    -0.246 OA
HETATM    8  C   UNL     1     -42.157  60.185 -51.729  1.00  0.00     0.015 A 
HETATM    9  C   UNL     1     -42.993  61.296 -51.864  1.00  0.00     0.001 A 
HETATM   10  C   UNL     1     -44.372  61.148 -51.734  1.00  0.00     0.002 A 
HETATM   11  C   UNL     1     -44.914  59.893 -51.463  1.00  0.00     0.030 A 
HETATM   12  H   UNL     1     -45.602  57.427 -50.966  1.00  0.00     0.170 HD
ENDROOT
BRANCH   2  13
HETATM   13  O   UNL     1     -40.653  58.038 -50.694  1.00  0.00    -0.359 OA
HETATM   14  H   UNL     1     -40.600  59.007 -50.802  1.00  0.00     0.213 HD
ENDBRANCH   2  13
BRANCH   2  15
HETATM   15  C   UNL     1     -41.508  57.215 -52.868  1.00  0.00     0.279 C 
HETATM   16  N   UNL     1     -42.401  56.379 -53.501  1.00  0.00    -0.352 N 
HETATM   17  H   UNL     1     -43.077  55.875 -52.941  1.00  0.00     0.162 HD
HETATM   18  O   UNL     1     -40.516  57.678 -53.441  1.00  0.00    -0.268 OA
BRANCH  16  19
HETATM   19  C   UNL     1     -42.174  55.910 -54.845  1.00  0.00     0.161 C 
BRANCH  19  20
HETATM   20  C   UNL     1     -41.567  54.532 -54.821  1.00  0.00    -0.040 A 
HETATM   21  C   UNL     1     -42.376  53.409 -54.585  1.00  0.00     0.010 A 
HETATM   22  C   UNL     1     -41.813  52.132 -54.525  1.00  0.00     0.024 A 
HETATM   23  C   UNL     1     -40.439  51.972 -54.692  1.00  0.00     0.034 A 
HETATM   24 CL   UNL     1     -39.746  50.400 -54.615  1.00  0.00    -0.084 Cl
HETATM   25  C   UNL     1     -39.623  53.079 -54.914  1.00  0.00     0.024 A 
HETATM   26  C   UNL     1     -40.185  54.356 -54.974  1.00  0.00     0.010 A 
ENDBRANCH  19  20
ENDBRANCH  16  19
ENDBRANCH   2  15
BRANCH   1  27
HETATM   27  C   UNL     1     -41.698  55.478 -50.091  1.00  0.00     0.045 A 
HETATM   28  C   UNL     1     -41.268  54.413 -50.905  1.00  0.00     0.066 A 
HETATM   29  C   UNL     1     -40.515  53.343 -50.403  1.00  0.00     0.070 A 
HETATM   30  C   UNL     1     -40.181  53.315 -49.053  1.00  0.00     0.037 A 
HETATM   31  C   UNL     1     -40.601  54.350 -48.221  1.00  0.00     0.005 A 
HETATM   32  C   UNL     1     -41.352  55.416 -48.733  1.00  0.00     0.030 A 
BRANCH  29  33
HETATM   33  O   UNL     1     -40.187  52.391 -51.330  1.00  0.00    -0.356 OA
HETATM   34  C   UNL     1     -39.939  51.077 -50.848  1.00  0.00     0.210 C 
ENDBRANCH  29  33
ENDBRANCH   1  27
TORSDOF 6
ENDMDL
MODEL 8
REMARK VINA RESULT:      -7.7     15.194     17.377
REMARK  6 active torsions:
REMARK  status: ('A' for Active; 'I' for Inactive)
REMARK    1  A    between atoms: O_2  and  C_3 
REMARK    2  A    between atoms: C_5  and  N_6 
REMARK    3  A    between atoms: C_7  and  O_8 
REMARK    4  A    between atoms: C_7  and  C_9 
REMARK       I    between atoms: C_9  and  N_10 
REMARK    5  A    between atoms: N_10  and  C_11 
REMARK    6  A    between atoms: C_11  and  C_12 
ROOT
HETATM    1  N   UNL     1     -36.232  40.708 -53.163  1.00  0.00    -0.254 N 
HETATM    2  C   UNL     1     -35.622  39.380 -53.349  1.00  0.00     0.256 C 
HETATM    3  C   UNL     1     -34.445  39.119 -52.426  1.00  0.00     0.034 A 
HETATM    4  C   UNL     1     -33.751  40.209 -51.924  1.00  0.00     0.048 A 
HETATM    5  N   UNL     1     -34.221  41.481 -52.206  1.00  0.00    -0.308 N 
HETATM    6  C   UNL     1     -35.424  41.773 -52.775  1.00  0.00     0.330 C 
HETATM    7  O   UNL     1     -35.682  42.966 -52.934  1.00  0.00    -0.246 OA
HETATM    8  C   UNL     1     -33.966  37.829 -52.139  1.00  0.00     0.015 A 
HETATM    9  C   UNL     1     -32.821  37.654 -51.357  1.00  0.00     0.001 A 
HETATM   10  C   UNL     1     -32.135  38.764 -50.869  1.00  0.00     0.002 A 
HETATM   11  C   UNL     1     -32.596  40.047 -51.157  1.00  0.00     0.030 A 
HETATM   12  H   UNL     1     -33.710  42.293 -51.879  1.00  0.00     0.170 HD
ENDROOT
BRANCH   2  13
HETATM   13  O   UNL     1     -36.587  38.374 -53.017  1.00  0.00    -0.359 OA
HETATM   14  H   UNL     1     -36.783  38.515 -52.071  1.00  0.00     0.213 HD
ENDBRANCH   2  13
BRANCH   2  15
HETATM   15  C   UNL     1     -35.130  39.194 -54.845  1.00  0.00     0.279 C 
HETATM   16  N   UNL     1     -36.051  38.734 -55.761  1.00  0.00    -0.352 N 
HETATM   17  H   UNL     1     -36.896  38.292 -55.421  1.00  0.00     0.162 HD
HETATM   18  O   UNL     1     -33.986  39.528 -55.169  1.00  0.00    -0.268 OA
BRANCH  16  19
HETATM   19  C   UNL     1     -35.699  38.518 -57.142  1.00  0.00     0.161 C 
BRANCH  19  20
HETATM   20  C   UNL     1     -36.211  39.649 -57.994  1.00  0.00    -0.040 A 
HETATM   21  C   UNL     1     -36.844  39.380 -59.217  1.00  0.00     0.010 A 
HETATM   22  C   UNL     1     -37.289  40.426 -60.029  1.00  0.00     0.024 A 
HETATM   23  C   UNL     1     -37.095  41.745 -59.626  1.00  0.00     0.034 A 
HETATM   24 CL   UNL     1     -37.640  43.033 -60.628  1.00  0.00    -0.084 Cl
HETATM   25  C   UNL     1     -36.456  42.027 -58.421  1.00  0.00     0.024 A 
HETATM   26  C   UNL     1     -36.012  40.982 -57.608  1.00  0.00     0.010 A 
ENDBRANCH  19  20
ENDBRANCH  16  19
ENDBRANCH   2  15
BRANCH   1  27
HETATM   27  C   UNL     1     -37.596  40.956 -53.587  1.00  0.00     0.045 A 
HETATM   28  C   UNL     1     -38.641  40.979 -52.645  1.00  0.00     0.066 A 
HETATM   29  C   UNL     1     -39.977  41.193 -53.012  1.00  0.00     0.070 A 
HETATM   30  C   UNL     1     -40.295  41.384 -54.352  1.00  0.00     0.037 A 
HETATM   31  C   UNL     1     -39.283  41.358 -55.308  1.00  0.00     0.005 A 
HETATM   32  C   UNL     1     -37.951  41.144 -54.930  1.00  0.00     0.030 A 
BRANCH  29  33
HETATM   33  O   UNL     1     -40.865  41.177 -51.970  1.00  0.00    -0.356 OA
HETATM   34  C   UNL     1     -41.574  39.965 -51.745  1.00  0.00     0.210 C 
ENDBRANCH  29  33
ENDBRANCH   1  27
TORSDOF 6
ENDMDL
MODEL 9
REMARK VINA RESULT:      -7.6      3.212      6.598
REMARK  6 active torsions:
REMARK  status: ('A' for Active; 'I' for Inactive)
REMARK    1  A    between atoms: O_2  and  C_3 
REMARK    2  A    between atoms: C_5  and  N_6 
REMARK    3  A    between atoms: C_7  and  O_8 
REMARK    4  A    between atoms: C_7  and  C_9 
REMARK       I    between atoms: C_9  and  N_10 
REMARK    5  A    between atoms: N_10  and  C_11 
REMARK    6  A    between atoms: C_11  and  C_12 
ROOT
HETATM    1  N   UNL     1     -42.348  57.111 -51.562  1.00  0.00    -0.254 N 
HETATM    2  C   UNL     1     -41.660  58.414 -51.589  1.00  0.00     0.256 C 
HETATM    3  C   UNL     1     -42.504  59.556 -51.052  1.00  0.00     0.034 A 
HETATM    4  C   UNL     1     -43.884  59.425 -51.089  1.00  0.00     0.048 A 
HETATM    5  N   UNL     1     -44.425  58.226 -51.519  1.00  0.00    -0.308 N 
HETATM    6  C   UNL     1     -43.729  57.073 -51.732  1.00  0.00     0.330 C 
HETATM    7  O   UNL     1     -44.381  56.096 -52.098  1.00  0.00    -0.246 OA
HETATM    8  C   UNL     1     -41.958  60.776 -50.616  1.00  0.00     0.015 A 
HETATM    9  C   UNL     1     -42.789  61.825 -50.219  1.00  0.00     0.001 A 
HETATM   10  C   UNL     1     -44.173  61.675 -50.271  1.00  0.00     0.002 A 
HETATM   11  C   UNL     1     -44.725  60.474 -50.713  1.00  0.00     0.030 A 
HETATM   12  H   UNL     1     -45.430  58.120 -51.588  1.00  0.00     0.170 HD
ENDROOT
BRANCH   2  13
HETATM   13  O   UNL     1     -40.518  58.356 -50.726  1.00  0.00    -0.359 OA
HETATM   14  H   UNL     1     -40.247  57.417 -50.730  1.00  0.00     0.213 HD
ENDBRANCH   2  13
BRANCH   2  15
HETATM   15  C   UNL     1     -41.212  58.780 -53.065  1.00  0.00     0.279 C 
HETATM   16  N   UNL     1     -42.190  58.810 -54.035  1.00  0.00    -0.352 N 
HETATM   17  H   UNL     1     -43.076  58.358 -53.846  1.00  0.00     0.162 HD
HETATM   18  O   UNL     1     -40.040  59.097 -53.298  1.00  0.00    -0.268 OA
BRANCH  16  19
HETATM   19  C   UNL     1     -41.882  59.118 -55.409  1.00  0.00     0.161 C 
BRANCH  19  20
HETATM   20  C   UNL     1     -42.434  58.052 -56.318  1.00  0.00    -0.040 A 
HETATM   21  C   UNL     1     -42.370  56.702 -55.943  1.00  0.00     0.010 A 
HETATM   22  C   UNL     1     -42.848  55.706 -56.798  1.00  0.00     0.024 A 
HETATM   23  C   UNL     1     -43.384  56.055 -58.036  1.00  0.00     0.034 A 
HETATM   24 CL   UNL     1     -43.969  54.829 -59.090  1.00  0.00    -0.084 Cl
HETATM   25  C   UNL     1     -43.442  57.391 -58.427  1.00  0.00     0.024 A 
HETATM   26  C   UNL     1     -42.965  58.387 -57.572  1.00  0.00     0.010 A 
ENDBRANCH  19  20
ENDBRANCH  16  19
ENDBRANCH   2  15
BRANCH   1  27
HETATM   27  C   UNL     1     -41.586  55.878 -51.580  1.00  0.00     0.045 A 
HETATM   28  C   UNL     1     -41.256  55.262 -52.802  1.00  0.00     0.066 A 
HETATM   29  C   UNL     1     -40.540  54.059 -52.866  1.00  0.00     0.070 A 
HETATM   30  C   UNL     1     -40.143  53.437 -51.687  1.00  0.00     0.037 A 
HETATM   31  C   UNL     1     -40.464  54.017 -50.463  1.00  0.00     0.005 A 
HETATM   32  C   UNL     1     -41.178  55.221 -50.410  1.00  0.00     0.030 A 
BRANCH  29  33
HETATM   33  O   UNL     1     -40.311  53.597 -54.134  1.00  0.00    -0.356 OA
HETATM   34  C   UNL     1     -40.198  52.190 -54.299  1.00  0.00     0.210 C 
ENDBRANCH  29  33
ENDBRANCH   1  27
TORSDOF 6
ENDMDL
MODEL 10
REMARK VINA RESULT:      -7.5      2.279      5.827
REMARK  6 active torsions:
REMARK  status: ('A' for Active; 'I' for Inactive)
REMARK    1  A    between atoms: O_2  and  C_3 
REMARK    2  A    between atoms: C_5  and  N_6 
REMARK    3  A    between atoms: C_7  and  O_8 
REMARK    4  A    between atoms: C_7  and  C_9 
REMARK       I    between atoms: C_9  and  N_10 
REMARK    5  A    between atoms: N_10  and  C_11 
REMARK    6  A    between atoms: C_11  and  C_12 
ROOT
HETATM    1  N   UNL     1     -43.523  59.221 -53.606  1.00  0.00    -0.254 N 
HETATM    2  C   UNL     1     -43.129  58.968 -55.004  1.00  0.00     0.256 C 
HETATM    3  C   UNL     1     -43.895  59.806 -56.011  1.00  0.00     0.034 A 
HETATM    4  C   UNL     1     -45.145  60.285 -55.650  1.00  0.00     0.048 A 
HETATM    5  N   UNL     1     -45.593  60.062 -54.360  1.00  0.00    -0.308 N 
HETATM    6  C   UNL     1     -44.840  59.579 -53.331  1.00  0.00     0.330 C 
HETATM    7  O   UNL     1     -45.403  59.463 -52.243  1.00  0.00    -0.246 OA
HETATM    8  C   UNL     1     -43.443  60.034 -57.323  1.00  0.00     0.015 A 
HETATM    9  C   UNL     1     -44.234  60.735 -58.235  1.00  0.00     0.001 A 
HETATM   10  C   UNL     1     -45.490  61.201 -57.854  1.00  0.00     0.002 A 
HETATM   11  C   UNL     1     -45.952  60.972 -56.559  1.00  0.00     0.030 A 
HETATM   12  H   UNL     1     -46.517  60.373 -54.084  1.00  0.00     0.170 HD
ENDROOT
BRANCH   2  13
HETATM   13  O   UNL     1     -41.755  59.340 -55.175  1.00  0.00    -0.359 OA
HETATM   14  H   UNL     1     -41.248  58.530 -54.972  1.00  0.00     0.213 HD
ENDBRANCH   2  13
BRANCH   2  15
HETATM   15  C   UNL     1     -43.331  57.440 -55.374  1.00  0.00     0.279 C 
HETATM   16  N   UNL     1     -42.216  56.728 -55.758  1.00  0.00    -0.352 N 
HETATM   17  H   UNL     1     -41.388  57.237 -56.041  1.00  0.00     0.162 HD
HETATM   18  O   UNL     1     -44.440  56.910 -55.240  1.00  0.00    -0.268 OA
BRANCH  16  19
HETATM   19  C   UNL     1     -42.298  55.337 -56.128  1.00  0.00     0.161 C 
BRANCH  19  20
HETATM   20  C   UNL     1     -41.710  54.474 -55.043  1.00  0.00    -0.040 A 
HETATM   21  C   UNL     1     -42.377  54.329 -53.817  1.00  0.00     0.010 A 
HETATM   22  C   UNL     1     -41.819  53.559 -52.794  1.00  0.00     0.024 A 
HETATM   23  C   UNL     1     -40.587  52.937 -52.989  1.00  0.00     0.034 A 
HETATM   24 CL   UNL     1     -39.898  51.992 -51.728  1.00  0.00    -0.084 Cl
HETATM   25  C   UNL     1     -39.908  53.083 -54.196  1.00  0.00     0.024 A 
HETATM   26  C   UNL     1     -40.466  53.852 -55.220  1.00  0.00     0.010 A 
ENDBRANCH  19  20
ENDBRANCH  16  19
ENDBRANCH   2  15
BRANCH   1  27
HETATM   27  C   UNL     1     -42.624  58.893 -52.518  1.00  0.00     0.045 A 
HETATM   28  C   UNL     1     -42.655  57.615 -51.929  1.00  0.00     0.066 A 
HETATM   29  C   UNL     1     -41.819  57.261 -50.861  1.00  0.00     0.070 A 
HETATM   30  C   UNL     1     -40.928  58.199 -50.351  1.00  0.00     0.037 A 
HETATM   31  C   UNL     1     -40.881  59.474 -50.908  1.00  0.00     0.005 A 
HETATM   32  C   UNL     1     -41.719  59.817 -51.975  1.00  0.00     0.030 A 
BRANCH  29  33
HETATM   33  O   UNL     1     -41.986  55.981 -50.405  1.00  0.00    -0.356 OA
HETATM   34  C   UNL     1     -40.924  55.423 -49.643  1.00  0.00     0.210 C 
ENDBRANCH  29  33
ENDBRANCH   1  27
TORSDOF 6
ENDMDL
