MODEL 1
REMARK VINA RESULT:      -8.5      0.000      0.000
REMARK  8 active torsions:
REMARK  status: ('A' for Active; 'I' for Inactive)
REMARK    1  A    between atoms: C_2  and  C_3 
REMARK    2  A    between atoms: C_4  and  O_5 
REMARK    3  A    between atoms: N_10  and  N_11 
REMARK       I    between atoms: N_11  and  C_12 
REMARK    4  A    between atoms: C_12  and  C_13 
REMARK    5  A    between atoms: C_13  and  N_14 
REMARK       I    between atoms: N_14  and  C_15 
REMARK    6  A    between atoms: C_15  and  C_16 
REMARK    7  A    between atoms: C_16  and  N_17 
REMARK       I    between atoms: N_17  and  C_18 
REMARK    8  A    between atoms: C_18  and  C_19 
ROOT
HETATM    1  C   UNL     1     -42.281  58.279 -51.569  1.00  0.00     0.227 C 
ENDROOT
BRANCH   1   2
HETATM    2  C   UNL     1     -41.709  56.862 -51.494  1.00  0.00     0.255 C 
HETATM    3  N   UNL     1     -42.130  56.015 -52.506  1.00  0.00    -0.246 N 
HETATM    4  H   UNL     1     -42.643  56.395 -53.297  1.00  0.00     0.192 HD
HETATM    5  O   UNL     1     -41.029  56.503 -50.531  1.00  0.00    -0.270 OA
BRANCH   3   6
HETATM    6  N   UNL     1     -41.718  54.717 -52.490  1.00  0.00    -0.176 NA
HETATM    7  C   UNL     1     -40.915  54.282 -53.417  1.00  0.00     0.064 C 
HETATM    8  C   UNL     1     -40.446  55.122 -54.580  1.00  0.00     0.073 C 
BRANCH   7   9
HETATM    9  C   UNL     1     -40.453  52.861 -53.327  1.00  0.00     0.023 A 
HETATM   10  C   UNL     1     -39.911  52.362 -52.132  1.00  0.00     0.077 A 
HETATM   11  C   UNL     1     -39.510  51.029 -52.036  1.00  0.00     0.037 A 
HETATM   12  C   UNL     1     -39.624  50.185 -53.139  1.00  0.00     0.003 A 
HETATM   13  C   UNL     1     -40.132  50.675 -54.340  1.00  0.00     0.001 A 
HETATM   14  C   UNL     1     -40.543  52.008 -54.437  1.00  0.00     0.016 A 
BRANCH  10  15
HETATM   15  O   UNL     1     -39.745  53.120 -51.005  1.00  0.00    -0.360 OA
HETATM   16  H   UNL     1     -38.826  53.477 -51.007  1.00  0.00     0.217 HD
ENDBRANCH  10  15
ENDBRANCH   7   9
ENDBRANCH   3   6
ENDBRANCH   1   2
BRANCH   1  17
HETATM   17  N   UNL     1     -42.520  58.825 -52.896  1.00  0.00    -0.351 N 
HETATM   18  C   UNL     1     -41.515  59.411 -53.633  1.00  0.00     0.235 C 
HETATM   19  O   UNL     1     -40.329  59.364 -53.319  1.00  0.00    -0.272 OA
HETATM   20  H   UNL     1     -43.431  58.704 -53.334  1.00  0.00     0.163 HD
BRANCH  18  21
HETATM   21  C   UNL     1     -41.997  60.072 -54.925  1.00  0.00     0.225 C 
BRANCH  21  22
HETATM   22  N   UNL     1     -42.441  59.091 -55.891  1.00  0.00    -0.348 N 
HETATM   23  C   UNL     1     -42.012  59.114 -57.192  1.00  0.00     0.253 C 
HETATM   24  O   UNL     1     -41.333  60.052 -57.613  1.00  0.00    -0.268 OA
HETATM   25  H   UNL     1     -43.102  58.388 -55.578  1.00  0.00     0.163 HD
BRANCH  23  26
HETATM   26  C   UNL     1     -42.400  57.987 -58.105  1.00  0.00     0.053 A 
HETATM   27  C   UNL     1     -42.403  58.006 -59.510  1.00  0.00     0.049 A 
HETATM   28 CL   UNL     1     -41.977  59.377 -60.475  1.00  0.00    -0.083 Cl
HETATM   29  C   UNL     1     -42.770  56.857 -60.231  1.00  0.00     0.025 A 
HETATM   30  C   UNL     1     -43.135  55.685 -59.572  1.00  0.00     0.002 A 
HETATM   31  C   UNL     1     -43.150  55.654 -58.184  1.00  0.00     0.001 A 
HETATM   32  C   UNL     1     -42.795  56.795 -57.461  1.00  0.00     0.019 A 
ENDBRANCH  23  26
ENDBRANCH  21  22
ENDBRANCH  18  21
ENDBRANCH   1  17
TORSDOF 8
ENDMDL
MODEL 2
REMARK VINA RESULT:      -8.4      2.224      7.305
REMARK  8 active torsions:
REMARK  status: ('A' for Active; 'I' for Inactive)
REMARK    1  A    between atoms: C_2  and  C_3 
REMARK    2  A    between atoms: C_4  and  O_5 
REMARK    3  A    between atoms: N_10  and  N_11 
REMARK       I    between atoms: N_11  and  C_12 
REMARK    4  A    between atoms: C_12  and  C_13 
REMARK    5  A    between atoms: C_13  and  N_14 
REMARK       I    between atoms: N_14  and  C_15 
REMARK    6  A    between atoms: C_15  and  C_16 
REMARK    7  A    between atoms: C_16  and  N_17 
REMARK       I    between atoms: N_17  and  C_18 
REMARK    8  A    between atoms: C_18  and  C_19 
ROOT
HETATM    1  C   UNL     1     -41.152  58.177 -51.487  1.00  0.00     0.227 C 
ENDROOT
BRANCH   1   2
HETATM    2  C   UNL     1     -41.113  58.249 -53.014  1.00  0.00     0.255 C 
HETATM    3  N   UNL     1     -41.684  57.164 -53.659  1.00  0.00    -0.246 N 
HETATM    4  H   UNL     1     -42.216  56.484 -53.121  1.00  0.00     0.192 HD
HETATM    5  O   UNL     1     -40.507  59.154 -53.591  1.00  0.00    -0.270 OA
BRANCH   3   6
HETATM    6  N   UNL     1     -41.646  57.113 -55.019  1.00  0.00    -0.176 NA
HETATM    7  C   UNL     1     -42.755  57.045 -55.695  1.00  0.00     0.064 C 
HETATM    8  C   UNL     1     -44.120  56.952 -55.057  1.00  0.00     0.073 C 
BRANCH   7   9
HETATM    9  C   UNL     1     -42.661  57.041 -57.189  1.00  0.00     0.023 A 
HETATM   10  C   UNL     1     -42.218  58.180 -57.878  1.00  0.00     0.077 A 
HETATM   11  C   UNL     1     -42.097  58.167 -59.268  1.00  0.00     0.037 A 
HETATM   12  C   UNL     1     -42.440  57.024 -59.988  1.00  0.00     0.003 A 
HETATM   13  C   UNL     1     -42.910  55.896 -59.319  1.00  0.00     0.001 A 
HETATM   14  C   UNL     1     -43.023  55.903 -57.925  1.00  0.00     0.016 A 
BRANCH  10  15
HETATM   15  O   UNL     1     -41.877  59.352 -57.259  1.00  0.00    -0.360 OA
HETATM   16  H   UNL     1     -40.925  59.300 -57.005  1.00  0.00     0.217 HD
ENDBRANCH  10  15
ENDBRANCH   7   9
ENDBRANCH   3   6
ENDBRANCH   1   2
BRANCH   1  17
HETATM   17  N   UNL     1     -41.066  56.855 -50.886  1.00  0.00    -0.351 N 
HETATM   18  C   UNL     1     -42.191  56.132 -50.554  1.00  0.00     0.235 C 
HETATM   19  O   UNL     1     -43.326  56.454 -50.891  1.00  0.00    -0.272 OA
HETATM   20  H   UNL     1     -40.157  56.409 -50.776  1.00  0.00     0.163 HD
BRANCH  18  21
HETATM   21  C   UNL     1     -41.896  54.845 -49.783  1.00  0.00     0.225 C 
BRANCH  21  22
HETATM   22  N   UNL     1     -41.592  53.748 -50.675  1.00  0.00    -0.348 N 
HETATM   23  C   UNL     1     -40.303  53.348 -50.915  1.00  0.00     0.253 C 
HETATM   24  O   UNL     1     -39.353  53.996 -50.475  1.00  0.00    -0.268 OA
HETATM   25  H   UNL     1     -42.369  53.291 -51.140  1.00  0.00     0.163 HD
BRANCH  23  26
HETATM   26  C   UNL     1     -40.066  52.116 -51.739  1.00  0.00     0.053 A 
HETATM   27  C   UNL     1     -40.025  52.038 -53.142  1.00  0.00     0.049 A 
HETATM   28 CL   UNL     1     -40.275  53.378 -54.208  1.00  0.00    -0.083 Cl
HETATM   29  C   UNL     1     -39.767  50.810 -53.773  1.00  0.00     0.025 A 
HETATM   30  C   UNL     1     -39.548  49.654 -53.028  1.00  0.00     0.002 A 
HETATM   31  C   UNL     1     -39.598  49.712 -51.641  1.00  0.00     0.001 A 
HETATM   32  C   UNL     1     -39.863  50.927 -51.007  1.00  0.00     0.019 A 
ENDBRANCH  23  26
ENDBRANCH  21  22
ENDBRANCH  18  21
ENDBRANCH   1  17
TORSDOF 8
ENDMDL
MODEL 3
REMARK VINA RESULT:      -8.3      2.415      7.304
REMARK  8 active torsions:
REMARK  status: ('A' for Active; 'I' for Inactive)
REMARK    1  A    between atoms: C_2  and  C_3 
REMARK    2  A    between atoms: C_4  and  O_5 
REMARK    3  A    between atoms: N_10  and  N_11 
REMARK       I    between atoms: N_11  and  C_12 
REMARK    4  A    between atoms: C_12  and  C_13 
REMARK    5  A    between atoms: C_13  and  N_14 
REMARK       I    between atoms: N_14  and  C_15 
REMARK    6  A    between atoms: C_15  and  C_16 
REMARK    7  A    between atoms: C_16  and  N_17 
REMARK       I    between atoms: N_17  and  C_18 
REMARK    8  A    between atoms: C_18  and  C_19 
ROOT
HETATM    1  C   UNL     1     -43.229  57.570 -51.534  1.00  0.00     0.227 C 
ENDROOT
BRANCH   1   2
HETATM    2  C   UNL     1     -42.707  57.620 -52.971  1.00  0.00     0.255 C 
HETATM    3  N   UNL     1     -43.373  56.789 -53.857  1.00  0.00    -0.246 N 
HETATM    4  H   UNL     1     -44.232  56.329 -53.564  1.00  0.00     0.192 HD
HETATM    5  O   UNL     1     -41.699  58.267 -53.258  1.00  0.00    -0.270 OA
BRANCH   3   6
HETATM    6  N   UNL     1     -42.944  56.723 -55.147  1.00  0.00    -0.176 NA
HETATM    7  C   UNL     1     -43.636  57.294 -56.089  1.00  0.00     0.064 C 
HETATM    8  C   UNL     1     -44.955  57.990 -55.854  1.00  0.00     0.073 C 
BRANCH   7   9
HETATM    9  C   UNL     1     -43.095  57.236 -57.484  1.00  0.00     0.023 A 
HETATM   10  C   UNL     1     -43.184  56.054 -58.234  1.00  0.00     0.077 A 
HETATM   11  C   UNL     1     -42.710  56.008 -59.546  1.00  0.00     0.037 A 
HETATM   12  C   UNL     1     -42.121  57.135 -60.115  1.00  0.00     0.003 A 
HETATM   13  C   UNL     1     -41.999  58.306 -59.370  1.00  0.00     0.001 A 
HETATM   14  C   UNL     1     -42.481  58.358 -58.059  1.00  0.00     0.016 A 
BRANCH  10  15
HETATM   15  O   UNL     1     -43.729  54.894 -57.753  1.00  0.00    -0.360 OA
HETATM   16  H   UNL     1     -43.148  54.557 -57.032  1.00  0.00     0.217 HD
ENDBRANCH  10  15
ENDBRANCH   7   9
ENDBRANCH   3   6
ENDBRANCH   1   2
BRANCH   1  17
HETATM   17  N   UNL     1     -43.018  56.332 -50.798  1.00  0.00    -0.351 N 
HETATM   18  C   UNL     1     -41.816  56.044 -50.189  1.00  0.00     0.235 C 
HETATM   19  O   UNL     1     -40.907  56.859 -50.066  1.00  0.00    -0.272 OA
HETATM   20  H   UNL     1     -43.796  55.692 -50.656  1.00  0.00     0.163 HD
BRANCH  18  21
HETATM   21  C   UNL     1     -41.737  54.630 -49.613  1.00  0.00     0.225 C 
BRANCH  21  22
HETATM   22  N   UNL     1     -41.490  53.648 -50.646  1.00  0.00    -0.348 N 
HETATM   23  C   UNL     1     -40.223  53.218 -50.946  1.00  0.00     0.253 C 
HETATM   24  O   UNL     1     -39.241  53.752 -50.430  1.00  0.00    -0.268 OA
HETATM   25  H   UNL     1     -42.289  53.297 -51.163  1.00  0.00     0.163 HD
BRANCH  23  26
HETATM   26  C   UNL     1     -40.050  52.097 -51.929  1.00  0.00     0.053 A 
HETATM   27  C   UNL     1     -40.156  52.182 -53.328  1.00  0.00     0.049 A 
HETATM   28 CL   UNL     1     -40.543  53.626 -54.198  1.00  0.00    -0.083 Cl
HETATM   29  C   UNL     1     -39.941  51.043 -54.122  1.00  0.00     0.025 A 
HETATM   30  C   UNL     1     -39.622  49.817 -53.544  1.00  0.00     0.002 A 
HETATM   31  C   UNL     1     -39.527  49.713 -52.162  1.00  0.00     0.001 A 
HETATM   32  C   UNL     1     -39.748  50.839 -51.366  1.00  0.00     0.019 A 
ENDBRANCH  23  26
ENDBRANCH  21  22
ENDBRANCH  18  21
ENDBRANCH   1  17
TORSDOF 8
ENDMDL
MODEL 4
REMARK VINA RESULT:      -8.2      3.239      7.360
REMARK  8 active torsions:
REMARK  status: ('A' for Active; 'I' for Inactive)
REMARK    1  A    between atoms: C_2  and  C_3 
REMARK    2  A    between atoms: C_4  and  O_5 
REMARK    3  A    between atoms: N_10  and  N_11 
REMARK       I    between atoms: N_11  and  C_12 
REMARK    4  A    between atoms: C_12  and  C_13 
REMARK    5  A    between atoms: C_13  and  N_14 
REMARK       I    between atoms: N_14  and  C_15 
REMARK    6  A    between atoms: C_15  and  C_16 
REMARK    7  A    between atoms: C_16  and  N_17 
REMARK       I    between atoms: N_17  and  C_18 
REMARK    8  A    between atoms: C_18  and  C_19 
ROOT
HETATM    1  C   UNL     1     -43.575  57.621 -51.327  1.00  0.00     0.227 C 
ENDROOT
BRANCH   1   2
HETATM    2  C   UNL     1     -43.847  57.583 -52.832  1.00  0.00     0.255 C 
HETATM    3  N   UNL     1     -42.713  57.647 -53.625  1.00  0.00    -0.246 N 
HETATM    4  H   UNL     1     -41.795  57.561 -53.196  1.00  0.00     0.192 HD
HETATM    5  O   UNL     1     -44.998  57.613 -53.269  1.00  0.00    -0.270 OA
BRANCH   3   6
HETATM    6  N   UNL     1     -42.859  57.676 -54.978  1.00  0.00    -0.176 NA
HETATM    7  C   UNL     1     -42.273  56.775 -55.711  1.00  0.00     0.064 C 
HETATM    8  C   UNL     1     -41.364  55.705 -55.156  1.00  0.00     0.073 C 
BRANCH   7   9
HETATM    9  C   UNL     1     -42.505  56.822 -57.190  1.00  0.00     0.023 A 
HETATM   10  C   UNL     1     -43.167  55.769 -57.841  1.00  0.00     0.077 A 
HETATM   11  C   UNL     1     -43.414  55.826 -59.213  1.00  0.00     0.037 A 
HETATM   12  C   UNL     1     -42.982  56.925 -59.955  1.00  0.00     0.003 A 
HETATM   13  C   UNL     1     -42.297  57.962 -59.326  1.00  0.00     0.001 A 
HETATM   14  C   UNL     1     -42.057  57.912 -57.949  1.00  0.00     0.016 A 
BRANCH  10  15
HETATM   15  O   UNL     1     -43.610  54.645 -57.199  1.00  0.00    -0.360 OA
HETATM   16  H   UNL     1     -42.850  54.248 -56.712  1.00  0.00     0.217 HD
ENDBRANCH  10  15
ENDBRANCH   7   9
ENDBRANCH   3   6
ENDBRANCH   1   2
BRANCH   1  17
HETATM   17  N   UNL     1     -43.265  56.355 -50.679  1.00  0.00    -0.351 N 
HETATM   18  C   UNL     1     -41.968  55.972 -50.416  1.00  0.00     0.235 C 
HETATM   19  O   UNL     1     -41.003  56.722 -50.538  1.00  0.00    -0.272 OA
HETATM   20  H   UNL     1     -44.020  55.766 -50.336  1.00  0.00     0.163 HD
BRANCH  18  21
HETATM   21  C   UNL     1     -41.838  54.544 -49.888  1.00  0.00     0.225 C 
BRANCH  21  22
HETATM   22  N   UNL     1     -41.555  53.607 -50.953  1.00  0.00    -0.348 N 
HETATM   23  C   UNL     1     -40.290  53.126 -51.175  1.00  0.00     0.253 C 
HETATM   24  O   UNL     1     -39.329  53.577 -50.551  1.00  0.00    -0.268 OA
HETATM   25  H   UNL     1     -42.324  53.328 -51.552  1.00  0.00     0.163 HD
BRANCH  23  26
HETATM   26  C   UNL     1     -40.092  52.052 -52.204  1.00  0.00     0.053 A 
HETATM   27  C   UNL     1     -39.808  50.697 -51.963  1.00  0.00     0.049 A 
HETATM   28 CL   UNL     1     -39.603  50.001 -50.392  1.00  0.00    -0.083 Cl
HETATM   29  C   UNL     1     -39.673  49.801 -53.037  1.00  0.00     0.025 A 
HETATM   30  C   UNL     1     -39.815  50.235 -54.352  1.00  0.00     0.002 A 
HETATM   31  C   UNL     1     -40.082  51.574 -54.609  1.00  0.00     0.001 A 
HETATM   32  C   UNL     1     -40.209  52.471 -53.547  1.00  0.00     0.019 A 
ENDBRANCH  23  26
ENDBRANCH  21  22
ENDBRANCH  18  21
ENDBRANCH   1  17
TORSDOF 8
ENDMDL
MODEL 5
REMARK VINA RESULT:      -7.7      2.635      7.380
REMARK  8 active torsions:
REMARK  status: ('A' for Active; 'I' for Inactive)
REMARK    1  A    between atoms: C_2  and  C_3 
REMARK    2  A    between atoms: C_4  and  O_5 
REMARK    3  A    between atoms: N_10  and  N_11 
REMARK       I    between atoms: N_11  and  C_12 
REMARK    4  A    between atoms: C_12  and  C_13 
REMARK    5  A    between atoms: C_13  and  N_14 
REMARK       I    between atoms: N_14  and  C_15 
REMARK    6  A    between atoms: C_15  and  C_16 
REMARK    7  A    between atoms: C_16  and  N_17 
REMARK       I    between atoms: N_17  and  C_18 
REMARK    8  A    between atoms: C_18  and  C_19 
ROOT
HETATM    1  C   UNL     1     -41.887  58.692 -53.990  1.00  0.00     0.227 C 
ENDROOT
BRANCH   1   2
HETATM    2  C   UNL     1     -42.991  58.269 -54.961  1.00  0.00     0.255 C 
HETATM    3  N   UNL     1     -42.625  57.276 -55.854  1.00  0.00    -0.246 N 
HETATM    4  H   UNL     1     -41.741  56.787 -55.728  1.00  0.00     0.192 HD
HETATM    5  O   UNL     1     -44.066  58.868 -54.997  1.00  0.00    -0.270 OA
BRANCH   3   6
HETATM    6  N   UNL     1     -43.524  56.874 -56.794  1.00  0.00    -0.176 NA
HETATM    7  C   UNL     1     -43.316  57.150 -58.048  1.00  0.00     0.064 C 
HETATM    8  C   UNL     1     -42.145  57.965 -58.543  1.00  0.00     0.073 C 
BRANCH   7   9
HETATM    9  C   UNL     1     -44.309  56.643 -59.047  1.00  0.00     0.023 A 
HETATM   10  C   UNL     1     -45.624  57.134 -59.058  1.00  0.00     0.077 A 
HETATM   11  C   UNL     1     -46.541  56.686 -60.009  1.00  0.00     0.037 A 
HETATM   12  C   UNL     1     -46.163  55.727 -60.947  1.00  0.00     0.003 A 
HETATM   13  C   UNL     1     -44.869  55.209 -60.928  1.00  0.00     0.001 A 
HETATM   14  C   UNL     1     -43.945  55.662 -59.982  1.00  0.00     0.016 A 
BRANCH  10  15
HETATM   15  O   UNL     1     -46.089  58.062 -58.167  1.00  0.00    -0.360 OA
HETATM   16  H   UNL     1     -46.368  58.861 -58.673  1.00  0.00     0.217 HD
ENDBRANCH  10  15
ENDBRANCH   7   9
ENDBRANCH   3   6
ENDBRANCH   1   2
BRANCH   1  17
HETATM   17  N   UNL     1     -41.536  57.749 -52.938  1.00  0.00    -0.351 N 
HETATM   18  C   UNL     1     -42.220  57.705 -51.743  1.00  0.00     0.235 C 
HETATM   19  O   UNL     1     -43.267  58.314 -51.540  1.00  0.00    -0.272 OA
HETATM   20  H   UNL     1     -40.819  57.047 -53.109  1.00  0.00     0.163 HD
BRANCH  18  21
HETATM   21  C   UNL     1     -41.599  56.769 -50.707  1.00  0.00     0.225 C 
BRANCH  21  22
HETATM   22  N   UNL     1     -40.970  55.626 -51.331  1.00  0.00    -0.348 N 
HETATM   23  C   UNL     1     -41.633  54.438 -51.498  1.00  0.00     0.253 C 
HETATM   24  O   UNL     1     -42.747  54.267 -51.002  1.00  0.00    -0.268 OA
HETATM   25  H   UNL     1     -40.005  55.724 -51.628  1.00  0.00     0.163 HD
BRANCH  23  26
HETATM   26  C   UNL     1     -40.971  53.339 -52.278  1.00  0.00     0.053 A 
HETATM   27  C   UNL     1     -41.142  53.057 -53.643  1.00  0.00     0.049 A 
HETATM   28 CL   UNL     1     -42.197  53.929 -54.702  1.00  0.00    -0.083 Cl
HETATM   29  C   UNL     1     -40.430  52.004 -54.241  1.00  0.00     0.025 A 
HETATM   30  C   UNL     1     -39.547  51.224 -53.498  1.00  0.00     0.002 A 
HETATM   31  C   UNL     1     -39.377  51.482 -52.144  1.00  0.00     0.001 A 
HETATM   32  C   UNL     1     -40.088  52.521 -51.541  1.00  0.00     0.019 A 
ENDBRANCH  23  26
ENDBRANCH  21  22
ENDBRANCH  18  21
ENDBRANCH   1  17
TORSDOF 8
ENDMDL
MODEL 6
REMARK VINA RESULT:      -7.6      2.319      2.912
REMARK  8 active torsions:
REMARK  status: ('A' for Active; 'I' for Inactive)
REMARK    1  A    between atoms: C_2  and  C_3 
REMARK    2  A    between atoms: C_4  and  O_5 
REMARK    3  A    between atoms: N_10  and  N_11 
REMARK       I    between atoms: N_11  and  C_12 
REMARK    4  A    between atoms: C_12  and  C_13 
REMARK    5  A    between atoms: C_13  and  N_14 
REMARK       I    between atoms: N_14  and  C_15 
REMARK    6  A    between atoms: C_15  and  C_16 
REMARK    7  A    between atoms: C_16  and  N_17 
REMARK       I    between atoms: N_17  and  C_18 
REMARK    8  A    between atoms: C_18  and  C_19 
ROOT
HETATM    1  C   UNL     1     -42.117  60.258 -53.600  1.00  0.00     0.227 C 
ENDROOT
BRANCH   1   2
HETATM    2  C   UNL     1     -41.286  58.983 -53.448  1.00  0.00     0.255 C 
HETATM    3  N   UNL     1     -42.029  57.824 -53.291  1.00  0.00    -0.246 N 
HETATM    4  H   UNL     1     -43.036  57.851 -53.436  1.00  0.00     0.192 HD
HETATM    5  O   UNL     1     -40.059  59.033 -53.356  1.00  0.00    -0.270 OA
BRANCH   3   6
HETATM    6  N   UNL     1     -41.376  56.646 -53.093  1.00  0.00    -0.176 NA
HETATM    7  C   UNL     1     -41.933  55.529 -53.458  1.00  0.00     0.064 C 
HETATM    8  C   UNL     1     -43.320  55.437 -54.046  1.00  0.00     0.073 C 
BRANCH   7   9
HETATM    9  C   UNL     1     -41.153  54.266 -53.263  1.00  0.00     0.023 A 
HETATM   10  C   UNL     1     -40.684  53.907 -51.990  1.00  0.00     0.077 A 
HETATM   11  C   UNL     1     -39.985  52.714 -51.801  1.00  0.00     0.037 A 
HETATM   12  C   UNL     1     -39.727  51.877 -52.885  1.00  0.00     0.003 A 
HETATM   13  C   UNL     1     -40.161  52.236 -54.159  1.00  0.00     0.001 A 
HETATM   14  C   UNL     1     -40.869  53.426 -54.350  1.00  0.00     0.016 A 
BRANCH  10  15
HETATM   15  O   UNL     1     -40.874  54.674 -50.872  1.00  0.00    -0.360 OA
HETATM   16  H   UNL     1     -39.996  54.825 -50.450  1.00  0.00     0.217 HD
ENDBRANCH  10  15
ENDBRANCH   7   9
ENDBRANCH   3   6
ENDBRANCH   1   2
BRANCH   1  17
HETATM   17  N   UNL     1     -42.708  60.510 -54.905  1.00  0.00    -0.351 N 
HETATM   18  C   UNL     1     -43.853  59.868 -55.321  1.00  0.00     0.235 C 
HETATM   19  O   UNL     1     -44.552  59.184 -54.580  1.00  0.00    -0.272 OA
HETATM   20  H   UNL     1     -42.318  61.236 -55.503  1.00  0.00     0.163 HD
BRANCH  18  21
HETATM   21  C   UNL     1     -44.221  60.138 -56.780  1.00  0.00     0.225 C 
BRANCH  21  22
HETATM   22  N   UNL     1     -44.105  58.944 -57.588  1.00  0.00    -0.348 N 
HETATM   23  C   UNL     1     -45.194  58.171 -57.895  1.00  0.00     0.253 C 
HETATM   24  O   UNL     1     -46.291  58.401 -57.383  1.00  0.00    -0.268 OA
HETATM   25  H   UNL     1     -43.179  58.680 -57.908  1.00  0.00     0.163 HD
BRANCH  23  26
HETATM   26  C   UNL     1     -45.027  57.026 -58.851  1.00  0.00     0.053 A 
HETATM   27  C   UNL     1     -44.057  56.012 -58.787  1.00  0.00     0.049 A 
HETATM   28 CL   UNL     1     -42.824  55.907 -57.578  1.00  0.00    -0.083 Cl
HETATM   29  C   UNL     1     -44.042  54.988 -59.748  1.00  0.00     0.025 A 
HETATM   30  C   UNL     1     -44.982  54.956 -60.776  1.00  0.00     0.002 A 
HETATM   31  C   UNL     1     -45.940  55.959 -60.860  1.00  0.00     0.001 A 
HETATM   32  C   UNL     1     -45.955  56.985 -59.914  1.00  0.00     0.019 A 
ENDBRANCH  23  26
ENDBRANCH  21  22
ENDBRANCH  18  21
ENDBRANCH   1  17
TORSDOF 8
ENDMDL
MODEL 7
REMARK VINA RESULT:      -7.5      4.585      8.889
REMARK  8 active torsions:
REMARK  status: ('A' for Active; 'I' for Inactive)
REMARK    1  A    between atoms: C_2  and  C_3 
REMARK    2  A    between atoms: C_4  and  O_5 
REMARK    3  A    between atoms: N_10  and  N_11 
REMARK       I    between atoms: N_11  and  C_12 
REMARK    4  A    between atoms: C_12  and  C_13 
REMARK    5  A    between atoms: C_13  and  N_14 
REMARK       I    between atoms: N_14  and  C_15 
REMARK    6  A    between atoms: C_15  and  C_16 
REMARK    7  A    between atoms: C_16  and  N_17 
REMARK       I    between atoms: N_17  and  C_18 
REMARK    8  A    between atoms: C_18  and  C_19 
ROOT
HETATM    1  C   UNL     1     -40.943  59.114 -52.192  1.00  0.00     0.227 C 
ENDROOT
BRANCH   1   2
HETATM    2  C   UNL     1     -41.415  59.770 -50.893  1.00  0.00     0.255 C 
HETATM    3  N   UNL     1     -42.511  60.606 -51.033  1.00  0.00    -0.246 N 
HETATM    4  H   UNL     1     -43.022  60.620 -51.913  1.00  0.00     0.192 HD
HETATM    5  O   UNL     1     -40.777  59.639 -49.848  1.00  0.00    -0.270 OA
BRANCH   3   6
HETATM    6  N   UNL     1     -42.968  61.279 -49.942  1.00  0.00    -0.176 NA
HETATM    7  C   UNL     1     -44.188  61.091 -49.530  1.00  0.00     0.064 C 
HETATM    8  C   UNL     1     -45.182  60.201 -50.236  1.00  0.00     0.073 C 
BRANCH   7   9
HETATM    9  C   UNL     1     -44.626  61.817 -48.296  1.00  0.00     0.023 A 
HETATM   10  C   UNL     1     -44.619  63.220 -48.254  1.00  0.00     0.077 A 
HETATM   11  C   UNL     1     -45.059  63.898 -47.117  1.00  0.00     0.037 A 
HETATM   12  C   UNL     1     -45.489  63.184 -46.000  1.00  0.00     0.003 A 
HETATM   13  C   UNL     1     -45.473  61.791 -46.018  1.00  0.00     0.001 A 
HETATM   14  C   UNL     1     -45.041  61.108 -47.159  1.00  0.00     0.016 A 
BRANCH  10  15
HETATM   15  O   UNL     1     -44.198  64.003 -49.294  1.00  0.00    -0.360 OA
HETATM   16  H   UNL     1     -44.601  63.656 -50.124  1.00  0.00     0.217 HD
ENDBRANCH  10  15
ENDBRANCH   7   9
ENDBRANCH   3   6
ENDBRANCH   1   2
BRANCH   1  17
HETATM   17  N   UNL     1     -41.569  57.853 -52.560  1.00  0.00    -0.351 N 
HETATM   18  C   UNL     1     -42.851  57.796 -53.060  1.00  0.00     0.235 C 
HETATM   19  O   UNL     1     -43.490  58.789 -53.397  1.00  0.00    -0.272 OA
HETATM   20  H   UNL     1     -41.027  56.992 -52.526  1.00  0.00     0.163 HD
BRANCH  18  21
HETATM   21  C   UNL     1     -43.389  56.375 -53.227  1.00  0.00     0.225 C 
BRANCH  21  22
HETATM   22  N   UNL     1     -42.318  55.405 -53.292  1.00  0.00    -0.348 N 
HETATM   23  C   UNL     1     -42.343  54.251 -52.553  1.00  0.00     0.253 C 
HETATM   24  O   UNL     1     -43.222  54.064 -51.711  1.00  0.00    -0.268 OA
HETATM   25  H   UNL     1     -41.528  55.616 -53.892  1.00  0.00     0.163 HD
BRANCH  23  26
HETATM   26  C   UNL     1     -41.271  53.224 -52.773  1.00  0.00     0.053 A 
HETATM   27  C   UNL     1     -40.319  52.788 -51.835  1.00  0.00     0.049 A 
HETATM   28 CL   UNL     1     -40.185  53.391 -50.219  1.00  0.00    -0.083 Cl
HETATM   29  C   UNL     1     -39.388  51.796 -52.184  1.00  0.00     0.025 A 
HETATM   30  C   UNL     1     -39.390  51.228 -53.456  1.00  0.00     0.002 A 
HETATM   31  C   UNL     1     -40.315  51.657 -54.398  1.00  0.00     0.001 A 
HETATM   32  C   UNL     1     -41.238  52.650 -54.062  1.00  0.00     0.019 A 
ENDBRANCH  23  26
ENDBRANCH  21  22
ENDBRANCH  18  21
ENDBRANCH   1  17
TORSDOF 8
ENDMDL
MODEL 8
REMARK VINA RESULT:      -7.4      2.951      6.839
REMARK  8 active torsions:
REMARK  status: ('A' for Active; 'I' for Inactive)
REMARK    1  A    between atoms: C_2  and  C_3 
REMARK    2  A    between atoms: C_4  and  O_5 
REMARK    3  A    between atoms: N_10  and  N_11 
REMARK       I    between atoms: N_11  and  C_12 
REMARK    4  A    between atoms: C_12  and  C_13 
REMARK    5  A    between atoms: C_13  and  N_14 
REMARK       I    between atoms: N_14  and  C_15 
REMARK    6  A    between atoms: C_15  and  C_16 
REMARK    7  A    between atoms: C_16  and  N_17 
REMARK       I    between atoms: N_17  and  C_18 
REMARK    8  A    between atoms: C_18  and  C_19 
ROOT
HETATM    1  C   UNL     1     -43.735  59.861 -52.453  1.00  0.00     0.227 C 
ENDROOT
BRANCH   1   2
HETATM    2  C   UNL     1     -44.201  59.177 -53.740  1.00  0.00     0.255 C 
HETATM    3  N   UNL     1     -43.189  58.587 -54.479  1.00  0.00    -0.246 N 
HETATM    4  H   UNL     1     -42.258  58.501 -54.078  1.00  0.00     0.192 HD
HETATM    5  O   UNL     1     -45.370  59.267 -54.118  1.00  0.00    -0.270 OA
BRANCH   3   6
HETATM    6  N   UNL     1     -43.500  58.002 -55.669  1.00  0.00    -0.176 NA
HETATM    7  C   UNL     1     -42.974  58.455 -56.769  1.00  0.00     0.064 C 
HETATM    8  C   UNL     1     -42.066  59.660 -56.830  1.00  0.00     0.073 C 
BRANCH   7   9
HETATM    9  C   UNL     1     -43.309  57.746 -58.045  1.00  0.00     0.023 A 
HETATM   10  C   UNL     1     -42.985  56.391 -58.213  1.00  0.00     0.077 A 
HETATM   11  C   UNL     1     -43.327  55.720 -59.388  1.00  0.00     0.037 A 
HETATM   12  C   UNL     1     -43.975  56.401 -60.417  1.00  0.00     0.003 A 
HETATM   13  C   UNL     1     -44.275  57.754 -60.275  1.00  0.00     0.001 A 
HETATM   14  C   UNL     1     -43.942  58.426 -59.095  1.00  0.00     0.016 A 
BRANCH  10  15
HETATM   15  O   UNL     1     -42.334  55.648 -57.266  1.00  0.00    -0.360 OA
HETATM   16  H   UNL     1     -41.369  55.835 -57.337  1.00  0.00     0.217 HD
ENDBRANCH  10  15
ENDBRANCH   7   9
ENDBRANCH   3   6
ENDBRANCH   1   2
BRANCH   1  17
HETATM   17  N   UNL     1     -43.029  59.036 -51.485  1.00  0.00    -0.351 N 
HETATM   18  C   UNL     1     -41.659  58.894 -51.512  1.00  0.00     0.235 C 
HETATM   19  O   UNL     1     -40.922  59.572 -52.221  1.00  0.00    -0.272 OA
HETATM   20  H   UNL     1     -43.542  58.612 -50.715  1.00  0.00     0.163 HD
BRANCH  18  21
HETATM   21  C   UNL     1     -41.123  57.858 -50.523  1.00  0.00     0.225 C 
BRANCH  21  22
HETATM   22  N   UNL     1     -40.672  56.661 -51.199  1.00  0.00    -0.348 N 
HETATM   23  C   UNL     1     -41.553  55.743 -51.708  1.00  0.00     0.253 C 
HETATM   24  O   UNL     1     -42.762  55.846 -51.491  1.00  0.00    -0.268 OA
HETATM   25  H   UNL     1     -39.672  56.509 -51.269  1.00  0.00     0.163 HD
BRANCH  23  26
HETATM   26  C   UNL     1     -41.022  54.597 -52.519  1.00  0.00     0.053 A 
HETATM   27  C   UNL     1     -40.589  53.352 -52.032  1.00  0.00     0.049 A 
HETATM   28 CL   UNL     1     -40.560  52.907 -50.360  1.00  0.00    -0.083 Cl
HETATM   29  C   UNL     1     -40.137  52.364 -52.923  1.00  0.00     0.025 A 
HETATM   30  C   UNL     1     -40.111  52.596 -54.296  1.00  0.00     0.002 A 
HETATM   31  C   UNL     1     -40.523  53.827 -54.792  1.00  0.00     0.001 A 
HETATM   32  C   UNL     1     -40.964  54.816 -53.912  1.00  0.00     0.019 A 
ENDBRANCH  23  26
ENDBRANCH  21  22
ENDBRANCH  18  21
ENDBRANCH   1  17
TORSDOF 8
ENDMDL
MODEL 9
REMARK VINA RESULT:      -7.3      3.486      5.349
REMARK  8 active torsions:
REMARK  status: ('A' for Active; 'I' for Inactive)
REMARK    1  A    between atoms: C_2  and  C_3 
REMARK    2  A    between atoms: C_4  and  O_5 
REMARK    3  A    between atoms: N_10  and  N_11 
REMARK       I    between atoms: N_11  and  C_12 
REMARK    4  A    between atoms: C_12  and  C_13 
REMARK    5  A    between atoms: C_13  and  N_14 
REMARK       I    between atoms: N_14  and  C_15 
REMARK    6  A    between atoms: C_15  and  C_16 
REMARK    7  A    between atoms: C_16  and  N_17 
REMARK       I    between atoms: N_17  and  C_18 
REMARK    8  A    between atoms: C_18  and  C_19 
ROOT
HETATM    1  C   UNL     1     -43.197  55.356 -57.925  1.00  0.00     0.227 C 
ENDROOT
BRANCH   1   2
HETATM    2  C   UNL     1     -42.789  55.536 -56.461  1.00  0.00     0.255 C 
HETATM    3  N   UNL     1     -43.194  54.513 -55.619  1.00  0.00    -0.246 N 
HETATM    4  H   UNL     1     -43.582  53.661 -56.015  1.00  0.00     0.192 HD
HETATM    5  O   UNL     1     -42.251  56.575 -56.077  1.00  0.00    -0.270 OA
BRANCH   3   6
HETATM    6  N   UNL     1     -42.925  54.613 -54.288  1.00  0.00    -0.176 NA
HETATM    7  C   UNL     1     -42.068  53.804 -53.739  1.00  0.00     0.064 C 
HETATM    8  C   UNL     1     -41.376  52.686 -54.481  1.00  0.00     0.073 C 
BRANCH   7   9
HETATM    9  C   UNL     1     -41.771  53.988 -52.282  1.00  0.00     0.023 A 
HETATM   10  C   UNL     1     -42.802  54.285 -51.377  1.00  0.00     0.077 A 
HETATM   11  C   UNL     1     -42.532  54.423 -50.015  1.00  0.00     0.037 A 
HETATM   12  C   UNL     1     -41.227  54.290 -49.545  1.00  0.00     0.003 A 
HETATM   13  C   UNL     1     -40.190  54.025 -50.437  1.00  0.00     0.001 A 
HETATM   14  C   UNL     1     -40.458  53.876 -51.801  1.00  0.00     0.016 A 
BRANCH  10  15
HETATM   15  O   UNL     1     -44.108  54.451 -51.749  1.00  0.00    -0.360 OA
HETATM   16  H   UNL     1     -44.143  54.507 -52.733  1.00  0.00     0.217 HD
ENDBRANCH  10  15
ENDBRANCH   7   9
ENDBRANCH   3   6
ENDBRANCH   1   2
BRANCH   1  17
HETATM   17  N   UNL     1     -43.639  56.544 -58.638  1.00  0.00    -0.351 N 
HETATM   18  C   UNL     1     -43.048  56.947 -59.816  1.00  0.00     0.235 C 
HETATM   19  O   UNL     1     -42.244  56.260 -60.439  1.00  0.00    -0.272 OA
HETATM   20  H   UNL     1     -44.456  57.055 -58.310  1.00  0.00     0.163 HD
BRANCH  18  21
HETATM   21  C   UNL     1     -43.536  58.305 -60.322  1.00  0.00     0.225 C 
BRANCH  21  22
HETATM   22  N   UNL     1     -42.452  59.257 -60.418  1.00  0.00    -0.348 N 
HETATM   23  C   UNL     1     -42.680  60.593 -60.628  1.00  0.00     0.253 C 
HETATM   24  O   UNL     1     -43.815  61.005 -60.871  1.00  0.00    -0.268 OA
HETATM   25  H   UNL     1     -41.505  58.902 -60.345  1.00  0.00     0.163 HD
BRANCH  23  26
HETATM   26  C   UNL     1     -41.520  61.545 -60.577  1.00  0.00     0.053 A 
HETATM   27  C   UNL     1     -40.842  61.983 -59.428  1.00  0.00     0.049 A 
HETATM   28 CL   UNL     1     -41.245  61.516 -57.811  1.00  0.00    -0.083 Cl
HETATM   29  C   UNL     1     -39.752  62.862 -59.543  1.00  0.00     0.025 A 
HETATM   30  C   UNL     1     -39.326  63.314 -60.790  1.00  0.00     0.002 A 
HETATM   31  C   UNL     1     -39.995  62.901 -61.935  1.00  0.00     0.001 A 
HETATM   32  C   UNL     1     -41.084  62.034 -61.827  1.00  0.00     0.019 A 
ENDBRANCH  23  26
ENDBRANCH  21  22
ENDBRANCH  18  21
ENDBRANCH   1  17
TORSDOF 8
ENDMDL
MODEL 10
REMARK VINA RESULT:      -7.2      3.082      7.835
REMARK  8 active torsions:
REMARK  status: ('A' for Active; 'I' for Inactive)
REMARK    1  A    between atoms: C_2  and  C_3 
REMARK    2  A    between atoms: C_4  and  O_5 
REMARK    3  A    between atoms: N_10  and  N_11 
REMARK       I    between atoms: N_11  and  C_12 
REMARK    4  A    between atoms: C_12  and  C_13 
REMARK    5  A    between atoms: C_13  and  N_14 
REMARK       I    between atoms: N_14  and  C_15 
REMARK    6  A    between atoms: C_15  and  C_16 
REMARK    7  A    between atoms: C_16  and  N_17 
REMARK       I    between atoms: N_17  and  C_18 
REMARK    8  A    between atoms: C_18  and  C_19 
ROOT
HETATM    1  C   UNL     1     -42.701  59.040 -51.871  1.00  0.00     0.227 C 
ENDROOT
BRANCH   1   2
HETATM    2  C   UNL     1     -42.562  58.788 -53.373  1.00  0.00     0.255 C 
HETATM    3  N   UNL     1     -41.832  59.749 -54.054  1.00  0.00    -0.246 N 
HETATM    4  H   UNL     1     -41.316  60.452 -53.531  1.00  0.00     0.192 HD
HETATM    5  O   UNL     1     -43.164  57.863 -53.920  1.00  0.00    -0.270 OA
BRANCH   3   6
HETATM    6  N   UNL     1     -41.702  59.640 -55.405  1.00  0.00    -0.176 NA
HETATM    7  C   UNL     1     -42.302  60.492 -56.184  1.00  0.00     0.064 C 
HETATM    8  C   UNL     1     -43.212  61.587 -55.682  1.00  0.00     0.073 C 
BRANCH   7   9
HETATM    9  C   UNL     1     -42.087  60.359 -57.659  1.00  0.00     0.023 A 
HETATM   10  C   UNL     1     -42.337  59.140 -58.309  1.00  0.00     0.077 A 
HETATM   11  C   UNL     1     -42.169  59.024 -59.689  1.00  0.00     0.037 A 
HETATM   12  C   UNL     1     -41.727  60.116 -60.433  1.00  0.00     0.003 A 
HETATM   13  C   UNL     1     -41.446  61.323 -59.796  1.00  0.00     0.001 A 
HETATM   14  C   UNL     1     -41.622  61.446 -58.415  1.00  0.00     0.016 A 
BRANCH  10  15
HETATM   15  O   UNL     1     -42.756  58.011 -57.659  1.00  0.00    -0.360 OA
HETATM   16  H   UNL     1     -42.019  57.695 -57.086  1.00  0.00     0.217 HD
ENDBRANCH  10  15
ENDBRANCH   7   9
ENDBRANCH   3   6
ENDBRANCH   1   2
BRANCH   1  17
HETATM   17  N   UNL     1     -42.478  57.905 -50.988  1.00  0.00    -0.351 N 
HETATM   18  C   UNL     1     -41.224  57.593 -50.508  1.00  0.00     0.235 C 
HETATM   19  O   UNL     1     -40.249  58.327 -50.635  1.00  0.00    -0.272 OA
HETATM   20  H   UNL     1     -43.272  57.368 -50.645  1.00  0.00     0.163 HD
BRANCH  18  21
HETATM   21  C   UNL     1     -41.167  56.274 -49.737  1.00  0.00     0.225 C 
BRANCH  21  22
HETATM   22  N   UNL     1     -40.637  55.203 -50.553  1.00  0.00    -0.348 N 
HETATM   23  C   UNL     1     -41.438  54.465 -51.385  1.00  0.00     0.253 C 
HETATM   24  O   UNL     1     -42.661  54.607 -51.367  1.00  0.00    -0.268 OA
HETATM   25  H   UNL     1     -39.647  54.998 -50.475  1.00  0.00     0.163 HD
BRANCH  23  26
HETATM   26  C   UNL     1     -40.802  53.465 -52.306  1.00  0.00     0.053 A 
HETATM   27  C   UNL     1     -40.260  52.219 -51.949  1.00  0.00     0.049 A 
HETATM   28 CL   UNL     1     -40.197  51.601 -50.334  1.00  0.00    -0.083 Cl
HETATM   29  C   UNL     1     -39.718  51.376 -52.934  1.00  0.00     0.025 A 
HETATM   30  C   UNL     1     -39.709  51.756 -54.274  1.00  0.00     0.002 A 
HETATM   31  C   UNL     1     -40.229  52.990 -54.642  1.00  0.00     0.001 A 
HETATM   32  C   UNL     1     -40.760  53.837 -53.667  1.00  0.00     0.019 A 
ENDBRANCH  23  26
ENDBRANCH  21  22
ENDBRANCH  18  21
ENDBRANCH   1  17
TORSDOF 8
ENDMDL
