MODEL 1
REMARK VINA RESULT:      -9.2      0.000      0.000
REMARK  5 active torsions:
REMARK  status: ('A' for Active; 'I' for Inactive)
REMARK    1  A    between atoms: C_3  and  O_4 
REMARK    2  A    between atoms: C_6  and  N_7 
REMARK       I    between atoms: N_7  and  C_8 
REMARK    3  A    between atoms: C_8  and  C_9 
REMARK    4  A    between atoms: C_12  and  C_13 
REMARK    5  A    between atoms: C_18  and  C_19 
ROOT
HETATM    1  C   UNL     1     -41.409  55.834 -51.816  1.00  0.00     0.096 A 
HETATM    2  C   UNL     1     -41.701  56.752 -52.808  1.00  0.00     0.138 A 
HETATM    3  N   UNL     1     -41.454  57.986 -52.255  1.00  0.00    -0.240 N 
HETATM    4  C   UNL     1     -41.649  59.252 -52.936  1.00  0.00     0.221 C 
HETATM    5  C   UNL     1     -41.682  59.022 -54.456  1.00  0.00     0.066 C 
HETATM    6  C   UNL     1     -42.591  57.833 -54.812  1.00  0.00     0.118 C 
HETATM    7  N   UNL     1     -42.147  56.633 -54.092  1.00  0.00    -0.365 N 
HETATM    8  N   UNL     1     -41.004  57.940 -50.993  1.00  0.00    -0.181 NA
HETATM    9  C   UNL     1     -41.018  56.634 -50.713  1.00  0.00     0.160 A 
HETATM   10  H   UNL     1     -42.719  55.817 -54.326  1.00  0.00     0.161 HD
ENDROOT
BRANCH   1  11
HETATM   11  C   UNL     1     -41.465  54.382 -51.842  1.00  0.00     0.261 C 
HETATM   12  N   UNL     1     -40.367  53.802 -52.451  1.00  0.00    -0.323 N 
HETATM   13  H   UNL     1     -39.620  54.443 -52.692  1.00  0.00     0.169 HD
HETATM   14  O   UNL     1     -42.396  53.788 -51.313  1.00  0.00    -0.267 OA
BRANCH  12  15
HETATM   15  C   UNL     1     -40.124  52.431 -52.664  1.00  0.00     0.037 A 
HETATM   16  C   UNL     1     -39.711  51.548 -51.666  1.00  0.00     0.066 A 
HETATM   17  C   UNL     1     -39.500  50.203 -51.967  1.00  0.00     0.067 A 
HETATM   18  C   UNL     1     -39.691  49.716 -53.256  1.00  0.00     0.036 A 
HETATM   19  C   UNL     1     -40.108  50.591 -54.257  1.00  0.00     0.005 A 
HETATM   20  C   UNL     1     -40.329  51.940 -53.961  1.00  0.00     0.029 A 
BRANCH  17  21
HETATM   21  O   UNL     1     -39.103  49.380 -50.954  1.00  0.00    -0.361 OA
HETATM   22  H   UNL     1     -38.239  49.678 -50.625  1.00  0.00     0.217 HD
ENDBRANCH  17  21
ENDBRANCH  12  15
ENDBRANCH   1  11
BRANCH   4  23
HETATM   23  C   UNL     1     -42.911  59.922 -52.432  1.00  0.00     0.409 C 
HETATM   24  F   UNL     1     -43.506  60.693 -53.367  1.00  0.00    -0.169 F 
HETATM   25  F   UNL     1     -43.828  59.049 -51.968  1.00  0.00    -0.169 F 
HETATM   26  F   UNL     1     -42.606  60.746 -51.393  1.00  0.00    -0.169 F 
ENDBRANCH   4  23
BRANCH   6  27
HETATM   27  C   UNL     1     -42.584  57.572 -56.308  1.00  0.00    -0.035 A 
HETATM   28  C   UNL     1     -42.243  58.579 -57.229  1.00  0.00     0.012 A 
HETATM   29  C   UNL     1     -42.276  58.325 -58.603  1.00  0.00     0.043 A 
HETATM   30  C   UNL     1     -42.654  57.068 -59.059  1.00  0.00     0.116 A 
HETATM   31  F   UNL     1     -42.691  56.828 -60.375  1.00  0.00    -0.206 F 
HETATM   32  C   UNL     1     -42.999  56.060 -58.170  1.00  0.00     0.043 A 
HETATM   33  C   UNL     1     -42.965  56.309 -56.796  1.00  0.00     0.012 A 
ENDBRANCH   6  27
TORSDOF 5
ENDMDL
MODEL 2
REMARK VINA RESULT:      -9.1      1.810      2.497
REMARK  5 active torsions:
REMARK  status: ('A' for Active; 'I' for Inactive)
REMARK    1  A    between atoms: C_3  and  O_4 
REMARK    2  A    between atoms: C_6  and  N_7 
REMARK       I    between atoms: N_7  and  C_8 
REMARK    3  A    between atoms: C_8  and  C_9 
REMARK    4  A    between atoms: C_12  and  C_13 
REMARK    5  A    between atoms: C_18  and  C_19 
ROOT
HETATM    1  C   UNL     1     -41.664  56.012 -53.874  1.00  0.00     0.096 A 
HETATM    2  C   UNL     1     -42.211  56.713 -54.933  1.00  0.00     0.138 A 
HETATM    3  N   UNL     1     -41.820  58.019 -54.754  1.00  0.00    -0.240 N 
HETATM    4  C   UNL     1     -42.189  59.120 -55.623  1.00  0.00     0.221 C 
HETATM    5  C   UNL     1     -42.632  58.573 -56.991  1.00  0.00     0.066 C 
HETATM    6  C   UNL     1     -43.607  57.395 -56.822  1.00  0.00     0.118 C 
HETATM    7  N   UNL     1     -42.987  56.350 -55.994  1.00  0.00    -0.365 N 
HETATM    8  N   UNL     1     -41.047  58.216 -53.677  1.00  0.00    -0.181 NA
HETATM    9  C   UNL     1     -40.988  57.004 -53.119  1.00  0.00     0.160 A 
HETATM   10  H   UNL     1     -43.604  55.541 -55.883  1.00  0.00     0.161 HD
ENDROOT
BRANCH   1  11
HETATM   11  C   UNL     1     -41.729  54.594 -53.560  1.00  0.00     0.261 C 
HETATM   12  N   UNL     1     -40.488  53.987 -53.512  1.00  0.00    -0.323 N 
HETATM   13  H   UNL     1     -39.697  54.617 -53.582  1.00  0.00     0.169 HD
HETATM   14  O   UNL     1     -42.805  54.061 -53.321  1.00  0.00    -0.267 OA
BRANCH  12  15
HETATM   15  C   UNL     1     -40.202  52.631 -53.263  1.00  0.00     0.037 A 
HETATM   16  C   UNL     1     -40.223  51.636 -54.241  1.00  0.00     0.066 A 
HETATM   17  C   UNL     1     -39.919  50.318 -53.903  1.00  0.00     0.067 A 
HETATM   18  C   UNL     1     -39.596  49.966 -52.597  1.00  0.00     0.036 A 
HETATM   19  C   UNL     1     -39.569  50.955 -51.615  1.00  0.00     0.005 A 
HETATM   20  C   UNL     1     -39.864  52.280 -51.948  1.00  0.00     0.029 A 
BRANCH  17  21
HETATM   21  O   UNL     1     -39.946  49.385 -54.898  1.00  0.00    -0.361 OA
HETATM   22  H   UNL     1     -40.203  48.528 -54.520  1.00  0.00     0.217 HD
ENDBRANCH  17  21
ENDBRANCH  12  15
ENDBRANCH   1  11
BRANCH   4  23
HETATM   23  C   UNL     1     -43.266  59.960 -54.968  1.00  0.00     0.409 C 
HETATM   24  F   UNL     1     -44.088  60.551 -55.862  1.00  0.00    -0.169 F 
HETATM   25  F   UNL     1     -44.028  59.265 -54.100  1.00  0.00    -0.169 F 
HETATM   26  F   UNL     1     -42.690  60.964 -54.254  1.00  0.00    -0.169 F 
ENDBRANCH   4  23
BRANCH   6  27
HETATM   27  C   UNL     1     -44.005  56.820 -58.169  1.00  0.00    -0.035 A 
HETATM   28  C   UNL     1     -44.907  57.488 -59.017  1.00  0.00     0.012 A 
HETATM   29  C   UNL     1     -45.284  56.924 -60.238  1.00  0.00     0.043 A 
HETATM   30  C   UNL     1     -44.766  55.690 -60.613  1.00  0.00     0.116 A 
HETATM   31  F   UNL     1     -45.133  55.148 -61.781  1.00  0.00    -0.206 F 
HETATM   32  C   UNL     1     -43.877  55.010 -59.792  1.00  0.00     0.043 A 
HETATM   33  C   UNL     1     -43.496  55.571 -58.572  1.00  0.00     0.012 A 
ENDBRANCH   6  27
TORSDOF 5
ENDMDL
MODEL 3
REMARK VINA RESULT:      -9.1      3.546      7.495
REMARK  5 active torsions:
REMARK  status: ('A' for Active; 'I' for Inactive)
REMARK    1  A    between atoms: C_3  and  O_4 
REMARK    2  A    between atoms: C_6  and  N_7 
REMARK       I    between atoms: N_7  and  C_8 
REMARK    3  A    between atoms: C_8  and  C_9 
REMARK    4  A    between atoms: C_12  and  C_13 
REMARK    5  A    between atoms: C_18  and  C_19 
ROOT
HETATM    1  C   UNL     1     -42.989  56.423 -54.484  1.00  0.00     0.096 A 
HETATM    2  C   UNL     1     -42.327  55.636 -53.560  1.00  0.00     0.138 A 
HETATM    3  N   UNL     1     -42.643  56.164 -52.331  1.00  0.00    -0.240 N 
HETATM    4  C   UNL     1     -42.144  55.665 -51.063  1.00  0.00     0.221 C 
HETATM    5  C   UNL     1     -41.646  54.220 -51.236  1.00  0.00     0.066 C 
HETATM    6  C   UNL     1     -40.764  54.090 -52.490  1.00  0.00     0.118 C 
HETATM    7  N   UNL     1     -41.506  54.553 -53.670  1.00  0.00    -0.365 N 
HETATM    8  N   UNL     1     -43.473  57.215 -52.382  1.00  0.00    -0.181 NA
HETATM    9  C   UNL     1     -43.649  57.398 -53.694  1.00  0.00     0.160 A 
HETATM   10  H   UNL     1     -40.952  54.456 -54.526  1.00  0.00     0.161 HD
ENDROOT
BRANCH   1  11
HETATM   11  C   UNL     1     -43.039  56.319 -55.933  1.00  0.00     0.261 C 
HETATM   12  N   UNL     1     -43.117  57.545 -56.567  1.00  0.00    -0.323 N 
HETATM   13  H   UNL     1     -43.011  58.352 -55.961  1.00  0.00     0.169 HD
HETATM   14  O   UNL     1     -42.964  55.226 -56.480  1.00  0.00    -0.267 OA
BRANCH  12  15
HETATM   15  C   UNL     1     -43.206  57.796 -57.950  1.00  0.00     0.037 A 
HETATM   16  C   UNL     1     -44.374  57.639 -58.697  1.00  0.00     0.066 A 
HETATM   17  C   UNL     1     -44.371  57.917 -60.064  1.00  0.00     0.067 A 
HETATM   18  C   UNL     1     -43.216  58.348 -60.708  1.00  0.00     0.036 A 
HETATM   19  C   UNL     1     -42.047  58.511 -59.967  1.00  0.00     0.005 A 
HETATM   20  C   UNL     1     -42.044  58.242 -58.595  1.00  0.00     0.029 A 
BRANCH  17  21
HETATM   21  O   UNL     1     -45.541  57.755 -60.747  1.00  0.00    -0.361 OA
HETATM   22  H   UNL     1     -45.343  57.670 -61.695  1.00  0.00     0.217 HD
ENDBRANCH  17  21
ENDBRANCH  12  15
ENDBRANCH   1  11
BRANCH   4  23
HETATM   23  C   UNL     1     -41.062  56.583 -50.534  1.00  0.00     0.409 C 
HETATM   24  F   UNL     1     -40.482  57.324 -51.503  1.00  0.00    -0.169 F 
HETATM   25  F   UNL     1     -41.499  57.423 -49.574  1.00  0.00    -0.169 F 
HETATM   26  F   UNL     1     -40.069  55.842 -49.972  1.00  0.00    -0.169 F 
ENDBRANCH   4  23
BRANCH   6  27
HETATM   27  C   UNL     1     -40.314  52.654 -52.691  1.00  0.00    -0.035 A 
HETATM   28  C   UNL     1     -40.376  52.033 -53.952  1.00  0.00     0.012 A 
HETATM   29  C   UNL     1     -39.987  50.700 -54.107  1.00  0.00     0.043 A 
HETATM   30  C   UNL     1     -39.541  49.983 -53.003  1.00  0.00     0.116 A 
HETATM   31  F   UNL     1     -39.174  48.704 -53.152  1.00  0.00    -0.206 F 
HETATM   32  C   UNL     1     -39.474  50.573 -51.748  1.00  0.00     0.043 A 
HETATM   33  C   UNL     1     -39.860  51.905 -51.590  1.00  0.00     0.012 A 
ENDBRANCH   6  27
TORSDOF 5
ENDMDL
MODEL 4
REMARK VINA RESULT:      -8.8      3.442      6.804
REMARK  5 active torsions:
REMARK  status: ('A' for Active; 'I' for Inactive)
REMARK    1  A    between atoms: C_3  and  O_4 
REMARK    2  A    between atoms: C_6  and  N_7 
REMARK       I    between atoms: N_7  and  C_8 
REMARK    3  A    between atoms: C_8  and  C_9 
REMARK    4  A    between atoms: C_12  and  C_13 
REMARK    5  A    between atoms: C_18  and  C_19 
ROOT
HETATM    1  C   UNL     1     -44.099  57.877 -54.045  1.00  0.00     0.096 A 
HETATM    2  C   UNL     1     -43.140  57.196 -53.318  1.00  0.00     0.138 A 
HETATM    3  N   UNL     1     -43.092  57.819 -52.094  1.00  0.00    -0.240 N 
HETATM    4  C   UNL     1     -42.200  57.448 -51.012  1.00  0.00     0.221 C 
HETATM    5  C   UNL     1     -41.696  56.011 -51.226  1.00  0.00     0.066 C 
HETATM    6  C   UNL     1     -41.237  55.801 -52.679  1.00  0.00     0.118 C 
HETATM    7  N   UNL     1     -42.331  56.135 -53.601  1.00  0.00    -0.365 N 
HETATM    8  N   UNL     1     -43.958  58.833 -51.961  1.00  0.00    -0.181 NA
HETATM    9  C   UNL     1     -44.539  58.896 -53.162  1.00  0.00     0.160 A 
HETATM   10  H   UNL     1     -42.063  55.982 -54.576  1.00  0.00     0.161 HD
ENDROOT
BRANCH   1  11
HETATM   11  C   UNL     1     -44.586  57.647 -55.395  1.00  0.00     0.261 C 
HETATM   12  N   UNL     1     -43.579  57.372 -56.301  1.00  0.00    -0.323 N 
HETATM   13  H   UNL     1     -42.657  57.251 -55.897  1.00  0.00     0.169 HD
HETATM   14  O   UNL     1     -45.788  57.657 -55.631  1.00  0.00    -0.267 OA
BRANCH  12  15
HETATM   15  C   UNL     1     -43.706  57.130 -57.683  1.00  0.00     0.037 A 
HETATM   16  C   UNL     1     -44.204  58.061 -58.596  1.00  0.00     0.066 A 
HETATM   17  C   UNL     1     -44.288  57.735 -59.949  1.00  0.00     0.067 A 
HETATM   18  C   UNL     1     -43.886  56.488 -60.416  1.00  0.00     0.036 A 
HETATM   19  C   UNL     1     -43.383  55.556 -59.511  1.00  0.00     0.005 A 
HETATM   20  C   UNL     1     -43.288  55.878 -58.153  1.00  0.00     0.029 A 
BRANCH  17  21
HETATM   21  O   UNL     1     -44.775  58.683 -60.801  1.00  0.00    -0.361 OA
HETATM   22  H   UNL     1     -45.675  58.434 -61.069  1.00  0.00     0.217 HD
ENDBRANCH  17  21
ENDBRANCH  12  15
ENDBRANCH   1  11
BRANCH   4  23
HETATM   23  C   UNL     1     -41.063  58.444 -50.914  1.00  0.00     0.409 C 
HETATM   24  F   UNL     1     -40.773  59.029 -52.097  1.00  0.00    -0.169 F 
HETATM   25  F   UNL     1     -41.286  59.421 -50.012  1.00  0.00    -0.169 F 
HETATM   26  F   UNL     1     -39.930  57.806 -50.516  1.00  0.00    -0.169 F 
ENDBRANCH   4  23
BRANCH   6  27
HETATM   27  C   UNL     1     -40.788  54.368 -52.906  1.00  0.00    -0.035 A 
HETATM   28  C   UNL     1     -40.360  53.554 -51.842  1.00  0.00     0.012 A 
HETATM   29  C   UNL     1     -39.920  52.249 -52.078  1.00  0.00     0.043 A 
HETATM   30  C   UNL     1     -39.900  51.758 -53.378  1.00  0.00     0.116 A 
HETATM   31  F   UNL     1     -39.472  50.509 -53.604  1.00  0.00    -0.206 F 
HETATM   32  C   UNL     1     -40.313  52.543 -54.445  1.00  0.00     0.043 A 
HETATM   33  C   UNL     1     -40.756  53.847 -54.212  1.00  0.00     0.012 A 
ENDBRANCH   6  27
TORSDOF 5
ENDMDL
MODEL 5
REMARK VINA RESULT:      -8.2      3.738      7.443
REMARK  5 active torsions:
REMARK  status: ('A' for Active; 'I' for Inactive)
REMARK    1  A    between atoms: C_3  and  O_4 
REMARK    2  A    between atoms: C_6  and  N_7 
REMARK       I    between atoms: N_7  and  C_8 
REMARK    3  A    between atoms: C_8  and  C_9 
REMARK    4  A    between atoms: C_12  and  C_13 
REMARK    5  A    between atoms: C_18  and  C_19 
ROOT
HETATM    1  C   UNL     1     -41.958  55.615 -55.328  1.00  0.00     0.096 A 
HETATM    2  C   UNL     1     -41.978  55.992 -53.998  1.00  0.00     0.138 A 
HETATM    3  N   UNL     1     -41.290  55.010 -53.325  1.00  0.00    -0.240 N 
HETATM    4  C   UNL     1     -41.081  54.981 -51.890  1.00  0.00     0.221 C 
HETATM    5  C   UNL     1     -41.282  56.391 -51.310  1.00  0.00     0.066 C 
HETATM    6  C   UNL     1     -42.564  57.036 -51.866  1.00  0.00     0.118 C 
HETATM    7  N   UNL     1     -42.515  57.056 -53.334  1.00  0.00    -0.365 N 
HETATM    8  N   UNL     1     -40.808  54.040 -54.114  1.00  0.00    -0.181 NA
HETATM    9  C   UNL     1     -41.252  54.386 -55.326  1.00  0.00     0.160 A 
HETATM   10  H   UNL     1     -43.345  57.501 -53.734  1.00  0.00     0.161 HD
ENDROOT
BRANCH   1  11
HETATM   11  C   UNL     1     -42.510  56.283 -56.496  1.00  0.00     0.261 C 
HETATM   12  N   UNL     1     -43.339  55.472 -57.249  1.00  0.00    -0.323 N 
HETATM   13  H   UNL     1     -43.549  54.570 -56.838  1.00  0.00     0.169 HD
HETATM   14  O   UNL     1     -42.267  57.464 -56.707  1.00  0.00    -0.267 OA
BRANCH  12  15
HETATM   15  C   UNL     1     -44.007  55.798 -58.445  1.00  0.00     0.037 A 
HETATM   16  C   UNL     1     -44.085  54.950 -59.551  1.00  0.00     0.066 A 
HETATM   17  C   UNL     1     -44.774  55.356 -60.694  1.00  0.00     0.067 A 
HETATM   18  C   UNL     1     -45.389  56.601 -60.759  1.00  0.00     0.036 A 
HETATM   19  C   UNL     1     -45.319  57.451 -59.658  1.00  0.00     0.005 A 
HETATM   20  C   UNL     1     -44.637  57.049 -58.505  1.00  0.00     0.029 A 
BRANCH  17  21
HETATM   21  O   UNL     1     -44.827  54.487 -61.744  1.00  0.00    -0.361 OA
HETATM   22  H   UNL     1     -45.094  54.973 -62.542  1.00  0.00     0.217 HD
ENDBRANCH  17  21
ENDBRANCH  12  15
ENDBRANCH   1  11
BRANCH   4  23
HETATM   23  C   UNL     1     -42.004  53.963 -51.252  1.00  0.00     0.409 C 
HETATM   24  F   UNL     1     -42.386  54.310 -50.004  1.00  0.00    -0.169 F 
HETATM   25  F   UNL     1     -43.116  53.725 -51.976  1.00  0.00    -0.169 F 
HETATM   26  F   UNL     1     -41.358  52.771 -51.137  1.00  0.00    -0.169 F 
ENDBRANCH   4  23
BRANCH   6  27
HETATM   27  C   UNL     1     -42.737  58.447 -51.334  1.00  0.00    -0.035 A 
HETATM   28  C   UNL     1     -43.992  59.082 -51.328  1.00  0.00     0.012 A 
HETATM   29  C   UNL     1     -44.122  60.394 -50.865  1.00  0.00     0.043 A 
HETATM   30  C   UNL     1     -42.999  61.076 -50.413  1.00  0.00     0.116 A 
HETATM   31  F   UNL     1     -43.124  62.335 -49.975  1.00  0.00    -0.206 F 
HETATM   32  C   UNL     1     -41.749  60.472 -50.413  1.00  0.00     0.043 A 
HETATM   33  C   UNL     1     -41.616  59.161 -50.873  1.00  0.00     0.012 A 
ENDBRANCH   6  27
TORSDOF 5
ENDMDL
MODEL 6
REMARK VINA RESULT:      -8.0      1.790      1.870
REMARK  5 active torsions:
REMARK  status: ('A' for Active; 'I' for Inactive)
REMARK    1  A    between atoms: C_3  and  O_4 
REMARK    2  A    between atoms: C_6  and  N_7 
REMARK       I    between atoms: N_7  and  C_8 
REMARK    3  A    between atoms: C_8  and  C_9 
REMARK    4  A    between atoms: C_12  and  C_13 
REMARK    5  A    between atoms: C_18  and  C_19 
ROOT
HETATM    1  C   UNL     1     -41.875  55.740 -53.024  1.00  0.00     0.096 A 
HETATM    2  C   UNL     1     -42.620  56.718 -53.656  1.00  0.00     0.138 A 
HETATM    3  N   UNL     1     -42.336  57.887 -52.993  1.00  0.00    -0.240 N 
HETATM    4  C   UNL     1     -42.919  59.178 -53.304  1.00  0.00     0.221 C 
HETATM    5  C   UNL     1     -43.483  59.159 -54.735  1.00  0.00     0.066 C 
HETATM    6  C   UNL     1     -44.310  57.886 -54.982  1.00  0.00     0.118 C 
HETATM    7  N   UNL     1     -43.491  56.698 -54.706  1.00  0.00    -0.365 N 
HETATM    8  N   UNL     1     -41.450  57.750 -51.996  1.00  0.00    -0.181 NA
HETATM    9  C   UNL     1     -41.204  56.437 -51.988  1.00  0.00     0.160 A 
HETATM   10  H   UNL     1     -44.008  55.833 -54.884  1.00  0.00     0.161 HD
ENDROOT
BRANCH   1  11
HETATM   11  C   UNL     1     -41.763  54.319 -53.311  1.00  0.00     0.261 C 
HETATM   12  N   UNL     1     -40.672  53.723 -52.707  1.00  0.00    -0.323 N 
HETATM   13  H   UNL     1     -40.164  54.312 -52.056  1.00  0.00     0.169 HD
HETATM   14  O   UNL     1     -42.613  53.754 -53.987  1.00  0.00    -0.267 OA
BRANCH  12  15
HETATM   15  C   UNL     1     -40.263  52.378 -52.801  1.00  0.00     0.037 A 
HETATM   16  C   UNL     1     -39.867  51.604 -51.709  1.00  0.00     0.066 A 
HETATM   17  C   UNL     1     -39.483  50.277 -51.897  1.00  0.00     0.067 A 
HETATM   18  C   UNL     1     -39.481  49.701 -53.163  1.00  0.00     0.036 A 
HETATM   19  C   UNL     1     -39.878  50.467 -54.257  1.00  0.00     0.005 A 
HETATM   20  C   UNL     1     -40.273  51.796 -54.076  1.00  0.00     0.029 A 
BRANCH  17  21
HETATM   21  O   UNL     1     -39.113  49.562 -50.796  1.00  0.00    -0.361 OA
HETATM   22  H   UNL     1     -38.374  48.977 -51.034  1.00  0.00     0.217 HD
ENDBRANCH  17  21
ENDBRANCH  12  15
ENDBRANCH   1  11
BRANCH   4  23
HETATM   23  C   UNL     1     -43.975  59.531 -52.278  1.00  0.00     0.409 C 
HETATM   24  F   UNL     1     -44.953  60.317 -52.779  1.00  0.00    -0.169 F 
HETATM   25  F   UNL     1     -44.557  58.451 -51.719  1.00  0.00    -0.169 F 
HETATM   26  F   UNL     1     -43.406  60.231 -51.259  1.00  0.00    -0.169 F 
ENDBRANCH   4  23
BRANCH   6  27
HETATM   27  C   UNL     1     -44.825  57.840 -56.410  1.00  0.00    -0.035 A 
HETATM   28  C   UNL     1     -44.010  57.409 -57.473  1.00  0.00     0.012 A 
HETATM   29  C   UNL     1     -44.494  57.407 -58.783  1.00  0.00     0.043 A 
HETATM   30  C   UNL     1     -45.790  57.839 -59.036  1.00  0.00     0.116 A 
HETATM   31  F   UNL     1     -46.251  57.842 -60.293  1.00  0.00    -0.206 F 
HETATM   32  C   UNL     1     -46.613  58.272 -58.004  1.00  0.00     0.043 A 
HETATM   33  C   UNL     1     -46.133  58.274 -56.693  1.00  0.00     0.012 A 
ENDBRANCH   6  27
TORSDOF 5
ENDMDL
MODEL 7
REMARK VINA RESULT:      -8.0      3.830      7.035
REMARK  5 active torsions:
REMARK  status: ('A' for Active; 'I' for Inactive)
REMARK    1  A    between atoms: C_3  and  O_4 
REMARK    2  A    between atoms: C_6  and  N_7 
REMARK       I    between atoms: N_7  and  C_8 
REMARK    3  A    between atoms: C_8  and  C_9 
REMARK    4  A    between atoms: C_12  and  C_13 
REMARK    5  A    between atoms: C_18  and  C_19 
ROOT
HETATM    1  C   UNL     1     -43.567  56.889 -52.387  1.00  0.00     0.096 A 
HETATM    2  C   UNL     1     -43.253  56.244 -53.569  1.00  0.00     0.138 A 
HETATM    3  N   UNL     1     -42.797  55.001 -53.201  1.00  0.00    -0.240 N 
HETATM    4  C   UNL     1     -42.329  53.985 -54.125  1.00  0.00     0.221 C 
HETATM    5  C   UNL     1     -42.864  54.283 -55.536  1.00  0.00     0.066 C 
HETATM    6  C   UNL     1     -42.670  55.766 -55.895  1.00  0.00     0.118 C 
HETATM    7  N   UNL     1     -43.314  56.612 -54.881  1.00  0.00    -0.365 N 
HETATM    8  N   UNL     1     -42.812  54.780 -51.879  1.00  0.00    -0.181 NA
HETATM    9  C   UNL     1     -43.239  55.944 -51.382  1.00  0.00     0.160 A 
HETATM   10  H   UNL     1     -43.222  57.607 -55.104  1.00  0.00     0.161 HD
ENDROOT
BRANCH   1  11
HETATM   11  C   UNL     1     -44.113  58.218 -52.165  1.00  0.00     0.261 C 
HETATM   12  N   UNL     1     -43.666  58.805 -50.995  1.00  0.00    -0.323 N 
HETATM   13  H   UNL     1     -42.938  58.295 -50.508  1.00  0.00     0.169 HD
HETATM   14  O   UNL     1     -44.849  58.733 -52.997  1.00  0.00    -0.267 OA
BRANCH  12  15
HETATM   15  C   UNL     1     -44.019  60.065 -50.475  1.00  0.00     0.037 A 
HETATM   16  C   UNL     1     -45.191  60.314 -49.758  1.00  0.00     0.066 A 
HETATM   17  C   UNL     1     -45.454  61.594 -49.274  1.00  0.00     0.067 A 
HETATM   18  C   UNL     1     -44.569  62.644 -49.496  1.00  0.00     0.036 A 
HETATM   19  C   UNL     1     -43.396  62.403 -50.207  1.00  0.00     0.005 A 
HETATM   20  C   UNL     1     -43.120  61.119 -50.688  1.00  0.00     0.029 A 
BRANCH  17  21
HETATM   21  O   UNL     1     -46.609  61.782 -48.573  1.00  0.00    -0.361 OA
HETATM   22  H   UNL     1     -46.498  62.545 -47.981  1.00  0.00     0.217 HD
ENDBRANCH  17  21
ENDBRANCH  12  15
ENDBRANCH   1  11
BRANCH   4  23
HETATM   23  C   UNL     1     -40.817  53.911 -54.091  1.00  0.00     0.409 C 
HETATM   24  F   UNL     1     -40.283  53.523 -55.270  1.00  0.00    -0.169 F 
HETATM   25  F   UNL     1     -40.235  55.073 -53.734  1.00  0.00    -0.169 F 
HETATM   26  F   UNL     1     -40.425  52.988 -53.172  1.00  0.00    -0.169 F 
ENDBRANCH   4  23
BRANCH   6  27
HETATM   27  C   UNL     1     -43.244  56.074 -57.266  1.00  0.00    -0.035 A 
HETATM   28  C   UNL     1     -43.827  57.320 -57.558  1.00  0.00     0.012 A 
HETATM   29  C   UNL     1     -44.379  57.570 -58.816  1.00  0.00     0.043 A 
HETATM   30  C   UNL     1     -44.355  56.573 -59.785  1.00  0.00     0.116 A 
HETATM   31  F   UNL     1     -44.889  56.812 -60.989  1.00  0.00    -0.206 F 
HETATM   32  C   UNL     1     -43.788  55.334 -59.521  1.00  0.00     0.043 A 
HETATM   33  C   UNL     1     -43.234  55.082 -58.264  1.00  0.00     0.012 A 
ENDBRANCH   6  27
TORSDOF 5
ENDMDL
MODEL 8
REMARK VINA RESULT:      -8.0      3.308      7.233
REMARK  5 active torsions:
REMARK  status: ('A' for Active; 'I' for Inactive)
REMARK    1  A    between atoms: C_3  and  O_4 
REMARK    2  A    between atoms: C_6  and  N_7 
REMARK       I    between atoms: N_7  and  C_8 
REMARK    3  A    between atoms: C_8  and  C_9 
REMARK    4  A    between atoms: C_12  and  C_13 
REMARK    5  A    between atoms: C_18  and  C_19 
ROOT
HETATM    1  C   UNL     1     -41.923  54.063 -54.356  1.00  0.00     0.096 A 
HETATM    2  C   UNL     1     -41.685  54.738 -53.173  1.00  0.00     0.138 A 
HETATM    3  N   UNL     1     -40.835  53.934 -52.452  1.00  0.00    -0.240 N 
HETATM    4  C   UNL     1     -40.335  54.237 -51.125  1.00  0.00     0.221 C 
HETATM    5  C   UNL     1     -40.470  55.745 -50.853  1.00  0.00     0.066 C 
HETATM    6  C   UNL     1     -41.864  56.253 -51.262  1.00  0.00     0.118 C 
HETATM    7  N   UNL     1     -42.118  55.931 -52.673  1.00  0.00    -0.365 N 
HETATM    8  N   UNL     1     -40.485  52.803 -53.082  1.00  0.00    -0.181 NA
HETATM    9  C   UNL     1     -41.181  52.862 -54.220  1.00  0.00     0.160 A 
HETATM   10  H   UNL     1     -43.030  56.278 -52.981  1.00  0.00     0.161 HD
ENDROOT
BRANCH   1  11
HETATM   11  C   UNL     1     -42.729  54.446 -55.503  1.00  0.00     0.261 C 
HETATM   12  N   UNL     1     -42.344  55.648 -56.066  1.00  0.00    -0.323 N 
HETATM   13  H   UNL     1     -41.490  56.046 -55.691  1.00  0.00     0.169 HD
HETATM   14  O   UNL     1     -43.616  53.706 -55.912  1.00  0.00    -0.267 OA
BRANCH  12  15
HETATM   15  C   UNL     1     -42.928  56.311 -57.164  1.00  0.00     0.037 A 
HETATM   16  C   UNL     1     -42.926  55.813 -58.467  1.00  0.00     0.066 A 
HETATM   17  C   UNL     1     -43.535  56.537 -59.491  1.00  0.00     0.067 A 
HETATM   18  C   UNL     1     -44.147  57.761 -59.242  1.00  0.00     0.036 A 
HETATM   19  C   UNL     1     -44.156  58.263 -57.942  1.00  0.00     0.005 A 
HETATM   20  C   UNL     1     -43.555  57.538 -56.908  1.00  0.00     0.029 A 
BRANCH  17  21
HETATM   21  O   UNL     1     -43.513  56.003 -60.747  1.00  0.00    -0.361 OA
HETATM   22  H   UNL     1     -42.887  55.260 -60.762  1.00  0.00     0.217 HD
ENDBRANCH  17  21
ENDBRANCH  12  15
ENDBRANCH   1  11
BRANCH   4  23
HETATM   23  C   UNL     1     -41.065  53.403 -50.093  1.00  0.00     0.409 C 
HETATM   24  F   UNL     1     -40.504  52.188 -49.908  1.00  0.00    -0.169 F 
HETATM   25  F   UNL     1     -41.158  54.005 -48.890  1.00  0.00    -0.169 F 
HETATM   26  F   UNL     1     -42.340  53.176 -50.508  1.00  0.00    -0.169 F 
ENDBRANCH   4  23
BRANCH   6  27
HETATM   27  C   UNL     1     -41.983  57.751 -51.043  1.00  0.00    -0.035 A 
HETATM   28  C   UNL     1     -40.941  58.495 -50.460  1.00  0.00     0.012 A 
HETATM   29  C   UNL     1     -41.085  59.866 -50.238  1.00  0.00     0.043 A 
HETATM   30  C   UNL     1     -42.271  60.497 -50.592  1.00  0.00     0.116 A 
HETATM   31  F   UNL     1     -42.411  61.810 -50.373  1.00  0.00    -0.206 F 
HETATM   32  C   UNL     1     -43.315  59.784 -51.166  1.00  0.00     0.043 A 
HETATM   33  C   UNL     1     -43.174  58.414 -51.391  1.00  0.00     0.012 A 
ENDBRANCH   6  27
TORSDOF 5
ENDMDL
MODEL 9
REMARK VINA RESULT:      -7.9     15.832     17.347
REMARK  5 active torsions:
REMARK  status: ('A' for Active; 'I' for Inactive)
REMARK    1  A    between atoms: C_3  and  O_4 
REMARK    2  A    between atoms: C_6  and  N_7 
REMARK       I    between atoms: N_7  and  C_8 
REMARK    3  A    between atoms: C_8  and  C_9 
REMARK    4  A    between atoms: C_12  and  C_13 
REMARK    5  A    between atoms: C_18  and  C_19 
ROOT
HETATM    1  C   UNL     1     -38.314  39.062 -51.082  1.00  0.00     0.096 A 
HETATM    2  C   UNL     1     -37.339  39.626 -51.883  1.00  0.00     0.138 A 
HETATM    3  N   UNL     1     -36.140  39.279 -51.307  1.00  0.00    -0.240 N 
HETATM    4  C   UNL     1     -34.837  39.679 -51.803  1.00  0.00     0.221 C 
HETATM    5  C   UNL     1     -34.951  40.098 -53.278  1.00  0.00     0.066 C 
HETATM    6  C   UNL     1     -36.152  41.035 -53.492  1.00  0.00     0.118 C 
HETATM    7  N   UNL     1     -37.381  40.385 -53.016  1.00  0.00    -0.365 N 
HETATM    8  N   UNL     1     -36.260  38.517 -50.211  1.00  0.00    -0.181 NA
HETATM    9  C   UNL     1     -37.582  38.422 -50.050  1.00  0.00     0.160 A 
HETATM   10  H   UNL     1     -38.204  40.976 -53.166  1.00  0.00     0.161 HD
ENDROOT
BRANCH   1  11
HETATM   11  C   UNL     1     -39.761  39.082 -51.219  1.00  0.00     0.261 C 
HETATM   12  N   UNL     1     -40.382  37.994 -50.633  1.00  0.00    -0.323 N 
HETATM   13  H   UNL     1     -39.773  37.392 -50.089  1.00  0.00     0.169 HD
HETATM   14  O   UNL     1     -40.319  40.025 -51.765  1.00  0.00    -0.267 OA
BRANCH  12  15
HETATM   15  C   UNL     1     -41.759  37.698 -50.608  1.00  0.00     0.037 A 
HETATM   16  C   UNL     1     -42.619  38.073 -49.575  1.00  0.00     0.066 A 
HETATM   17  C   UNL     1     -43.972  37.741 -49.639  1.00  0.00     0.067 A 
HETATM   18  C   UNL     1     -44.489  37.033 -50.718  1.00  0.00     0.036 A 
HETATM   19  C   UNL     1     -43.637  36.658 -51.755  1.00  0.00     0.005 A 
HETATM   20  C   UNL     1     -42.281  36.995 -51.703  1.00  0.00     0.029 A 
BRANCH  17  21
HETATM   21  O   UNL     1     -44.772  38.138 -48.608  1.00  0.00    -0.361 OA
HETATM   22  H   UNL     1     -45.637  38.401 -48.963  1.00  0.00     0.217 HD
ENDBRANCH  17  21
ENDBRANCH  12  15
ENDBRANCH   1  11
BRANCH   4  23
HETATM   23  C   UNL     1     -34.271  40.785 -50.937  1.00  0.00     0.409 C 
HETATM   24  F   UNL     1     -35.216  41.642 -50.494  1.00  0.00    -0.169 F 
HETATM   25  F   UNL     1     -33.591  40.328 -49.866  1.00  0.00    -0.169 F 
HETATM   26  F   UNL     1     -33.390  41.527 -51.662  1.00  0.00    -0.169 F 
ENDBRANCH   4  23
BRANCH   6  27
HETATM   27  C   UNL     1     -36.298  41.408 -54.956  1.00  0.00    -0.035 A 
HETATM   28  C   UNL     1     -37.505  41.208 -55.651  1.00  0.00     0.012 A 
HETATM   29  C   UNL     1     -37.605  41.528 -57.007  1.00  0.00     0.043 A 
HETATM   30  C   UNL     1     -36.500  42.043 -57.673  1.00  0.00     0.116 A 
HETATM   31  F   UNL     1     -36.597  42.343 -58.974  1.00  0.00    -0.206 F 
HETATM   32  C   UNL     1     -35.298  42.246 -57.011  1.00  0.00     0.043 A 
HETATM   33  C   UNL     1     -35.194  41.929 -55.655  1.00  0.00     0.012 A 
ENDBRANCH   6  27
TORSDOF 5
ENDMDL
MODEL 10
REMARK VINA RESULT:      -7.8      2.196      5.378
REMARK  5 active torsions:
REMARK  status: ('A' for Active; 'I' for Inactive)
REMARK    1  A    between atoms: C_3  and  O_4 
REMARK    2  A    between atoms: C_6  and  N_7 
REMARK       I    between atoms: N_7  and  C_8 
REMARK    3  A    between atoms: C_8  and  C_9 
REMARK    4  A    between atoms: C_12  and  C_13 
REMARK    5  A    between atoms: C_18  and  C_19 
ROOT
HETATM    1  C   UNL     1     -42.820  55.590 -56.412  1.00  0.00     0.096 A 
HETATM    2  C   UNL     1     -42.739  56.948 -56.163  1.00  0.00     0.138 A 
HETATM    3  N   UNL     1     -43.106  57.562 -57.336  1.00  0.00    -0.240 N 
HETATM    4  C   UNL     1     -43.142  58.998 -57.542  1.00  0.00     0.221 C 
HETATM    5  C   UNL     1     -43.205  59.714 -56.182  1.00  0.00     0.066 C 
HETATM    6  C   UNL     1     -42.174  59.125 -55.204  1.00  0.00     0.118 C 
HETATM    7  N   UNL     1     -42.389  57.678 -55.065  1.00  0.00    -0.365 N 
HETATM    8  N   UNL     1     -43.439  56.714 -58.318  1.00  0.00    -0.181 NA
HETATM    9  C   UNL     1     -43.224  55.515 -57.770  1.00  0.00     0.160 A 
HETATM   10  H   UNL     1     -41.732  57.260 -54.402  1.00  0.00     0.161 HD
ENDROOT
BRANCH   1  11
HETATM   11  C   UNL     1     -42.568  54.462 -55.531  1.00  0.00     0.261 C 
HETATM   12  N   UNL     1     -41.320  54.498 -54.938  1.00  0.00    -0.323 N 
HETATM   13  H   UNL     1     -40.793  55.350 -55.095  1.00  0.00     0.169 HD
HETATM   14  O   UNL     1     -43.438  53.622 -55.336  1.00  0.00    -0.267 OA
BRANCH  12  15
HETATM   15  C   UNL     1     -40.756  53.553 -54.060  1.00  0.00     0.037 A 
HETATM   16  C   UNL     1     -40.284  52.301 -54.459  1.00  0.00     0.066 A 
HETATM   17  C   UNL     1     -39.735  51.431 -53.518  1.00  0.00     0.067 A 
HETATM   18  C   UNL     1     -39.649  51.783 -52.175  1.00  0.00     0.036 A 
HETATM   19  C   UNL     1     -40.114  53.032 -51.771  1.00  0.00     0.005 A 
HETATM   20  C   UNL     1     -40.659  53.914 -52.709  1.00  0.00     0.029 A 
BRANCH  17  21
HETATM   21  O   UNL     1     -39.281  50.222 -53.961  1.00  0.00    -0.361 OA
HETATM   22  H   UNL     1     -38.601  50.370 -54.639  1.00  0.00     0.217 HD
ENDBRANCH  17  21
ENDBRANCH  12  15
ENDBRANCH   1  11
BRANCH   4  23
HETATM   23  C   UNL     1     -41.947  59.434 -58.364  1.00  0.00     0.409 C 
HETATM   24  F   UNL     1     -41.331  60.524 -57.858  1.00  0.00    -0.169 F 
HETATM   25  F   UNL     1     -41.021  58.465 -58.512  1.00  0.00    -0.169 F 
HETATM   26  F   UNL     1     -42.354  59.771 -59.618  1.00  0.00    -0.169 F 
ENDBRANCH   4  23
BRANCH   6  27
HETATM   27  C   UNL     1     -42.268  59.795 -53.845  1.00  0.00    -0.035 A 
HETATM   28  C   UNL     1     -41.651  59.244 -52.708  1.00  0.00     0.012 A 
HETATM   29  C   UNL     1     -41.780  59.860 -51.461  1.00  0.00     0.043 A 
HETATM   30  C   UNL     1     -42.529  61.025 -51.346  1.00  0.00     0.116 A 
HETATM   31  F   UNL     1     -42.656  61.612 -50.149  1.00  0.00    -0.206 F 
HETATM   32  C   UNL     1     -43.150  61.587 -52.453  1.00  0.00     0.043 A 
HETATM   33  C   UNL     1     -43.022  60.974 -53.701  1.00  0.00     0.012 A 
ENDBRANCH   6  27
TORSDOF 5
ENDMDL
