MODEL 1
REMARK VINA RESULT:      -7.7      0.000      0.000
REMARK  8 active torsions:
REMARK  status: ('A' for Active; 'I' for Inactive)
REMARK    1  A    between atoms: C_2  and  O_3 
REMARK    2  A    between atoms: C_2  and  C_4 
REMARK    3  A    between atoms: C_4  and  N_5 
REMARK       I    between atoms: N_5  and  C_6 
REMARK    4  A    between atoms: C_6  and  C_7 
REMARK    5  A    between atoms: C_10  and  O_11 
REMARK    6  A    between atoms: O_11  and  C_12 
REMARK    7  A    between atoms: C_15  and  O_16 
REMARK    8  A    between atoms: O_16  and  C_17 
ROOT
HETATM    1  C   UNL     1     -43.901  59.410 -51.783  1.00  0.00     0.049 A 
HETATM    2  C   UNL     1     -43.710  59.687 -53.130  1.00  0.00     0.136 A 
HETATM    3  N   UNL     1     -43.663  58.742 -54.102  1.00  0.00    -0.236 NA
HETATM    4  C   UNL     1     -43.800  57.456 -53.706  1.00  0.00     0.169 A 
HETATM    5  C   UNL     1     -43.935  57.070 -52.382  1.00  0.00     0.059 A 
HETATM    6  C   UNL     1     -43.995  58.065 -51.408  1.00  0.00     0.023 A 
ENDROOT
BRANCH   4   7
HETATM    7  O   UNL     1     -43.738  56.445 -54.650  1.00  0.00    -0.292 OA
BRANCH   7   8
HETATM    8  C   UNL     1     -42.681  55.564 -54.587  1.00  0.00     0.078 A 
HETATM    9  C   UNL     1     -43.019  54.212 -54.500  1.00  0.00     0.040 A 
HETATM   10  C   UNL     1     -42.019  53.237 -54.495  1.00  0.00     0.040 A 
HETATM   11  C   UNL     1     -40.677  53.608 -54.599  1.00  0.00     0.076 A 
HETATM   12  C   UNL     1     -40.336  54.961 -54.677  1.00  0.00     0.040 A 
HETATM   13  C   UNL     1     -41.337  55.935 -54.692  1.00  0.00     0.040 A 
BRANCH  11  14
HETATM   14  O   UNL     1     -39.758  52.582 -54.552  1.00  0.00    -0.311 OA
BRANCH  14  15
HETATM   15  C   UNL     1     -39.773  51.749 -53.459  1.00  0.00     0.076 A 
HETATM   16  C   UNL     1     -39.656  50.380 -53.697  1.00  0.00     0.037 A 
HETATM   17  C   UNL     1     -39.631  49.489 -52.624  1.00  0.00     0.003 A 
HETATM   18  C   UNL     1     -39.708  49.969 -51.317  1.00  0.00     0.000 A 
HETATM   19  C   UNL     1     -39.798  51.341 -51.079  1.00  0.00     0.003 A 
HETATM   20  C   UNL     1     -39.820  52.236 -52.150  1.00  0.00     0.037 A 
ENDBRANCH  14  15
ENDBRANCH  11  14
ENDBRANCH   7   8
ENDBRANCH   4   7
BRANCH   1  21
HETATM   21  C   UNL     1     -43.995  60.459 -50.735  1.00  0.00     0.253 C 
HETATM   22  N   UNL     1     -44.816  60.210 -49.653  1.00  0.00    -0.354 N 
HETATM   23  H   UNL     1     -45.148  59.270 -49.493  1.00  0.00     0.162 HD
HETATM   24  O   UNL     1     -43.329  61.482 -50.848  1.00  0.00    -0.268 OA
BRANCH  22  25
HETATM   25  C   UNL     1     -44.817  61.081 -48.487  1.00  0.00     0.154 C 
BRANCH  25  26
HETATM   26  C   UNL     1     -45.609  60.582 -47.267  1.00  0.00     0.132 C 
HETATM   27  C   UNL     1     -46.653  61.586 -46.793  1.00  0.00     0.041 C 
BRANCH  26  28
HETATM   28  O   UNL     1     -46.284  59.376 -47.638  1.00  0.00    -0.394 OA
HETATM   29  H   UNL     1     -47.090  59.324 -47.094  1.00  0.00     0.210 HD
ENDBRANCH  26  28
ENDBRANCH  25  26
ENDBRANCH  22  25
ENDBRANCH   1  21
TORSDOF 8
ENDMDL
MODEL 2
REMARK VINA RESULT:      -7.7      3.552      6.268
REMARK  8 active torsions:
REMARK  status: ('A' for Active; 'I' for Inactive)
REMARK    1  A    between atoms: C_2  and  O_3 
REMARK    2  A    between atoms: C_2  and  C_4 
REMARK    3  A    between atoms: C_4  and  N_5 
REMARK       I    between atoms: N_5  and  C_6 
REMARK    4  A    between atoms: C_6  and  C_7 
REMARK    5  A    between atoms: C_10  and  O_11 
REMARK    6  A    between atoms: O_11  and  C_12 
REMARK    7  A    between atoms: C_15  and  O_16 
REMARK    8  A    between atoms: O_16  and  C_17 
ROOT
HETATM    1  C   UNL     1     -43.581  57.701 -55.650  1.00  0.00     0.049 A 
HETATM    2  C   UNL     1     -42.341  57.700 -55.024  1.00  0.00     0.136 A 
HETATM    3  N   UNL     1     -42.164  57.557 -53.687  1.00  0.00    -0.236 NA
HETATM    4  C   UNL     1     -43.282  57.423 -52.937  1.00  0.00     0.169 A 
HETATM    5  C   UNL     1     -44.566  57.472 -53.456  1.00  0.00     0.059 A 
HETATM    6  C   UNL     1     -44.714  57.604 -54.836  1.00  0.00     0.023 A 
ENDROOT
BRANCH   4   7
HETATM    7  O   UNL     1     -43.168  57.297 -51.563  1.00  0.00    -0.292 OA
BRANCH   7   8
HETATM    8  C   UNL     1     -42.450  56.231 -51.069  1.00  0.00     0.078 A 
HETATM    9  C   UNL     1     -42.958  54.964 -51.364  1.00  0.00     0.040 A 
HETATM   10  C   UNL     1     -42.269  53.819 -50.961  1.00  0.00     0.040 A 
HETATM   11  C   UNL     1     -41.055  53.934 -50.281  1.00  0.00     0.076 A 
HETATM   12  C   UNL     1     -40.549  55.200 -49.975  1.00  0.00     0.040 A 
HETATM   13  C   UNL     1     -41.235  56.346 -50.387  1.00  0.00     0.040 A 
BRANCH  11  14
HETATM   14  O   UNL     1     -40.462  52.751 -49.893  1.00  0.00    -0.311 OA
BRANCH  14  15
HETATM   15  C   UNL     1     -40.120  51.848 -50.871  1.00  0.00     0.076 A 
HETATM   16  C   UNL     1     -40.049  50.504 -50.501  1.00  0.00     0.037 A 
HETATM   17  C   UNL     1     -39.738  49.538 -51.458  1.00  0.00     0.003 A 
HETATM   18  C   UNL     1     -39.516  49.914 -52.783  1.00  0.00     0.000 A 
HETATM   19  C   UNL     1     -39.614  51.256 -53.156  1.00  0.00     0.003 A 
HETATM   20  C   UNL     1     -39.928  52.225 -52.202  1.00  0.00     0.037 A 
ENDBRANCH  14  15
ENDBRANCH  11  14
ENDBRANCH   7   8
ENDBRANCH   4   7
BRANCH   1  21
HETATM   21  C   UNL     1     -43.756  57.813 -57.121  1.00  0.00     0.253 C 
HETATM   22  N   UNL     1     -44.850  57.185 -57.684  1.00  0.00    -0.354 N 
HETATM   23  H   UNL     1     -45.596  56.863 -57.084  1.00  0.00     0.162 HD
HETATM   24  O   UNL     1     -42.955  58.474 -57.773  1.00  0.00    -0.268 OA
BRANCH  22  25
HETATM   25  C   UNL     1     -45.216  57.404 -59.076  1.00  0.00     0.154 C 
BRANCH  25  26
HETATM   26  C   UNL     1     -45.259  56.155 -59.972  1.00  0.00     0.132 C 
HETATM   27  C   UNL     1     -44.224  55.111 -59.576  1.00  0.00     0.041 C 
BRANCH  26  28
HETATM   28  O   UNL     1     -46.558  55.566 -59.851  1.00  0.00    -0.394 OA
HETATM   29  H   UNL     1     -47.206  56.273 -60.021  1.00  0.00     0.210 HD
ENDBRANCH  26  28
ENDBRANCH  25  26
ENDBRANCH  22  25
ENDBRANCH   1  21
TORSDOF 8
ENDMDL
MODEL 3
REMARK VINA RESULT:      -7.5      4.738      6.908
REMARK  8 active torsions:
REMARK  status: ('A' for Active; 'I' for Inactive)
REMARK    1  A    between atoms: C_2  and  O_3 
REMARK    2  A    between atoms: C_2  and  C_4 
REMARK    3  A    between atoms: C_4  and  N_5 
REMARK       I    between atoms: N_5  and  C_6 
REMARK    4  A    between atoms: C_6  and  C_7 
REMARK    5  A    between atoms: C_10  and  O_11 
REMARK    6  A    between atoms: O_11  and  C_12 
REMARK    7  A    between atoms: C_15  and  O_16 
REMARK    8  A    between atoms: O_16  and  C_17 
ROOT
HETATM    1  C   UNL     1     -42.135  59.409 -57.863  1.00  0.00     0.049 A 
HETATM    2  C   UNL     1     -42.310  59.296 -56.490  1.00  0.00     0.136 A 
HETATM    3  N   UNL     1     -42.651  58.146 -55.858  1.00  0.00    -0.236 NA
HETATM    4  C   UNL     1     -42.839  57.057 -56.639  1.00  0.00     0.169 A 
HETATM    5  C   UNL     1     -42.748  57.077 -58.021  1.00  0.00     0.059 A 
HETATM    6  C   UNL     1     -42.381  58.271 -58.639  1.00  0.00     0.023 A 
ENDROOT
BRANCH   4   7
HETATM    7  O   UNL     1     -43.211  55.858 -56.054  1.00  0.00    -0.292 OA
BRANCH   7   8
HETATM    8  C   UNL     1     -42.356  55.293 -55.135  1.00  0.00     0.078 A 
HETATM    9  C   UNL     1     -42.960  54.690 -54.030  1.00  0.00     0.040 A 
HETATM   10  C   UNL     1     -42.182  54.034 -53.073  1.00  0.00     0.040 A 
HETATM   11  C   UNL     1     -40.796  53.960 -53.228  1.00  0.00     0.076 A 
HETATM   12  C   UNL     1     -40.187  54.571 -54.328  1.00  0.00     0.040 A 
HETATM   13  C   UNL     1     -40.968  55.218 -55.290  1.00  0.00     0.040 A 
BRANCH  11  14
HETATM   14  O   UNL     1     -40.106  53.323 -52.219  1.00  0.00    -0.311 OA
BRANCH  14  15
HETATM   15  C   UNL     1     -39.896  51.970 -52.332  1.00  0.00     0.076 A 
HETATM   16  C   UNL     1     -39.774  51.242 -51.147  1.00  0.00     0.037 A 
HETATM   17  C   UNL     1     -39.593  49.860 -51.199  1.00  0.00     0.003 A 
HETATM   18  C   UNL     1     -39.549  49.207 -52.431  1.00  0.00     0.000 A 
HETATM   19  C   UNL     1     -39.698  49.934 -53.614  1.00  0.00     0.003 A 
HETATM   20  C   UNL     1     -39.883  51.316 -53.566  1.00  0.00     0.037 A 
ENDBRANCH  14  15
ENDBRANCH  11  14
ENDBRANCH   7   8
ENDBRANCH   4   7
BRANCH   1  21
HETATM   21  C   UNL     1     -41.717  60.666 -58.536  1.00  0.00     0.253 C 
HETATM   22  N   UNL     1     -42.445  61.073 -59.637  1.00  0.00    -0.354 N 
HETATM   23  H   UNL     1     -43.341  60.646 -59.821  1.00  0.00     0.162 HD
HETATM   24  O   UNL     1     -40.775  61.305 -58.082  1.00  0.00    -0.268 OA
BRANCH  22  25
HETATM   25  C   UNL     1     -42.241  62.384 -60.236  1.00  0.00     0.154 C 
BRANCH  25  26
HETATM   26  C   UNL     1     -41.396  62.421 -61.520  1.00  0.00     0.132 C 
HETATM   27  C   UNL     1     -39.969  62.893 -61.272  1.00  0.00     0.041 C 
BRANCH  26  28
HETATM   28  O   UNL     1     -41.342  61.094 -62.055  1.00  0.00    -0.394 OA
HETATM   29  H   UNL     1     -41.920  61.081 -62.838  1.00  0.00     0.210 HD
ENDBRANCH  26  28
ENDBRANCH  25  26
ENDBRANCH  22  25
ENDBRANCH   1  21
TORSDOF 8
ENDMDL
MODEL 4
REMARK VINA RESULT:      -7.5      2.733      9.992
REMARK  8 active torsions:
REMARK  status: ('A' for Active; 'I' for Inactive)
REMARK    1  A    between atoms: C_2  and  O_3 
REMARK    2  A    between atoms: C_2  and  C_4 
REMARK    3  A    between atoms: C_4  and  N_5 
REMARK       I    between atoms: N_5  and  C_6 
REMARK    4  A    between atoms: C_6  and  C_7 
REMARK    5  A    between atoms: C_10  and  O_11 
REMARK    6  A    between atoms: O_11  and  C_12 
REMARK    7  A    between atoms: C_15  and  O_16 
REMARK    8  A    between atoms: O_16  and  C_17 
ROOT
HETATM    1  C   UNL     1     -40.888  54.588 -51.383  1.00  0.00     0.049 A 
HETATM    2  C   UNL     1     -40.901  55.590 -50.421  1.00  0.00     0.136 A 
HETATM    3  N   UNL     1     -41.311  56.862 -50.652  1.00  0.00    -0.236 NA
HETATM    4  C   UNL     1     -41.717  57.150 -51.910  1.00  0.00     0.169 A 
HETATM    5  C   UNL     1     -41.687  56.240 -52.955  1.00  0.00     0.059 A 
HETATM    6  C   UNL     1     -41.274  54.937 -52.682  1.00  0.00     0.023 A 
ENDROOT
BRANCH   4   7
HETATM    7  O   UNL     1     -42.126  58.438 -52.214  1.00  0.00    -0.292 OA
BRANCH   7   8
HETATM    8  C   UNL     1     -43.158  58.979 -51.479  1.00  0.00     0.078 A 
HETATM    9  C   UNL     1     -42.895  60.210 -50.874  1.00  0.00     0.040 A 
HETATM   10  C   UNL     1     -43.897  60.871 -50.160  1.00  0.00     0.040 A 
HETATM   11  C   UNL     1     -45.175  60.315 -50.068  1.00  0.00     0.076 A 
HETATM   12  C   UNL     1     -45.438  59.079 -50.664  1.00  0.00     0.040 A 
HETATM   13  C   UNL     1     -44.437  58.423 -51.386  1.00  0.00     0.040 A 
BRANCH  11  14
HETATM   14  O   UNL     1     -46.090  61.020 -49.316  1.00  0.00    -0.311 OA
BRANCH  14  15
HETATM   15  C   UNL     1     -45.741  61.370 -48.033  1.00  0.00     0.076 A 
HETATM   16  C   UNL     1     -45.592  62.730 -47.761  1.00  0.00     0.037 A 
HETATM   17  C   UNL     1     -45.272  63.148 -46.469  1.00  0.00     0.003 A 
HETATM   18  C   UNL     1     -45.117  62.207 -45.451  1.00  0.00     0.000 A 
HETATM   19  C   UNL     1     -45.294  60.849 -45.719  1.00  0.00     0.003 A 
HETATM   20  C   UNL     1     -45.617  60.428 -47.009  1.00  0.00     0.037 A 
ENDBRANCH  14  15
ENDBRANCH  11  14
ENDBRANCH   7   8
ENDBRANCH   4   7
BRANCH   1  21
HETATM   21  C   UNL     1     -40.478  53.188 -51.103  1.00  0.00     0.253 C 
HETATM   22  N   UNL     1     -40.015  52.434 -52.164  1.00  0.00    -0.354 N 
HETATM   23  H   UNL     1     -39.766  52.897 -53.026  1.00  0.00     0.162 HD
HETATM   24  O   UNL     1     -40.534  52.764 -49.955  1.00  0.00    -0.268 OA
BRANCH  22  25
HETATM   25  C   UNL     1     -39.404  51.129 -51.955  1.00  0.00     0.154 C 
BRANCH  25  26
HETATM   26  C   UNL     1     -39.917  49.989 -52.850  1.00  0.00     0.132 C 
HETATM   27  C   UNL     1     -39.552  50.182 -54.316  1.00  0.00     0.041 C 
BRANCH  26  28
HETATM   28  O   UNL     1     -39.322  48.767 -52.398  1.00  0.00    -0.394 OA
HETATM   29  H   UNL     1     -38.357  48.880 -52.469  1.00  0.00     0.210 HD
ENDBRANCH  26  28
ENDBRANCH  25  26
ENDBRANCH  22  25
ENDBRANCH   1  21
TORSDOF 8
ENDMDL
MODEL 5
REMARK VINA RESULT:      -7.2      5.305      8.171
REMARK  8 active torsions:
REMARK  status: ('A' for Active; 'I' for Inactive)
REMARK    1  A    between atoms: C_2  and  O_3 
REMARK    2  A    between atoms: C_2  and  C_4 
REMARK    3  A    between atoms: C_4  and  N_5 
REMARK       I    between atoms: N_5  and  C_6 
REMARK    4  A    between atoms: C_6  and  C_7 
REMARK    5  A    between atoms: C_10  and  O_11 
REMARK    6  A    between atoms: O_11  and  C_12 
REMARK    7  A    between atoms: C_15  and  O_16 
REMARK    8  A    between atoms: O_16  and  C_17 
ROOT
HETATM    1  C   UNL     1     -45.191  56.274 -59.712  1.00  0.00     0.049 A 
HETATM    2  C   UNL     1     -45.393  57.292 -58.789  1.00  0.00     0.136 A 
HETATM    3  N   UNL     1     -44.550  57.566 -57.762  1.00  0.00    -0.236 NA
HETATM    4  C   UNL     1     -43.458  56.776 -57.645  1.00  0.00     0.169 A 
HETATM    5  C   UNL     1     -43.196  55.698 -58.477  1.00  0.00     0.059 A 
HETATM    6  C   UNL     1     -44.074  55.452 -59.531  1.00  0.00     0.023 A 
ENDROOT
BRANCH   4   7
HETATM    7  O   UNL     1     -42.572  56.992 -56.604  1.00  0.00    -0.292 OA
BRANCH   7   8
HETATM    8  C   UNL     1     -42.469  56.024 -55.630  1.00  0.00     0.078 A 
HETATM    9  C   UNL     1     -41.177  55.566 -55.359  1.00  0.00     0.040 A 
HETATM   10  C   UNL     1     -40.961  54.631 -54.345  1.00  0.00     0.040 A 
HETATM   11  C   UNL     1     -42.033  54.166 -53.580  1.00  0.00     0.076 A 
HETATM   12  C   UNL     1     -43.327  54.616 -53.854  1.00  0.00     0.040 A 
HETATM   13  C   UNL     1     -43.541  55.558 -54.863  1.00  0.00     0.040 A 
BRANCH  11  14
HETATM   14  O   UNL     1     -41.730  53.221 -52.624  1.00  0.00    -0.311 OA
BRANCH  14  15
HETATM   15  C   UNL     1     -41.314  53.658 -51.389  1.00  0.00     0.076 A 
HETATM   16  C   UNL     1     -39.974  53.451 -51.057  1.00  0.00     0.037 A 
HETATM   17  C   UNL     1     -39.487  53.903 -49.830  1.00  0.00     0.003 A 
HETATM   18  C   UNL     1     -40.334  54.574 -48.947  1.00  0.00     0.000 A 
HETATM   19  C   UNL     1     -41.666  54.804 -49.294  1.00  0.00     0.003 A 
HETATM   20  C   UNL     1     -42.156  54.356 -50.521  1.00  0.00     0.037 A 
ENDBRANCH  14  15
ENDBRANCH  11  14
ENDBRANCH   7   8
ENDBRANCH   4   7
BRANCH   1  21
HETATM   21  C   UNL     1     -46.101  56.014 -60.858  1.00  0.00     0.253 C 
HETATM   22  N   UNL     1     -47.315  56.671 -60.872  1.00  0.00    -0.354 N 
HETATM   23  H   UNL     1     -47.462  57.449 -60.244  1.00  0.00     0.162 HD
HETATM   24  O   UNL     1     -45.737  55.262 -61.755  1.00  0.00    -0.268 OA
BRANCH  22  25
HETATM   25  C   UNL     1     -48.181  56.639 -62.042  1.00  0.00     0.154 C 
BRANCH  25  26
HETATM   26  C   UNL     1     -48.647  58.002 -62.580  1.00  0.00     0.132 C 
HETATM   27  C   UNL     1     -48.521  59.116 -61.550  1.00  0.00     0.041 C 
BRANCH  26  28
HETATM   28  O   UNL     1     -47.829  58.338 -63.706  1.00  0.00    -0.394 OA
HETATM   29  H   UNL     1     -47.171  57.627 -63.800  1.00  0.00     0.210 HD
ENDBRANCH  26  28
ENDBRANCH  25  26
ENDBRANCH  22  25
ENDBRANCH   1  21
TORSDOF 8
ENDMDL
MODEL 6
REMARK VINA RESULT:      -7.2      4.040      8.818
REMARK  8 active torsions:
REMARK  status: ('A' for Active; 'I' for Inactive)
REMARK    1  A    between atoms: C_2  and  O_3 
REMARK    2  A    between atoms: C_2  and  C_4 
REMARK    3  A    between atoms: C_4  and  N_5 
REMARK       I    between atoms: N_5  and  C_6 
REMARK    4  A    between atoms: C_6  and  C_7 
REMARK    5  A    between atoms: C_10  and  O_11 
REMARK    6  A    between atoms: O_11  and  C_12 
REMARK    7  A    between atoms: C_15  and  O_16 
REMARK    8  A    between atoms: O_16  and  C_17 
ROOT
HETATM    1  C   UNL     1     -40.995  54.593 -52.388  1.00  0.00     0.049 A 
HETATM    2  C   UNL     1     -41.482  55.619 -51.588  1.00  0.00     0.136 A 
HETATM    3  N   UNL     1     -41.785  56.860 -52.043  1.00  0.00    -0.236 NA
HETATM    4  C   UNL     1     -41.578  57.092 -53.360  1.00  0.00     0.169 A 
HETATM    5  C   UNL     1     -41.041  56.157 -54.230  1.00  0.00     0.059 A 
HETATM    6  C   UNL     1     -40.754  54.885 -53.735  1.00  0.00     0.023 A 
ENDROOT
BRANCH   4   7
HETATM    7  O   UNL     1     -41.847  58.347 -53.879  1.00  0.00    -0.292 OA
BRANCH   7   8
HETATM    8  C   UNL     1     -42.655  58.428 -54.991  1.00  0.00     0.078 A 
HETATM    9  C   UNL     1     -43.927  57.864 -54.863  1.00  0.00     0.040 A 
HETATM   10  C   UNL     1     -44.844  57.951 -55.913  1.00  0.00     0.040 A 
HETATM   11  C   UNL     1     -44.501  58.622 -57.089  1.00  0.00     0.076 A 
HETATM   12  C   UNL     1     -43.226  59.178 -57.223  1.00  0.00     0.040 A 
HETATM   13  C   UNL     1     -42.314  59.100 -56.168  1.00  0.00     0.040 A 
BRANCH  11  14
HETATM   14  O   UNL     1     -45.455  58.628 -58.083  1.00  0.00    -0.311 OA
BRANCH  14  15
HETATM   15  C   UNL     1     -45.476  57.576 -58.968  1.00  0.00     0.076 A 
HETATM   16  C   UNL     1     -46.720  57.180 -59.459  1.00  0.00     0.037 A 
HETATM   17  C   UNL     1     -46.800  56.140 -60.386  1.00  0.00     0.003 A 
HETATM   18  C   UNL     1     -45.637  55.510 -60.829  1.00  0.00     0.000 A 
HETATM   19  C   UNL     1     -44.391  55.926 -60.356  1.00  0.00     0.003 A 
HETATM   20  C   UNL     1     -44.307  56.968 -59.432  1.00  0.00     0.037 A 
ENDBRANCH  14  15
ENDBRANCH  11  14
ENDBRANCH   7   8
ENDBRANCH   4   7
BRANCH   1  21
HETATM   21  C   UNL     1     -40.710  53.225 -51.884  1.00  0.00     0.253 C 
HETATM   22  N   UNL     1     -39.981  52.383 -52.700  1.00  0.00    -0.354 N 
HETATM   23  H   UNL     1     -39.489  52.768 -53.493  1.00  0.00     0.162 HD
HETATM   24  O   UNL     1     -41.098  52.904 -50.766  1.00  0.00    -0.268 OA
BRANCH  22  25
HETATM   25  C   UNL     1     -39.482  51.104 -52.215  1.00  0.00     0.154 C 
BRANCH  25  26
HETATM   26  C   UNL     1     -39.914  49.860 -53.010  1.00  0.00     0.132 C 
HETATM   27  C   UNL     1     -39.577  49.963 -54.492  1.00  0.00     0.041 C 
BRANCH  26  28
HETATM   28  O   UNL     1     -39.226  48.727 -52.471  1.00  0.00    -0.394 OA
HETATM   29  H   UNL     1     -39.876  48.221 -51.952  1.00  0.00     0.210 HD
ENDBRANCH  26  28
ENDBRANCH  25  26
ENDBRANCH  22  25
ENDBRANCH   1  21
TORSDOF 8
ENDMDL
MODEL 7
REMARK VINA RESULT:      -7.1     16.601     18.985
REMARK  8 active torsions:
REMARK  status: ('A' for Active; 'I' for Inactive)
REMARK    1  A    between atoms: C_2  and  O_3 
REMARK    2  A    between atoms: C_2  and  C_4 
REMARK    3  A    between atoms: C_4  and  N_5 
REMARK       I    between atoms: N_5  and  C_6 
REMARK    4  A    between atoms: C_6  and  C_7 
REMARK    5  A    between atoms: C_10  and  O_11 
REMARK    6  A    between atoms: O_11  and  C_12 
REMARK    7  A    between atoms: C_15  and  O_16 
REMARK    8  A    between atoms: O_16  and  C_17 
ROOT
HETATM    1  C   UNL     1     -33.751  40.224 -50.928  1.00  0.00     0.049 A 
HETATM    2  C   UNL     1     -34.637  39.460 -51.677  1.00  0.00     0.136 A 
HETATM    3  N   UNL     1     -35.606  39.979 -52.471  1.00  0.00    -0.236 NA
HETATM    4  C   UNL     1     -35.704  41.328 -52.508  1.00  0.00     0.169 A 
HETATM    5  C   UNL     1     -34.909  42.177 -51.755  1.00  0.00     0.059 A 
HETATM    6  C   UNL     1     -33.912  41.614 -50.960  1.00  0.00     0.023 A 
ENDROOT
BRANCH   4   7
HETATM    7  O   UNL     1     -36.689  41.916 -53.283  1.00  0.00    -0.292 OA
BRANCH   7   8
HETATM    8  C   UNL     1     -36.552  41.865 -54.652  1.00  0.00     0.078 A 
HETATM    9  C   UNL     1     -37.680  41.450 -55.363  1.00  0.00     0.040 A 
HETATM   10  C   UNL     1     -37.662  41.425 -56.759  1.00  0.00     0.040 A 
HETATM   11  C   UNL     1     -36.523  41.839 -57.453  1.00  0.00     0.076 A 
HETATM   12  C   UNL     1     -35.389  42.246 -56.744  1.00  0.00     0.040 A 
HETATM   13  C   UNL     1     -35.412  42.280 -55.348  1.00  0.00     0.040 A 
BRANCH  11  14
HETATM   14  O   UNL     1     -36.584  41.749 -58.827  1.00  0.00    -0.311 OA
BRANCH  14  15
HETATM   15  C   UNL     1     -36.716  40.502 -59.389  1.00  0.00     0.076 A 
HETATM   16  C   UNL     1     -37.553  40.388 -60.499  1.00  0.00     0.037 A 
HETATM   17  C   UNL     1     -37.701  39.153 -61.132  1.00  0.00     0.003 A 
HETATM   18  C   UNL     1     -37.000  38.041 -60.664  1.00  0.00     0.000 A 
HETATM   19  C   UNL     1     -36.142  38.164 -59.570  1.00  0.00     0.003 A 
HETATM   20  C   UNL     1     -35.989  39.398 -58.937  1.00  0.00     0.037 A 
ENDBRANCH  14  15
ENDBRANCH  11  14
ENDBRANCH   7   8
ENDBRANCH   4   7
BRANCH   1  21
HETATM   21  C   UNL     1     -32.665  39.642 -50.098  1.00  0.00     0.253 C 
HETATM   22  N   UNL     1     -32.989  39.228 -48.821  1.00  0.00    -0.354 N 
HETATM   23  H   UNL     1     -33.961  39.130 -48.566  1.00  0.00     0.162 HD
HETATM   24  O   UNL     1     -31.543  39.522 -50.576  1.00  0.00    -0.268 OA
BRANCH  22  25
HETATM   25  C   UNL     1     -32.050  38.467 -48.010  1.00  0.00     0.154 C 
BRANCH  25  26
HETATM   26  C   UNL     1     -31.072  39.287 -47.152  1.00  0.00     0.132 C 
HETATM   27  C   UNL     1     -30.543  38.507 -45.956  1.00  0.00     0.041 C 
BRANCH  26  28
HETATM   28  O   UNL     1     -29.960  39.656 -47.974  1.00  0.00    -0.394 OA
HETATM   29  H   UNL     1     -29.163  39.587 -47.419  1.00  0.00     0.210 HD
ENDBRANCH  26  28
ENDBRANCH  25  26
ENDBRANCH  22  25
ENDBRANCH   1  21
TORSDOF 8
ENDMDL
MODEL 8
REMARK VINA RESULT:      -7.1      1.728      2.675
REMARK  8 active torsions:
REMARK  status: ('A' for Active; 'I' for Inactive)
REMARK    1  A    between atoms: C_2  and  O_3 
REMARK    2  A    between atoms: C_2  and  C_4 
REMARK    3  A    between atoms: C_4  and  N_5 
REMARK       I    between atoms: N_5  and  C_6 
REMARK    4  A    between atoms: C_6  and  C_7 
REMARK    5  A    between atoms: C_10  and  O_11 
REMARK    6  A    between atoms: O_11  and  C_12 
REMARK    7  A    between atoms: C_15  and  O_16 
REMARK    8  A    between atoms: O_16  and  C_17 
ROOT
HETATM    1  C   UNL     1     -43.799  60.958 -50.229  1.00  0.00     0.049 A 
HETATM    2  C   UNL     1     -44.347  60.978 -51.505  1.00  0.00     0.136 A 
HETATM    3  N   UNL     1     -43.756  60.430 -52.596  1.00  0.00    -0.236 NA
HETATM    4  C   UNL     1     -42.551  59.845 -52.404  1.00  0.00     0.169 A 
HETATM    5  C   UNL     1     -41.892  59.824 -51.185  1.00  0.00     0.059 A 
HETATM    6  C   UNL     1     -42.533  60.382 -50.080  1.00  0.00     0.023 A 
ENDROOT
BRANCH   4   7
HETATM    7  O   UNL     1     -41.887  59.288 -53.484  1.00  0.00    -0.292 OA
BRANCH   7   8
HETATM    8  C   UNL     1     -42.036  57.938 -53.708  1.00  0.00     0.078 A 
HETATM    9  C   UNL     1     -40.864  57.236 -54.000  1.00  0.00     0.040 A 
HETATM   10  C   UNL     1     -40.901  55.851 -54.182  1.00  0.00     0.040 A 
HETATM   11  C   UNL     1     -42.107  55.159 -54.050  1.00  0.00     0.076 A 
HETATM   12  C   UNL     1     -43.282  55.860 -53.767  1.00  0.00     0.040 A 
HETATM   13  C   UNL     1     -43.242  57.244 -53.576  1.00  0.00     0.040 A 
BRANCH  11  14
HETATM   14  O   UNL     1     -42.054  53.801 -54.279  1.00  0.00    -0.311 OA
BRANCH  14  15
HETATM   15  C   UNL     1     -41.118  53.064 -53.593  1.00  0.00     0.076 A 
HETATM   16  C   UNL     1     -41.057  53.238 -52.210  1.00  0.00     0.037 A 
HETATM   17  C   UNL     1     -40.150  52.493 -51.456  1.00  0.00     0.003 A 
HETATM   18  C   UNL     1     -39.318  51.566 -52.084  1.00  0.00     0.000 A 
HETATM   19  C   UNL     1     -39.399  51.374 -53.464  1.00  0.00     0.003 A 
HETATM   20  C   UNL     1     -40.308  52.115 -54.221  1.00  0.00     0.037 A 
ENDBRANCH  14  15
ENDBRANCH  11  14
ENDBRANCH   7   8
ENDBRANCH   4   7
BRANCH   1  21
HETATM   21  C   UNL     1     -44.480  61.523 -49.035  1.00  0.00     0.253 C 
HETATM   22  N   UNL     1     -45.185  60.651 -48.229  1.00  0.00    -0.354 N 
HETATM   23  H   UNL     1     -45.047  59.657 -48.339  1.00  0.00     0.162 HD
HETATM   24  O   UNL     1     -44.369  62.719 -48.791  1.00  0.00    -0.268 OA
BRANCH  22  25
HETATM   25  C   UNL     1     -45.712  61.071 -46.939  1.00  0.00     0.154 C 
BRANCH  25  26
HETATM   26  C   UNL     1     -44.734  61.013 -45.754  1.00  0.00     0.132 C 
HETATM   27  C   UNL     1     -44.769  62.273 -44.900  1.00  0.00     0.041 C 
BRANCH  26  28
HETATM   28  O   UNL     1     -45.101  59.902 -44.928  1.00  0.00    -0.394 OA
HETATM   29  H   UNL     1     -46.069  59.933 -44.827  1.00  0.00     0.210 HD
ENDBRANCH  26  28
ENDBRANCH  25  26
ENDBRANCH  22  25
ENDBRANCH   1  21
TORSDOF 8
ENDMDL
MODEL 9
REMARK VINA RESULT:      -7.0      3.650      8.513
REMARK  8 active torsions:
REMARK  status: ('A' for Active; 'I' for Inactive)
REMARK    1  A    between atoms: C_2  and  O_3 
REMARK    2  A    between atoms: C_2  and  C_4 
REMARK    3  A    between atoms: C_4  and  N_5 
REMARK       I    between atoms: N_5  and  C_6 
REMARK    4  A    between atoms: C_6  and  C_7 
REMARK    5  A    between atoms: C_10  and  O_11 
REMARK    6  A    between atoms: O_11  and  C_12 
REMARK    7  A    between atoms: C_15  and  O_16 
REMARK    8  A    between atoms: O_16  and  C_17 
ROOT
HETATM    1  C   UNL     1     -41.277  54.280 -51.188  1.00  0.00     0.049 A 
HETATM    2  C   UNL     1     -42.364  54.442 -52.037  1.00  0.00     0.136 A 
HETATM    3  N   UNL     1     -42.957  55.635 -52.295  1.00  0.00    -0.236 NA
HETATM    4  C   UNL     1     -42.447  56.716 -51.663  1.00  0.00     0.169 A 
HETATM    5  C   UNL     1     -41.404  56.653 -50.752  1.00  0.00     0.059 A 
HETATM    6  C   UNL     1     -40.807  55.415 -50.520  1.00  0.00     0.023 A 
ENDROOT
BRANCH   4   7
HETATM    7  O   UNL     1     -43.023  57.958 -51.868  1.00  0.00    -0.292 OA
BRANCH   7   8
HETATM    8  C   UNL     1     -43.282  58.345 -53.163  1.00  0.00     0.078 A 
HETATM    9  C   UNL     1     -42.163  58.551 -53.974  1.00  0.00     0.040 A 
HETATM   10  C   UNL     1     -42.323  58.885 -55.320  1.00  0.00     0.040 A 
HETATM   11  C   UNL     1     -43.602  58.992 -55.870  1.00  0.00     0.076 A 
HETATM   12  C   UNL     1     -44.723  58.796 -55.059  1.00  0.00     0.040 A 
HETATM   13  C   UNL     1     -44.563  58.452 -53.714  1.00  0.00     0.040 A 
BRANCH  11  14
HETATM   14  O   UNL     1     -43.663  59.357 -57.197  1.00  0.00    -0.311 OA
BRANCH  14  15
HETATM   15  C   UNL     1     -43.203  58.465 -58.137  1.00  0.00     0.076 A 
HETATM   16  C   UNL     1     -43.851  57.232 -58.216  1.00  0.00     0.037 A 
HETATM   17  C   UNL     1     -43.450  56.299 -59.173  1.00  0.00     0.003 A 
HETATM   18  C   UNL     1     -42.414  56.607 -60.056  1.00  0.00     0.000 A 
HETATM   19  C   UNL     1     -41.785  57.851 -59.991  1.00  0.00     0.003 A 
HETATM   20  C   UNL     1     -42.186  58.788 -59.038  1.00  0.00     0.037 A 
ENDBRANCH  14  15
ENDBRANCH  11  14
ENDBRANCH   7   8
ENDBRANCH   4   7
BRANCH   1  21
HETATM   21  C   UNL     1     -40.610  52.973 -50.951  1.00  0.00     0.253 C 
HETATM   22  N   UNL     1     -40.318  52.196 -52.053  1.00  0.00    -0.354 N 
HETATM   23  H   UNL     1     -40.360  52.609 -52.974  1.00  0.00     0.162 HD
HETATM   24  O   UNL     1     -40.319  52.648 -49.805  1.00  0.00    -0.268 OA
BRANCH  22  25
HETATM   25  C   UNL     1     -39.490  51.003 -51.940  1.00  0.00     0.154 C 
BRANCH  25  26
HETATM   26  C   UNL     1     -39.855  49.833 -52.869  1.00  0.00     0.132 C 
HETATM   27  C   UNL     1     -39.500  50.104 -54.325  1.00  0.00     0.041 C 
BRANCH  26  28
HETATM   28  O   UNL     1     -39.126  48.679 -52.437  1.00  0.00    -0.394 OA
HETATM   29  H   UNL     1     -38.264  48.995 -52.112  1.00  0.00     0.210 HD
ENDBRANCH  26  28
ENDBRANCH  25  26
ENDBRANCH  22  25
ENDBRANCH   1  21
TORSDOF 8
ENDMDL
MODEL 10
REMARK VINA RESULT:      -7.0     16.593     19.439
REMARK  8 active torsions:
REMARK  status: ('A' for Active; 'I' for Inactive)
REMARK    1  A    between atoms: C_2  and  O_3 
REMARK    2  A    between atoms: C_2  and  C_4 
REMARK    3  A    between atoms: C_4  and  N_5 
REMARK       I    between atoms: N_5  and  C_6 
REMARK    4  A    between atoms: C_6  and  C_7 
REMARK    5  A    between atoms: C_10  and  O_11 
REMARK    6  A    between atoms: O_11  and  C_12 
REMARK    7  A    between atoms: C_15  and  O_16 
REMARK    8  A    between atoms: O_16  and  C_17 
ROOT
HETATM    1  C   UNL     1     -35.568  41.189 -54.939  1.00  0.00     0.049 A 
HETATM    2  C   UNL     1     -35.442  39.936 -54.354  1.00  0.00     0.136 A 
HETATM    3  N   UNL     1     -35.546  39.704 -53.022  1.00  0.00    -0.236 NA
HETATM    4  C   UNL     1     -35.773  40.780 -52.234  1.00  0.00     0.169 A 
HETATM    5  C   UNL     1     -35.856  42.078 -52.711  1.00  0.00     0.059 A 
HETATM    6  C   UNL     1     -35.760  42.281 -54.087  1.00  0.00     0.023 A 
ENDROOT
BRANCH   4   7
HETATM    7  O   UNL     1     -35.867  40.610 -50.863  1.00  0.00    -0.292 OA
BRANCH   7   8
HETATM    8  C   UNL     1     -34.819  39.997 -50.214  1.00  0.00     0.078 A 
HETATM    9  C   UNL     1     -33.585  40.644 -50.300  1.00  0.00     0.040 A 
HETATM   10  C   UNL     1     -32.475  40.135 -49.623  1.00  0.00     0.040 A 
HETATM   11  C   UNL     1     -32.598  38.988 -48.837  1.00  0.00     0.076 A 
HETATM   12  C   UNL     1     -33.830  38.332 -48.756  1.00  0.00     0.040 A 
HETATM   13  C   UNL     1     -34.942  38.848 -49.425  1.00  0.00     0.040 A 
BRANCH  11  14
HETATM   14  O   UNL     1     -31.444  38.539 -48.233  1.00  0.00    -0.311 OA
BRANCH  14  15
HETATM   15  C   UNL     1     -31.117  39.050 -46.999  1.00  0.00     0.076 A 
HETATM   16  C   UNL     1     -31.716  38.459 -45.886  1.00  0.00     0.037 A 
HETATM   17  C   UNL     1     -31.398  38.913 -44.605  1.00  0.00     0.003 A 
HETATM   18  C   UNL     1     -30.473  39.944 -44.441  1.00  0.00     0.000 A 
HETATM   19  C   UNL     1     -29.855  40.515 -45.555  1.00  0.00     0.003 A 
HETATM   20  C   UNL     1     -30.168  40.061 -46.836  1.00  0.00     0.037 A 
ENDBRANCH  14  15
ENDBRANCH  11  14
ENDBRANCH   7   8
ENDBRANCH   4   7
BRANCH   1  21
HETATM   21  C   UNL     1     -35.497  41.420 -56.405  1.00  0.00     0.253 C 
HETATM   22  N   UNL     1     -36.687  41.593 -57.083  1.00  0.00    -0.354 N 
HETATM   23  H   UNL     1     -37.532  41.771 -56.559  1.00  0.00     0.162 HD
HETATM   24  O   UNL     1     -34.401  41.481 -56.950  1.00  0.00    -0.268 OA
BRANCH  22  25
HETATM   25  C   UNL     1     -36.711  42.024 -58.474  1.00  0.00     0.154 C 
BRANCH  25  26
HETATM   26  C   UNL     1     -37.022  40.937 -59.516  1.00  0.00     0.132 C 
HETATM   27  C   UNL     1     -38.179  40.038 -59.101  1.00  0.00     0.041 C 
BRANCH  26  28
HETATM   28  O   UNL     1     -37.376  41.586 -60.743  1.00  0.00    -0.394 OA
HETATM   29  H   UNL     1     -37.636  40.886 -61.367  1.00  0.00     0.210 HD
ENDBRANCH  26  28
ENDBRANCH  25  26
ENDBRANCH  22  25
ENDBRANCH   1  21
TORSDOF 8
ENDMDL
