MODEL 1
REMARK VINA RESULT:      -7.9      0.000      0.000
REMARK  7 active torsions:
REMARK  status: ('A' for Active; 'I' for Inactive)
REMARK    1  A    between atoms: C_2  and  O_3 
REMARK    2  A    between atoms: O_3  and  C_4 
REMARK       I    between atoms: C_4  and  N_5 
REMARK    3  A    between atoms: C_8  and  N_9 
REMARK       I    between atoms: N_9  and  C_10 
REMARK    4  A    between atoms: C_10  and  C_11 
REMARK    5  A    between atoms: C_13  and  N_14 
REMARK       I    between atoms: N_14  and  C_15 
REMARK    6  A    between atoms: C_15  and  C_16 
REMARK    7  A    between atoms: C_22  and  N_23 
ROOT
HETATM    1  C   UNL     1     -44.022  58.261 -53.817  1.00  0.00     0.034 A 
HETATM    2  C   UNL     1     -43.547  59.574 -53.846  1.00  0.00     0.049 A 
HETATM    3  C   UNL     1     -43.319  60.239 -55.067  1.00  0.00     0.062 A 
HETATM    4  C   UNL     1     -43.529  59.583 -56.304  1.00  0.00     0.057 A 
HETATM    5  C   UNL     1     -44.003  58.259 -56.239  1.00  0.00     0.033 A 
HETATM    6  C   UNL     1     -44.248  57.607 -55.025  1.00  0.00     0.019 A 
ENDROOT
BRANCH   1   7
HETATM    7  C   UNL     1     -44.258  57.511 -52.547  1.00  0.00     0.252 C 
HETATM    8  N   UNL     1     -43.425  56.439 -52.291  1.00  0.00    -0.352 N 
HETATM    9  H   UNL     1     -42.576  56.351 -52.830  1.00  0.00     0.163 HD
HETATM   10  O   UNL     1     -45.146  57.863 -51.778  1.00  0.00    -0.268 OA
BRANCH   8  11
HETATM   11  C   UNL     1     -43.505  55.679 -51.048  1.00  0.00     0.087 C 
HETATM   12  C   UNL     1     -43.672  54.185 -51.327  1.00  0.00     0.045 C 
HETATM   13  C   UNL     1     -42.412  53.559 -51.910  1.00  0.00     0.130 C 
HETATM   14  N   UNL     1     -41.212  53.894 -51.149  1.00  0.00    -0.328 N 
HETATM   15  C   UNL     1     -40.075  53.094 -51.223  1.00  0.00     0.362 C 
HETATM   16  C   UNL     1     -41.022  55.291 -50.774  1.00  0.00     0.130 C 
HETATM   17  O   UNL     1     -38.971  53.436 -50.811  1.00  0.00    -0.238 OA
HETATM   18  C   UNL     1     -42.274  55.917 -50.172  1.00  0.00     0.045 C 
BRANCH  15  19
HETATM   19  O   UNL     1     -40.324  51.890 -51.806  1.00  0.00    -0.304 OA
BRANCH  19  20
HETATM   20  C   UNL     1     -39.439  51.504 -52.866  1.00  0.00     0.176 C 
HETATM   21  C   UNL     1     -40.168  51.559 -54.195  1.00  0.00     0.034 C 
ENDBRANCH  19  20
ENDBRANCH  15  19
ENDBRANCH   8  11
ENDBRANCH   1   7
BRANCH   3  22
HETATM   22  N   UNL     1     -42.866  61.580 -55.032  1.00  0.00    -0.320 N 
HETATM   23  C   UNL     1     -43.515  62.657 -54.467  1.00  0.00     0.263 C 
HETATM   24  O   UNL     1     -42.840  63.492 -53.865  1.00  0.00    -0.267 OA
HETATM   25  H   UNL     1     -41.867  61.699 -55.065  1.00  0.00     0.169 HD
BRANCH  23  26
HETATM   26  C   UNL     1     -44.944  62.787 -54.726  1.00  0.00     0.072 A 
HETATM   27  S   UNL     1     -45.487  63.706 -56.066  1.00  0.00    -0.097 SA
HETATM   28  C   UNL     1     -47.126  63.336 -55.743  1.00  0.00     0.050 A 
HETATM   29  C   UNL     1     -47.266  62.528 -54.637  1.00  0.00     0.009 A 
HETATM   30  C   UNL     1     -46.009  62.212 -54.050  1.00  0.00     0.025 A 
ENDBRANCH  23  26
ENDBRANCH   3  22
BRANCH   4  31
HETATM   31  N   UNL     1     -43.353  60.186 -57.544  1.00  0.00    -0.378 N 
HETATM   32  C   UNL     1     -42.117  60.035 -58.316  1.00  0.00     0.134 C 
HETATM   33  C   UNL     1     -42.416  59.613 -59.771  1.00  0.00     0.054 C 
HETATM   34  C   UNL     1     -43.371  60.617 -60.412  1.00  0.00     0.020 C 
HETATM   35  C   UNL     1     -42.996  58.210 -59.780  1.00  0.00     0.020 A 
HETATM   36  C   UNL     1     -44.676  60.572 -59.625  1.00  0.00     0.023 C 
HETATM   37  C   UNL     1     -45.297  59.179 -59.774  1.00  0.00     0.138 C 
HETATM   38  C   UNL     1     -44.436  60.964 -58.156  1.00  0.00     0.129 C 
HETATM   39  N   UNL     1     -44.380  58.040 -59.697  1.00  0.00    -0.317 N 
HETATM   40  C   UNL     1     -44.973  56.775 -59.629  1.00  0.00     0.247 A 
HETATM   41  O   UNL     1     -46.184  56.575 -59.583  1.00  0.00    -0.268 OA
HETATM   42  C   UNL     1     -44.047  55.613 -59.615  1.00  0.00     0.074 A 
HETATM   43  C   UNL     1     -42.727  55.805 -59.715  1.00  0.00     0.007 A 
HETATM   44  C   UNL     1     -42.188  57.134 -59.807  1.00  0.00     0.026 A 
ENDBRANCH   4  31
TORSDOF 7
ENDMDL
MODEL 2
REMARK VINA RESULT:      -7.6      4.617      9.029
REMARK  7 active torsions:
REMARK  status: ('A' for Active; 'I' for Inactive)
REMARK    1  A    between atoms: C_2  and  O_3 
REMARK    2  A    between atoms: O_3  and  C_4 
REMARK       I    between atoms: C_4  and  N_5 
REMARK    3  A    between atoms: C_8  and  N_9 
REMARK       I    between atoms: N_9  and  C_10 
REMARK    4  A    between atoms: C_10  and  C_11 
REMARK    5  A    between atoms: C_13  and  N_14 
REMARK       I    between atoms: N_14  and  C_15 
REMARK    6  A    between atoms: C_15  and  C_16 
REMARK    7  A    between atoms: C_22  and  N_23 
ROOT
HETATM    1  C   UNL     1     -46.785  61.598 -52.795  1.00  0.00     0.034 A 
HETATM    2  C   UNL     1     -46.604  61.238 -51.457  1.00  0.00     0.049 A 
HETATM    3  C   UNL     1     -45.572  60.359 -51.072  1.00  0.00     0.062 A 
HETATM    4  C   UNL     1     -44.710  59.783 -52.036  1.00  0.00     0.057 A 
HETATM    5  C   UNL     1     -44.923  60.163 -53.375  1.00  0.00     0.033 A 
HETATM    6  C   UNL     1     -45.935  61.052 -53.753  1.00  0.00     0.019 A 
ENDROOT
BRANCH   1   7
HETATM    7  C   UNL     1     -47.877  62.510 -53.249  1.00  0.00     0.252 C 
HETATM    8  N   UNL     1     -49.113  61.937 -53.480  1.00  0.00    -0.352 N 
HETATM    9  H   UNL     1     -49.286  61.010 -53.122  1.00  0.00     0.163 HD
HETATM   10  O   UNL     1     -47.663  63.710 -53.386  1.00  0.00    -0.268 OA
BRANCH   8  11
HETATM   11  C   UNL     1     -50.277  62.736 -53.850  1.00  0.00     0.087 C 
HETATM   12  C   UNL     1     -50.365  62.909 -55.366  1.00  0.00     0.045 C 
HETATM   13  C   UNL     1     -50.728  61.613 -56.079  1.00  0.00     0.130 C 
HETATM   14  N   UNL     1     -51.884  60.947 -55.486  1.00  0.00    -0.328 N 
HETATM   15  C   UNL     1     -52.639  60.039 -56.222  1.00  0.00     0.362 C 
HETATM   16  C   UNL     1     -51.911  60.815 -54.033  1.00  0.00     0.130 C 
HETATM   17  O   UNL     1     -53.461  59.273 -55.727  1.00  0.00    -0.238 OA
HETATM   18  C   UNL     1     -51.568  62.115 -53.315  1.00  0.00     0.045 C 
BRANCH  15  19
HETATM   19  O   UNL     1     -52.360  60.090 -57.553  1.00  0.00    -0.304 OA
BRANCH  19  20
HETATM   20  C   UNL     1     -53.459  60.400 -58.420  1.00  0.00     0.176 C 
HETATM   21  C   UNL     1     -53.822  59.183 -59.250  1.00  0.00     0.034 C 
ENDBRANCH  19  20
ENDBRANCH  15  19
ENDBRANCH   8  11
ENDBRANCH   1   7
BRANCH   3  22
HETATM   22  N   UNL     1     -45.420  60.056 -49.698  1.00  0.00    -0.320 N 
HETATM   23  C   UNL     1     -45.497  60.940 -48.643  1.00  0.00     0.263 C 
HETATM   24  O   UNL     1     -46.055  60.567 -47.611  1.00  0.00    -0.267 OA
HETATM   25  H   UNL     1     -45.656  59.113 -49.436  1.00  0.00     0.169 HD
BRANCH  23  26
HETATM   26  C   UNL     1     -44.806  62.216 -48.789  1.00  0.00     0.072 A 
HETATM   27  S   UNL     1     -45.273  63.553 -47.825  1.00  0.00    -0.097 SA
HETATM   28  C   UNL     1     -44.046  64.545 -48.485  1.00  0.00     0.050 A 
HETATM   29  C   UNL     1     -43.290  63.879 -49.423  1.00  0.00     0.009 A 
HETATM   30  C   UNL     1     -43.728  62.536 -49.599  1.00  0.00     0.025 A 
ENDBRANCH  23  26
ENDBRANCH   3  22
BRANCH   4  31
HETATM   31  N   UNL     1     -43.654  58.933 -51.726  1.00  0.00    -0.378 N 
HETATM   32  C   UNL     1     -43.767  57.477 -51.840  1.00  0.00     0.134 C 
HETATM   33  C   UNL     1     -42.586  56.888 -52.644  1.00  0.00     0.054 C 
HETATM   34  C   UNL     1     -41.267  57.311 -52.003  1.00  0.00     0.020 C 
HETATM   35  C   UNL     1     -42.677  57.351 -54.087  1.00  0.00     0.020 A 
HETATM   36  C   UNL     1     -41.187  58.830 -52.084  1.00  0.00     0.023 C 
HETATM   37  C   UNL     1     -41.142  59.247 -53.558  1.00  0.00     0.138 C 
HETATM   38  C   UNL     1     -42.355  59.476 -51.317  1.00  0.00     0.129 C 
HETATM   39  N   UNL     1     -42.039  58.532 -54.469  1.00  0.00    -0.317 N 
HETATM   40  C   UNL     1     -42.142  59.050 -55.764  1.00  0.00     0.247 A 
HETATM   41  O   UNL     1     -41.578  60.069 -56.154  1.00  0.00    -0.268 OA
HETATM   42  C   UNL     1     -43.001  58.292 -56.710  1.00  0.00     0.074 A 
HETATM   43  C   UNL     1     -43.586  57.154 -56.323  1.00  0.00     0.007 A 
HETATM   44  C   UNL     1     -43.415  56.667 -54.981  1.00  0.00     0.026 A 
ENDBRANCH   4  31
TORSDOF 7
ENDMDL
MODEL 3
REMARK VINA RESULT:      -7.5      2.998      4.717
REMARK  7 active torsions:
REMARK  status: ('A' for Active; 'I' for Inactive)
REMARK    1  A    between atoms: C_2  and  O_3 
REMARK    2  A    between atoms: O_3  and  C_4 
REMARK       I    between atoms: C_4  and  N_5 
REMARK    3  A    between atoms: C_8  and  N_9 
REMARK       I    between atoms: N_9  and  C_10 
REMARK    4  A    between atoms: C_10  and  C_11 
REMARK    5  A    between atoms: C_13  and  N_14 
REMARK       I    between atoms: N_14  and  C_15 
REMARK    6  A    between atoms: C_15  and  C_16 
REMARK    7  A    between atoms: C_22  and  N_23 
ROOT
HETATM    1  C   UNL     1     -43.164  57.991 -57.271  1.00  0.00     0.034 A 
HETATM    2  C   UNL     1     -44.199  58.494 -56.480  1.00  0.00     0.049 A 
HETATM    3  C   UNL     1     -44.605  59.840 -56.581  1.00  0.00     0.062 A 
HETATM    4  C   UNL     1     -43.949  60.734 -57.462  1.00  0.00     0.057 A 
HETATM    5  C   UNL     1     -42.906  60.195 -58.240  1.00  0.00     0.033 A 
HETATM    6  C   UNL     1     -42.519  58.853 -58.152  1.00  0.00     0.019 A 
ENDROOT
BRANCH   1   7
HETATM    7  C   UNL     1     -42.688  56.578 -57.181  1.00  0.00     0.252 C 
HETATM    8  N   UNL     1     -42.100  56.191 -55.993  1.00  0.00    -0.352 N 
HETATM    9  H   UNL     1     -42.222  56.780 -55.183  1.00  0.00     0.163 HD
HETATM   10  O   UNL     1     -42.841  55.814 -58.129  1.00  0.00    -0.268 OA
BRANCH   8  11
HETATM   11  C   UNL     1     -41.669  54.817 -55.756  1.00  0.00     0.087 C 
HETATM   12  C   UNL     1     -40.452  54.775 -54.831  1.00  0.00     0.045 C 
HETATM   13  C   UNL     1     -40.797  55.167 -53.400  1.00  0.00     0.130 C 
HETATM   14  N   UNL     1     -41.963  54.456 -52.886  1.00  0.00    -0.328 N 
HETATM   15  C   UNL     1     -42.168  54.318 -51.516  1.00  0.00     0.362 C 
HETATM   16  C   UNL     1     -43.140  54.383 -53.746  1.00  0.00     0.130 C 
HETATM   17  O   UNL     1     -43.227  53.952 -51.016  1.00  0.00    -0.238 OA
HETATM   18  C   UNL     1     -42.802  53.971 -55.175  1.00  0.00     0.045 C 
BRANCH  15  19
HETATM   19  O   UNL     1     -41.061  54.638 -50.792  1.00  0.00    -0.304 OA
BRANCH  19  20
HETATM   20  C   UNL     1     -41.291  55.131 -49.465  1.00  0.00     0.176 C 
HETATM   21  C   UNL     1     -40.528  54.288 -48.460  1.00  0.00     0.034 C 
ENDBRANCH  19  20
ENDBRANCH  15  19
ENDBRANCH   8  11
ENDBRANCH   1   7
BRANCH   3  22
HETATM   22  N   UNL     1     -45.681  60.284 -55.775  1.00  0.00    -0.320 N 
HETATM   23  C   UNL     1     -45.592  60.974 -54.585  1.00  0.00     0.263 C 
HETATM   24  O   UNL     1     -46.407  61.872 -54.372  1.00  0.00    -0.267 OA
HETATM   25  H   UNL     1     -46.544  60.457 -56.264  1.00  0.00     0.169 HD
BRANCH  23  26
HETATM   26  C   UNL     1     -44.608  60.509 -53.615  1.00  0.00     0.072 A 
HETATM   27  S   UNL     1     -43.069  61.259 -53.536  1.00  0.00    -0.097 SA
HETATM   28  C   UNL     1     -42.583  60.279 -52.222  1.00  0.00     0.050 A 
HETATM   29  C   UNL     1     -43.567  59.394 -51.843  1.00  0.00     0.009 A 
HETATM   30  C   UNL     1     -44.735  59.526 -52.647  1.00  0.00     0.025 A 
ENDBRANCH  23  26
ENDBRANCH   3  22
BRANCH   4  31
HETATM   31  N   UNL     1     -44.314  62.064 -57.634  1.00  0.00    -0.378 N 
HETATM   32  C   UNL     1     -43.670  63.151 -56.893  1.00  0.00     0.134 C 
HETATM   33  C   UNL     1     -43.213  64.279 -57.845  1.00  0.00     0.054 C 
HETATM   34  C   UNL     1     -44.401  64.772 -58.666  1.00  0.00     0.020 C 
HETATM   35  C   UNL     1     -42.096  63.766 -58.736  1.00  0.00     0.020 A 
HETATM   36  C   UNL     1     -44.887  63.602 -59.513  1.00  0.00     0.023 C 
HETATM   37  C   UNL     1     -43.778  63.206 -60.493  1.00  0.00     0.138 C 
HETATM   38  C   UNL     1     -45.337  62.435 -58.617  1.00  0.00     0.129 C 
HETATM   39  N   UNL     1     -42.413  63.182 -59.964  1.00  0.00    -0.317 N 
HETATM   40  C   UNL     1     -41.437  62.626 -60.799  1.00  0.00     0.247 A 
HETATM   41  O   UNL     1     -41.664  62.127 -61.898  1.00  0.00    -0.268 OA
HETATM   42  C   UNL     1     -40.041  62.658 -60.292  1.00  0.00     0.074 A 
HETATM   43  C   UNL     1     -39.764  63.240 -59.121  1.00  0.00     0.007 A 
HETATM   44  C   UNL     1     -40.815  63.814 -58.326  1.00  0.00     0.026 A 
ENDBRANCH   4  31
TORSDOF 7
ENDMDL
MODEL 4
REMARK VINA RESULT:      -7.4      3.722      9.295
REMARK  7 active torsions:
REMARK  status: ('A' for Active; 'I' for Inactive)
REMARK    1  A    between atoms: C_2  and  O_3 
REMARK    2  A    between atoms: O_3  and  C_4 
REMARK       I    between atoms: C_4  and  N_5 
REMARK    3  A    between atoms: C_8  and  N_9 
REMARK       I    between atoms: N_9  and  C_10 
REMARK    4  A    between atoms: C_10  and  C_11 
REMARK    5  A    between atoms: C_13  and  N_14 
REMARK       I    between atoms: N_14  and  C_15 
REMARK    6  A    between atoms: C_15  and  C_16 
REMARK    7  A    between atoms: C_22  and  N_23 
ROOT
HETATM    1  C   UNL     1     -45.606  60.241 -55.906  1.00  0.00     0.034 A 
HETATM    2  C   UNL     1     -45.644  59.269 -56.909  1.00  0.00     0.049 A 
HETATM    3  C   UNL     1     -44.945  58.054 -56.773  1.00  0.00     0.062 A 
HETATM    4  C   UNL     1     -44.149  57.796 -55.631  1.00  0.00     0.057 A 
HETATM    5  C   UNL     1     -44.128  58.798 -54.642  1.00  0.00     0.033 A 
HETATM    6  C   UNL     1     -44.840  59.996 -54.770  1.00  0.00     0.019 A 
ENDROOT
BRANCH   1   7
HETATM    7  C   UNL     1     -46.315  61.551 -56.018  1.00  0.00     0.252 C 
HETATM    8  N   UNL     1     -47.381  61.758 -55.164  1.00  0.00    -0.352 N 
HETATM    9  H   UNL     1     -47.488  61.143 -54.371  1.00  0.00     0.163 HD
HETATM   10  O   UNL     1     -45.936  62.391 -56.827  1.00  0.00    -0.268 OA
BRANCH   8  11
HETATM   11  C   UNL     1     -48.102  63.026 -55.122  1.00  0.00     0.087 C 
HETATM   12  C   UNL     1     -49.293  63.012 -56.080  1.00  0.00     0.045 C 
HETATM   13  C   UNL     1     -50.408  62.088 -55.607  1.00  0.00     0.130 C 
HETATM   14  N   UNL     1     -50.767  62.307 -54.209  1.00  0.00    -0.328 N 
HETATM   15  C   UNL     1     -52.013  61.919 -53.724  1.00  0.00     0.362 C 
HETATM   16  C   UNL     1     -49.679  62.413 -53.244  1.00  0.00     0.130 C 
HETATM   17  O   UNL     1     -52.291  61.851 -52.531  1.00  0.00    -0.238 OA
HETATM   18  C   UNL     1     -48.570  63.353 -53.704  1.00  0.00     0.045 C 
BRANCH  15  19
HETATM   19  O   UNL     1     -52.888  61.619 -54.722  1.00  0.00    -0.304 OA
BRANCH  19  20
HETATM   20  C   UNL     1     -54.123  62.347 -54.724  1.00  0.00     0.176 C 
HETATM   21  C   UNL     1     -53.874  63.788 -55.126  1.00  0.00     0.034 C 
ENDBRANCH  19  20
ENDBRANCH  15  19
ENDBRANCH   8  11
ENDBRANCH   1   7
BRANCH   3  22
HETATM   22  N   UNL     1     -45.047  57.096 -57.810  1.00  0.00    -0.320 N 
HETATM   23  C   UNL     1     -44.114  56.838 -58.792  1.00  0.00     0.263 C 
HETATM   24  O   UNL     1     -43.928  55.667 -59.124  1.00  0.00    -0.267 OA
HETATM   25  H   UNL     1     -45.631  56.301 -57.607  1.00  0.00     0.169 HD
BRANCH  23  26
HETATM   26  C   UNL     1     -43.500  57.986 -59.448  1.00  0.00     0.072 A 
HETATM   27  S   UNL     1     -44.427  58.953 -60.516  1.00  0.00    -0.097 SA
HETATM   28  C   UNL     1     -43.125  60.030 -60.781  1.00  0.00     0.050 A 
HETATM   29  C   UNL     1     -42.001  59.668 -60.073  1.00  0.00     0.009 A 
HETATM   30  C   UNL     1     -42.217  58.489 -59.305  1.00  0.00     0.025 A 
ENDBRANCH  23  26
ENDBRANCH   3  22
BRANCH   4  31
HETATM   31  N   UNL     1     -43.457  56.610 -55.417  1.00  0.00    -0.378 N 
HETATM   32  C   UNL     1     -42.039  56.463 -55.756  1.00  0.00     0.134 C 
HETATM   33  C   UNL     1     -41.239  55.880 -54.568  1.00  0.00     0.054 C 
HETATM   34  C   UNL     1     -41.862  54.558 -54.128  1.00  0.00     0.020 C 
HETATM   35  C   UNL     1     -41.215  56.889 -53.433  1.00  0.00     0.020 A 
HETATM   36  C   UNL     1     -43.278  54.858 -53.649  1.00  0.00     0.023 C 
HETATM   37  C   UNL     1     -43.202  55.768 -52.418  1.00  0.00     0.138 C 
HETATM   38  C   UNL     1     -44.119  55.463 -54.787  1.00  0.00     0.129 C 
HETATM   39  N   UNL     1     -42.222  56.855 -52.466  1.00  0.00    -0.317 N 
HETATM   40  C   UNL     1     -42.297  57.798 -51.436  1.00  0.00     0.247 A 
HETATM   41  O   UNL     1     -43.146  57.793 -50.547  1.00  0.00    -0.268 OA
HETATM   42  C   UNL     1     -41.266  58.867 -51.444  1.00  0.00     0.074 A 
HETATM   43  C   UNL     1     -40.303  58.865 -52.372  1.00  0.00     0.007 A 
HETATM   44  C   UNL     1     -40.272  57.848 -53.387  1.00  0.00     0.026 A 
ENDBRANCH   4  31
TORSDOF 7
ENDMDL
MODEL 5
REMARK VINA RESULT:      -7.4      3.060      8.334
REMARK  7 active torsions:
REMARK  status: ('A' for Active; 'I' for Inactive)
REMARK    1  A    between atoms: C_2  and  O_3 
REMARK    2  A    between atoms: O_3  and  C_4 
REMARK       I    between atoms: C_4  and  N_5 
REMARK    3  A    between atoms: C_8  and  N_9 
REMARK       I    between atoms: N_9  and  C_10 
REMARK    4  A    between atoms: C_10  and  C_11 
REMARK    5  A    between atoms: C_13  and  N_14 
REMARK       I    between atoms: N_14  and  C_15 
REMARK    6  A    between atoms: C_15  and  C_16 
REMARK    7  A    between atoms: C_22  and  N_23 
ROOT
HETATM    1  C   UNL     1     -44.847  59.229 -55.562  1.00  0.00     0.034 A 
HETATM    2  C   UNL     1     -43.894  59.035 -56.564  1.00  0.00     0.049 A 
HETATM    3  C   UNL     1     -43.050  57.906 -56.557  1.00  0.00     0.062 A 
HETATM    4  C   UNL     1     -43.117  56.953 -55.512  1.00  0.00     0.057 A 
HETATM    5  C   UNL     1     -44.085  57.183 -54.515  1.00  0.00     0.033 A 
HETATM    6  C   UNL     1     -44.936  58.294 -54.535  1.00  0.00     0.019 A 
ENDROOT
BRANCH   1   7
HETATM    7  C   UNL     1     -45.748  60.420 -55.519  1.00  0.00     0.252 C 
HETATM    8  N   UNL     1     -46.055  60.926 -54.270  1.00  0.00    -0.352 N 
HETATM    9  H   UNL     1     -45.496  60.633 -53.483  1.00  0.00     0.163 HD
HETATM   10  O   UNL     1     -46.166  60.916 -56.560  1.00  0.00    -0.268 OA
BRANCH   8  11
HETATM   11  C   UNL     1     -46.858  62.133 -54.102  1.00  0.00     0.087 C 
HETATM   12  C   UNL     1     -47.604  62.114 -52.768  1.00  0.00     0.045 C 
HETATM   13  C   UNL     1     -46.670  62.282 -51.577  1.00  0.00     0.130 C 
HETATM   14  N   UNL     1     -45.753  63.408 -51.734  1.00  0.00    -0.328 N 
HETATM   15  C   UNL     1     -45.158  64.002 -50.626  1.00  0.00     0.362 C 
HETATM   16  C   UNL     1     -45.062  63.539 -53.012  1.00  0.00     0.130 C 
HETATM   17  O   UNL     1     -44.210  64.779 -50.692  1.00  0.00    -0.238 OA
HETATM   18  C   UNL     1     -45.998  63.392 -54.207  1.00  0.00     0.045 C 
BRANCH  15  19
HETATM   19  O   UNL     1     -45.743  63.623 -49.457  1.00  0.00    -0.304 OA
BRANCH  19  20
HETATM   20  C   UNL     1     -44.859  63.187 -48.416  1.00  0.00     0.176 C 
HETATM   21  C   UNL     1     -45.334  61.860 -47.855  1.00  0.00     0.034 C 
ENDBRANCH  19  20
ENDBRANCH  15  19
ENDBRANCH   8  11
ENDBRANCH   1   7
BRANCH   3  22
HETATM   22  N   UNL     1     -42.124  57.749 -57.616  1.00  0.00    -0.320 N 
HETATM   23  C   UNL     1     -42.417  57.587 -58.953  1.00  0.00     0.263 C 
HETATM   24  O   UNL     1     -41.701  58.155 -59.778  1.00  0.00    -0.267 OA
HETATM   25  H   UNL     1     -41.218  58.158 -57.461  1.00  0.00     0.169 HD
BRANCH  23  26
HETATM   26  C   UNL     1     -43.487  56.657 -59.295  1.00  0.00     0.072 A 
HETATM   27  S   UNL     1     -45.002  57.259 -59.824  1.00  0.00    -0.097 SA
HETATM   28  C   UNL     1     -45.619  55.683 -60.070  1.00  0.00     0.050 A 
HETATM   29  C   UNL     1     -44.696  54.710 -59.757  1.00  0.00     0.009 A 
HETATM   30  C   UNL     1     -43.467  55.272 -59.310  1.00  0.00     0.025 A 
ENDBRANCH  23  26
ENDBRANCH   3  22
BRANCH   4  31
HETATM   31  N   UNL     1     -42.338  55.804 -55.456  1.00  0.00    -0.378 N 
HETATM   32  C   UNL     1     -40.905  55.848 -55.154  1.00  0.00     0.134 C 
HETATM   33  C   UNL     1     -40.540  54.846 -54.036  1.00  0.00     0.054 C 
HETATM   34  C   UNL     1     -40.998  53.445 -54.430  1.00  0.00     0.020 C 
HETATM   35  C   UNL     1     -41.176  55.293 -52.731  1.00  0.00     0.020 A 
HETATM   36  C   UNL     1     -42.516  53.482 -54.561  1.00  0.00     0.023 C 
HETATM   37  C   UNL     1     -43.124  53.800 -53.190  1.00  0.00     0.138 C 
HETATM   38  C   UNL     1     -42.943  54.482 -55.650  1.00  0.00     0.129 C 
HETATM   39  N   UNL     1     -42.453  54.834 -52.400  1.00  0.00    -0.317 N 
HETATM   40  C   UNL     1     -43.123  55.262 -51.249  1.00  0.00     0.247 A 
HETATM   41  O   UNL     1     -44.233  54.867 -50.902  1.00  0.00    -0.268 OA
HETATM   42  C   UNL     1     -42.417  56.265 -50.410  1.00  0.00     0.074 A 
HETATM   43  C   UNL     1     -41.188  56.673 -50.742  1.00  0.00     0.007 A 
HETATM   44  C   UNL     1     -40.548  56.170 -51.927  1.00  0.00     0.026 A 
ENDBRANCH   4  31
TORSDOF 7
ENDMDL
MODEL 6
REMARK VINA RESULT:      -7.4      4.199      9.825
REMARK  7 active torsions:
REMARK  status: ('A' for Active; 'I' for Inactive)
REMARK    1  A    between atoms: C_2  and  O_3 
REMARK    2  A    between atoms: O_3  and  C_4 
REMARK       I    between atoms: C_4  and  N_5 
REMARK    3  A    between atoms: C_8  and  N_9 
REMARK       I    between atoms: N_9  and  C_10 
REMARK    4  A    between atoms: C_10  and  C_11 
REMARK    5  A    between atoms: C_13  and  N_14 
REMARK       I    between atoms: N_14  and  C_15 
REMARK    6  A    between atoms: C_15  and  C_16 
REMARK    7  A    between atoms: C_22  and  N_23 
ROOT
HETATM    1  C   UNL     1     -45.892  60.101 -56.424  1.00  0.00     0.034 A 
HETATM    2  C   UNL     1     -45.486  58.837 -56.857  1.00  0.00     0.049 A 
HETATM    3  C   UNL     1     -44.647  58.029 -56.063  1.00  0.00     0.062 A 
HETATM    4  C   UNL     1     -44.158  58.492 -54.818  1.00  0.00     0.057 A 
HETATM    5  C   UNL     1     -44.583  59.773 -54.414  1.00  0.00     0.033 A 
HETATM    6  C   UNL     1     -45.433  60.564 -55.195  1.00  0.00     0.019 A 
ENDROOT
BRANCH   1   7
HETATM    7  C   UNL     1     -46.764  60.997 -57.242  1.00  0.00     0.252 C 
HETATM    8  N   UNL     1     -48.116  60.979 -56.960  1.00  0.00    -0.352 N 
HETATM    9  H   UNL     1     -48.421  60.559 -56.095  1.00  0.00     0.163 HD
HETATM   10  O   UNL     1     -46.272  61.717 -58.104  1.00  0.00    -0.268 OA
BRANCH   8  11
HETATM   11  C   UNL     1     -49.057  61.867 -57.635  1.00  0.00     0.087 C 
HETATM   12  C   UNL     1     -50.253  61.088 -58.181  1.00  0.00     0.045 C 
HETATM   13  C   UNL     1     -51.164  60.572 -57.074  1.00  0.00     0.130 C 
HETATM   14  N   UNL     1     -51.516  61.605 -56.105  1.00  0.00    -0.328 N 
HETATM   15  C   UNL     1     -52.653  61.482 -55.313  1.00  0.00     0.362 C 
HETATM   16  C   UNL     1     -50.437  62.446 -55.597  1.00  0.00     0.130 C 
HETATM   17  O   UNL     1     -52.878  62.176 -54.326  1.00  0.00    -0.238 OA
HETATM   18  C   UNL     1     -49.535  62.982 -56.703  1.00  0.00     0.045 C 
BRANCH  15  19
HETATM   19  O   UNL     1     -53.487  60.500 -55.751  1.00  0.00    -0.304 OA
BRANCH  19  20
HETATM   20  C   UNL     1     -54.745  60.929 -56.289  1.00  0.00     0.176 C 
HETATM   21  C   UNL     1     -54.699  60.891 -57.806  1.00  0.00     0.034 C 
ENDBRANCH  19  20
ENDBRANCH  15  19
ENDBRANCH   8  11
ENDBRANCH   1   7
BRANCH   3  22
HETATM   22  N   UNL     1     -44.293  56.746 -56.543  1.00  0.00    -0.320 N 
HETATM   23  C   UNL     1     -43.190  56.422 -57.304  1.00  0.00     0.263 C 
HETATM   24  O   UNL     1     -42.607  55.365 -57.062  1.00  0.00    -0.267 OA
HETATM   25  H   UNL     1     -44.630  55.972 -55.993  1.00  0.00     0.169 HD
BRANCH  23  26
HETATM   26  C   UNL     1     -42.866  57.303 -58.420  1.00  0.00     0.072 A 
HETATM   27  S   UNL     1     -43.680  57.118 -59.916  1.00  0.00    -0.097 SA
HETATM   28  C   UNL     1     -42.859  58.451 -60.605  1.00  0.00     0.050 A 
HETATM   29  C   UNL     1     -41.981  59.033 -59.719  1.00  0.00     0.009 A 
HETATM   30  C   UNL     1     -41.984  58.371 -58.459  1.00  0.00     0.025 A 
ENDBRANCH  23  26
ENDBRANCH   3  22
BRANCH   4  31
HETATM   31  N   UNL     1     -43.352  57.740 -53.971  1.00  0.00    -0.378 N 
HETATM   32  C   UNL     1     -42.044  58.216 -53.514  1.00  0.00     0.134 C 
HETATM   33  C   UNL     1     -41.912  58.094 -51.979  1.00  0.00     0.054 C 
HETATM   34  C   UNL     1     -42.177  56.653 -51.553  1.00  0.00     0.020 C 
HETATM   35  C   UNL     1     -42.877  59.058 -51.312  1.00  0.00     0.020 A 
HETATM   36  C   UNL     1     -43.614  56.321 -51.935  1.00  0.00     0.023 C 
HETATM   37  C   UNL     1     -44.560  57.223 -51.135  1.00  0.00     0.138 C 
HETATM   38  C   UNL     1     -43.813  56.447 -53.456  1.00  0.00     0.129 C 
HETATM   39  N   UNL     1     -44.167  58.627 -50.997  1.00  0.00    -0.317 N 
HETATM   40  C   UNL     1     -45.126  59.484 -50.447  1.00  0.00     0.247 A 
HETATM   41  O   UNL     1     -46.263  59.145 -50.128  1.00  0.00    -0.268 OA
HETATM   42  C   UNL     1     -44.709  60.896 -50.246  1.00  0.00     0.074 A 
HETATM   43  C   UNL     1     -43.462  61.277 -50.538  1.00  0.00     0.007 A 
HETATM   44  C   UNL     1     -42.520  60.335 -51.078  1.00  0.00     0.026 A 
ENDBRANCH   4  31
TORSDOF 7
ENDMDL
MODEL 7
REMARK VINA RESULT:      -7.2      3.493      6.563
REMARK  7 active torsions:
REMARK  status: ('A' for Active; 'I' for Inactive)
REMARK    1  A    between atoms: C_2  and  O_3 
REMARK    2  A    between atoms: O_3  and  C_4 
REMARK       I    between atoms: C_4  and  N_5 
REMARK    3  A    between atoms: C_8  and  N_9 
REMARK       I    between atoms: N_9  and  C_10 
REMARK    4  A    between atoms: C_10  and  C_11 
REMARK    5  A    between atoms: C_13  and  N_14 
REMARK       I    between atoms: N_14  and  C_15 
REMARK    6  A    between atoms: C_15  and  C_16 
REMARK    7  A    between atoms: C_22  and  N_23 
ROOT
HETATM    1  C   UNL     1     -44.447  60.933 -54.803  1.00  0.00     0.034 A 
HETATM    2  C   UNL     1     -44.244  59.641 -54.312  1.00  0.00     0.049 A 
HETATM    3  C   UNL     1     -43.769  58.610 -55.147  1.00  0.00     0.062 A 
HETATM    4  C   UNL     1     -43.519  58.843 -56.521  1.00  0.00     0.057 A 
HETATM    5  C   UNL     1     -43.740  60.155 -56.984  1.00  0.00     0.033 A 
HETATM    6  C   UNL     1     -44.192  61.182 -56.148  1.00  0.00     0.019 A 
ENDROOT
BRANCH   1   7
HETATM    7  C   UNL     1     -44.968  62.049 -53.959  1.00  0.00     0.252 C 
HETATM    8  N   UNL     1     -44.730  61.969 -52.600  1.00  0.00    -0.352 N 
HETATM    9  H   UNL     1     -44.040  61.310 -52.272  1.00  0.00     0.163 HD
HETATM   10  O   UNL     1     -45.561  62.990 -54.477  1.00  0.00    -0.268 OA
BRANCH   8  11
HETATM   11  C   UNL     1     -45.119  63.035 -51.684  1.00  0.00     0.087 C 
HETATM   12  C   UNL     1     -46.458  62.723 -51.014  1.00  0.00     0.045 C 
HETATM   13  C   UNL     1     -46.355  61.577 -50.017  1.00  0.00     0.130 C 
HETATM   14  N   UNL     1     -45.244  61.738 -49.084  1.00  0.00    -0.328 N 
HETATM   15  C   UNL     1     -45.243  61.083 -47.857  1.00  0.00     0.362 C 
HETATM   16  C   UNL     1     -43.949  62.115 -49.640  1.00  0.00     0.130 C 
HETATM   17  O   UNL     1     -44.254  60.978 -47.137  1.00  0.00    -0.238 OA
HETATM   18  C   UNL     1     -44.044  63.276 -50.624  1.00  0.00     0.045 C 
BRANCH  15  19
HETATM   19  O   UNL     1     -46.462  60.565 -47.543  1.00  0.00    -0.304 OA
BRANCH  19  20
HETATM   20  C   UNL     1     -46.758  60.438 -46.146  1.00  0.00     0.176 C 
HETATM   21  C   UNL     1     -46.900  58.972 -45.779  1.00  0.00     0.034 C 
ENDBRANCH  19  20
ENDBRANCH  15  19
ENDBRANCH   8  11
ENDBRANCH   1   7
BRANCH   3  22
HETATM   22  N   UNL     1     -43.554  57.330 -54.584  1.00  0.00    -0.320 N 
HETATM   23  C   UNL     1     -43.088  57.051 -53.316  1.00  0.00     0.263 C 
HETATM   24  O   UNL     1     -43.589  56.105 -52.708  1.00  0.00    -0.267 OA
HETATM   25  H   UNL     1     -44.125  56.591 -54.962  1.00  0.00     0.169 HD
BRANCH  23  26
HETATM   26  C   UNL     1     -41.953  57.829 -52.836  1.00  0.00     0.072 A 
HETATM   27  S   UNL     1     -41.916  58.369 -51.210  1.00  0.00    -0.097 SA
HETATM   28  C   UNL     1     -40.370  59.074 -51.407  1.00  0.00     0.050 A 
HETATM   29  C   UNL     1     -39.883  58.906 -52.684  1.00  0.00     0.009 A 
HETATM   30  C   UNL     1     -40.796  58.189 -53.508  1.00  0.00     0.025 A 
ENDBRANCH  23  26
ENDBRANCH   3  22
BRANCH   4  31
HETATM   31  N   UNL     1     -43.024  57.883 -57.395  1.00  0.00    -0.378 N 
HETATM   32  C   UNL     1     -43.683  56.589 -57.586  1.00  0.00     0.134 C 
HETATM   33  C   UNL     1     -43.892  56.287 -59.087  1.00  0.00     0.054 C 
HETATM   34  C   UNL     1     -42.554  56.361 -59.818  1.00  0.00     0.020 C 
HETATM   35  C   UNL     1     -44.896  57.269 -59.664  1.00  0.00     0.020 A 
HETATM   36  C   UNL     1     -42.041  57.790 -59.687  1.00  0.00     0.023 C 
HETATM   37  C   UNL     1     -43.014  58.734 -60.402  1.00  0.00     0.138 C 
HETATM   38  C   UNL     1     -41.833  58.157 -58.207  1.00  0.00     0.129 C 
HETATM   39  N   UNL     1     -44.442  58.470 -60.212  1.00  0.00    -0.317 N 
HETATM   40  C   UNL     1     -45.319  59.447 -60.695  1.00  0.00     0.247 A 
HETATM   41  O   UNL     1     -44.967  60.506 -61.210  1.00  0.00    -0.268 OA
HETATM   42  C   UNL     1     -46.769  59.155 -60.562  1.00  0.00     0.074 A 
HETATM   43  C   UNL     1     -47.176  57.989 -60.050  1.00  0.00     0.007 A 
HETATM   44  C   UNL     1     -46.217  57.019 -59.596  1.00  0.00     0.026 A 
ENDBRANCH   4  31
TORSDOF 7
ENDMDL
MODEL 8
REMARK VINA RESULT:      -7.1      3.238      9.388
REMARK  7 active torsions:
REMARK  status: ('A' for Active; 'I' for Inactive)
REMARK    1  A    between atoms: C_2  and  O_3 
REMARK    2  A    between atoms: O_3  and  C_4 
REMARK       I    between atoms: C_4  and  N_5 
REMARK    3  A    between atoms: C_8  and  N_9 
REMARK       I    between atoms: N_9  and  C_10 
REMARK    4  A    between atoms: C_10  and  C_11 
REMARK    5  A    between atoms: C_13  and  N_14 
REMARK       I    between atoms: N_14  and  C_15 
REMARK    6  A    between atoms: C_15  and  C_16 
REMARK    7  A    between atoms: C_22  and  N_23 
ROOT
HETATM    1  C   UNL     1     -43.959  57.341 -55.949  1.00  0.00     0.034 A 
HETATM    2  C   UNL     1     -43.770  56.475 -54.870  1.00  0.00     0.049 A 
HETATM    3  C   UNL     1     -43.853  56.937 -53.541  1.00  0.00     0.062 A 
HETATM    4  C   UNL     1     -44.092  58.304 -53.260  1.00  0.00     0.057 A 
HETATM    5  C   UNL     1     -44.272  59.151 -54.371  1.00  0.00     0.033 A 
HETATM    6  C   UNL     1     -44.210  58.686 -55.689  1.00  0.00     0.019 A 
ENDROOT
BRANCH   1   7
HETATM    7  C   UNL     1     -43.860  56.899 -57.372  1.00  0.00     0.252 C 
HETATM    8  N   UNL     1     -44.957  57.138 -58.178  1.00  0.00    -0.352 N 
HETATM    9  H   UNL     1     -45.659  57.786 -57.853  1.00  0.00     0.163 HD
HETATM   10  O   UNL     1     -42.835  56.365 -57.783  1.00  0.00    -0.268 OA
BRANCH   8  11
HETATM   11  C   UNL     1     -44.950  56.824 -59.603  1.00  0.00     0.087 C 
HETATM   12  C   UNL     1     -46.367  56.560 -60.114  1.00  0.00     0.045 C 
HETATM   13  C   UNL     1     -47.216  57.824 -60.151  1.00  0.00     0.130 C 
HETATM   14  N   UNL     1     -46.541  58.938 -60.811  1.00  0.00    -0.328 N 
HETATM   15  C   UNL     1     -47.269  59.997 -61.346  1.00  0.00     0.362 C 
HETATM   16  C   UNL     1     -45.157  59.203 -60.435  1.00  0.00     0.130 C 
HETATM   17  O   UNL     1     -46.771  61.063 -61.693  1.00  0.00    -0.238 OA
HETATM   18  C   UNL     1     -44.298  57.944 -60.416  1.00  0.00     0.045 C 
BRANCH  15  19
HETATM   19  O   UNL     1     -48.598  59.719 -61.437  1.00  0.00    -0.304 OA
BRANCH  19  20
HETATM   20  C   UNL     1     -49.116  59.520 -62.759  1.00  0.00     0.176 C 
HETATM   21  C   UNL     1     -50.099  58.364 -62.761  1.00  0.00     0.034 C 
ENDBRANCH  19  20
ENDBRANCH  15  19
ENDBRANCH   8  11
ENDBRANCH   1   7
BRANCH   3  22
HETATM   22  N   UNL     1     -43.683  56.005 -52.490  1.00  0.00    -0.320 N 
HETATM   23  C   UNL     1     -42.499  55.430 -52.079  1.00  0.00     0.263 C 
HETATM   24  O   UNL     1     -42.318  55.273 -50.871  1.00  0.00    -0.267 OA
HETATM   25  H   UNL     1     -44.370  56.052 -51.756  1.00  0.00     0.169 HD
BRANCH  23  26
HETATM   26  C   UNL     1     -41.597  54.943 -53.116  1.00  0.00     0.072 A 
HETATM   27  S   UNL     1     -41.650  53.296 -53.586  1.00  0.00    -0.097 SA
HETATM   28  C   UNL     1     -40.453  53.528 -54.785  1.00  0.00     0.050 A 
HETATM   29  C   UNL     1     -40.015  54.833 -54.833  1.00  0.00     0.009 A 
HETATM   30  C   UNL     1     -40.674  55.648 -53.871  1.00  0.00     0.025 A 
ENDBRANCH  23  26
ENDBRANCH   3  22
BRANCH   4  31
HETATM   31  N   UNL     1     -44.215  58.824 -51.977  1.00  0.00    -0.378 N 
HETATM   32  C   UNL     1     -43.146  59.602 -51.346  1.00  0.00     0.134 C 
HETATM   33  C   UNL     1     -43.690  60.928 -50.767  1.00  0.00     0.054 C 
HETATM   34  C   UNL     1     -44.833  60.636 -49.799  1.00  0.00     0.020 C 
HETATM   35  C   UNL     1     -44.141  61.828 -51.905  1.00  0.00     0.020 A 
HETATM   36  C   UNL     1     -45.948  59.971 -50.597  1.00  0.00     0.023 C 
HETATM   37  C   UNL     1     -46.468  60.963 -51.643  1.00  0.00     0.138 C 
HETATM   38  C   UNL     1     -45.458  58.651 -51.218  1.00  0.00     0.129 C 
HETATM   39  N   UNL     1     -45.462  61.756 -52.352  1.00  0.00    -0.317 N 
HETATM   40  C   UNL     1     -45.921  62.505 -53.441  1.00  0.00     0.247 A 
HETATM   41  O   UNL     1     -47.078  62.497 -53.853  1.00  0.00    -0.268 OA
HETATM   42  C   UNL     1     -44.916  63.360 -54.124  1.00  0.00     0.074 A 
HETATM   43  C   UNL     1     -43.663  63.423 -53.662  1.00  0.00     0.007 A 
HETATM   44  C   UNL     1     -43.266  62.644 -52.521  1.00  0.00     0.026 A 
ENDBRANCH   4  31
TORSDOF 7
ENDMDL
MODEL 9
REMARK VINA RESULT:      -7.0      3.668      9.411
REMARK  7 active torsions:
REMARK  status: ('A' for Active; 'I' for Inactive)
REMARK    1  A    between atoms: C_2  and  O_3 
REMARK    2  A    between atoms: O_3  and  C_4 
REMARK       I    between atoms: C_4  and  N_5 
REMARK    3  A    between atoms: C_8  and  N_9 
REMARK       I    between atoms: N_9  and  C_10 
REMARK    4  A    between atoms: C_10  and  C_11 
REMARK    5  A    between atoms: C_13  and  N_14 
REMARK       I    between atoms: N_14  and  C_15 
REMARK    6  A    between atoms: C_15  and  C_16 
REMARK    7  A    between atoms: C_22  and  N_23 
ROOT
HETATM    1  C   UNL     1     -45.690  60.233 -56.977  1.00  0.00     0.034 A 
HETATM    2  C   UNL     1     -44.560  59.891 -57.723  1.00  0.00     0.049 A 
HETATM    3  C   UNL     1     -43.573  59.032 -57.198  1.00  0.00     0.062 A 
HETATM    4  C   UNL     1     -43.678  58.521 -55.882  1.00  0.00     0.057 A 
HETATM    5  C   UNL     1     -44.826  58.891 -55.156  1.00  0.00     0.033 A 
HETATM    6  C   UNL     1     -45.815  59.727 -55.686  1.00  0.00     0.019 A 
ENDROOT
BRANCH   1   7
HETATM    7  C   UNL     1     -46.749  61.155 -57.485  1.00  0.00     0.252 C 
HETATM    8  N   UNL     1     -47.834  61.376 -56.659  1.00  0.00    -0.352 N 
HETATM    9  H   UNL     1     -47.762  61.106 -55.689  1.00  0.00     0.163 HD
HETATM   10  O   UNL     1     -46.627  61.690 -58.582  1.00  0.00    -0.268 OA
BRANCH   8  11
HETATM   11  C   UNL     1     -48.894  62.316 -57.011  1.00  0.00     0.087 C 
HETATM   12  C   UNL     1     -50.257  61.806 -56.545  1.00  0.00     0.045 C 
HETATM   13  C   UNL     1     -50.403  61.837 -55.029  1.00  0.00     0.130 C 
HETATM   14  N   UNL     1     -50.017  63.121 -54.452  1.00  0.00    -0.328 N 
HETATM   15  C   UNL     1     -50.487  63.511 -53.201  1.00  0.00     0.362 C 
HETATM   16  C   UNL     1     -48.763  63.713 -54.907  1.00  0.00     0.130 C 
HETATM   17  O   UNL     1     -50.023  64.447 -52.557  1.00  0.00    -0.238 OA
HETATM   18  C   UNL     1     -48.622  63.702 -56.425  1.00  0.00     0.045 C 
BRANCH  15  19
HETATM   19  O   UNL     1     -51.517  62.734 -52.769  1.00  0.00    -0.304 OA
BRANCH  19  20
HETATM   20  C   UNL     1     -52.750  63.411 -52.490  1.00  0.00     0.176 C 
HETATM   21  C   UNL     1     -53.235  63.052 -51.098  1.00  0.00     0.034 C 
ENDBRANCH  19  20
ENDBRANCH  15  19
ENDBRANCH   8  11
ENDBRANCH   1   7
BRANCH   3  22
HETATM   22  N   UNL     1     -42.466  58.697 -58.014  1.00  0.00    -0.320 N 
HETATM   23  C   UNL     1     -42.506  58.200 -59.299  1.00  0.00     0.263 C 
HETATM   24  O   UNL     1     -41.671  58.608 -60.106  1.00  0.00    -0.267 OA
HETATM   25  H   UNL     1     -41.616  59.199 -57.815  1.00  0.00     0.169 HD
BRANCH  23  26
HETATM   26  C   UNL     1     -43.466  57.138 -59.575  1.00  0.00     0.072 A 
HETATM   27  S   UNL     1     -43.217  55.573 -58.923  1.00  0.00    -0.097 SA
HETATM   28  C   UNL     1     -44.681  54.989 -59.584  1.00  0.00     0.050 A 
HETATM   29  C   UNL     1     -45.355  55.960 -60.290  1.00  0.00     0.009 A 
HETATM   30  C   UNL     1     -44.654  57.199 -60.285  1.00  0.00     0.025 A 
ENDBRANCH  23  26
ENDBRANCH   3  22
BRANCH   4  31
HETATM   31  N   UNL     1     -42.760  57.648 -55.311  1.00  0.00    -0.378 N 
HETATM   32  C   UNL     1     -41.460  58.103 -54.810  1.00  0.00     0.134 C 
HETATM   33  C   UNL     1     -41.207  57.593 -53.374  1.00  0.00     0.054 C 
HETATM   34  C   UNL     1     -41.333  56.072 -53.339  1.00  0.00     0.020 C 
HETATM   35  C   UNL     1     -42.189  58.254 -52.423  1.00  0.00     0.020 A 
HETATM   36  C   UNL     1     -42.767  55.724 -53.722  1.00  0.00     0.023 C 
HETATM   37  C   UNL     1     -43.715  56.294 -52.662  1.00  0.00     0.138 C 
HETATM   38  C   UNL     1     -43.086  56.228 -55.141  1.00  0.00     0.129 C 
HETATM   39  N   UNL     1     -43.417  57.640 -52.171  1.00  0.00    -0.317 N 
HETATM   40  C   UNL     1     -44.393  58.232 -51.362  1.00  0.00     0.247 A 
HETATM   41  O   UNL     1     -45.476  57.719 -51.089  1.00  0.00    -0.268 OA
HETATM   42  C   UNL     1     -44.068  59.572 -50.809  1.00  0.00     0.074 A 
HETATM   43  C   UNL     1     -42.876  60.128 -51.052  1.00  0.00     0.007 A 
HETATM   44  C   UNL     1     -41.910  59.450 -51.873  1.00  0.00     0.026 A 
ENDBRANCH   4  31
TORSDOF 7
ENDMDL
MODEL 10
REMARK VINA RESULT:      -7.0      2.506      5.913
REMARK  7 active torsions:
REMARK  status: ('A' for Active; 'I' for Inactive)
REMARK    1  A    between atoms: C_2  and  O_3 
REMARK    2  A    between atoms: O_3  and  C_4 
REMARK       I    between atoms: C_4  and  N_5 
REMARK    3  A    between atoms: C_8  and  N_9 
REMARK       I    between atoms: N_9  and  C_10 
REMARK    4  A    between atoms: C_10  and  C_11 
REMARK    5  A    between atoms: C_13  and  N_14 
REMARK       I    between atoms: N_14  and  C_15 
REMARK    6  A    between atoms: C_15  and  C_16 
REMARK    7  A    between atoms: C_22  and  N_23 
ROOT
HETATM    1  C   UNL     1     -43.196  58.094 -56.993  1.00  0.00     0.034 A 
HETATM    2  C   UNL     1     -43.592  58.813 -58.124  1.00  0.00     0.049 A 
HETATM    3  C   UNL     1     -43.957  60.171 -58.033  1.00  0.00     0.062 A 
HETATM    4  C   UNL     1     -43.971  60.839 -56.785  1.00  0.00     0.057 A 
HETATM    5  C   UNL     1     -43.573  60.084 -55.665  1.00  0.00     0.033 A 
HETATM    6  C   UNL     1     -43.191  58.741 -55.761  1.00  0.00     0.019 A 
ENDROOT
BRANCH   1   7
HETATM    7  C   UNL     1     -42.821  56.650 -57.040  1.00  0.00     0.252 C 
HETATM    8  N   UNL     1     -42.151  56.143 -55.943  1.00  0.00    -0.352 N 
HETATM    9  H   UNL     1     -42.149  56.682 -55.090  1.00  0.00     0.163 HD
HETATM   10  O   UNL     1     -43.122  55.965 -58.013  1.00  0.00    -0.268 OA
BRANCH   8  11
HETATM   11  C   UNL     1     -41.802  54.730 -55.838  1.00  0.00     0.087 C 
HETATM   12  C   UNL     1     -40.486  54.544 -55.083  1.00  0.00     0.045 C 
HETATM   13  C   UNL     1     -40.615  54.870 -53.601  1.00  0.00     0.130 C 
HETATM   14  N   UNL     1     -41.759  54.214 -52.976  1.00  0.00    -0.328 N 
HETATM   15  C   UNL     1     -41.799  54.006 -51.601  1.00  0.00     0.362 C 
HETATM   16  C   UNL     1     -43.037  54.278 -53.678  1.00  0.00     0.130 C 
HETATM   17  O   UNL     1     -42.811  53.687 -50.986  1.00  0.00    -0.238 OA
HETATM   18  C   UNL     1     -42.916  53.932 -55.158  1.00  0.00     0.045 C 
BRANCH  15  19
HETATM   19  O   UNL     1     -40.588  54.201 -51.011  1.00  0.00    -0.304 OA
BRANCH  19  20
HETATM   20  C   UNL     1     -40.587  54.976 -49.805  1.00  0.00     0.176 C 
HETATM   21  C   UNL     1     -40.233  54.092 -48.623  1.00  0.00     0.034 C 
ENDBRANCH  19  20
ENDBRANCH  15  19
ENDBRANCH   8  11
ENDBRANCH   1   7
BRANCH   3  22
HETATM   22  N   UNL     1     -44.319  60.854 -59.219  1.00  0.00    -0.320 N 
HETATM   23  C   UNL     1     -43.469  61.299 -60.209  1.00  0.00     0.263 C 
HETATM   24  O   UNL     1     -43.833  61.191 -61.380  1.00  0.00    -0.267 OA
HETATM   25  H   UNL     1     -45.249  60.670 -59.556  1.00  0.00     0.169 HD
BRANCH  23  26
HETATM   26  C   UNL     1     -42.246  61.973 -59.787  1.00  0.00     0.072 A 
HETATM   27  S   UNL     1     -42.079  63.661 -60.024  1.00  0.00    -0.097 SA
HETATM   28  C   UNL     1     -40.546  63.685 -59.266  1.00  0.00     0.050 A 
HETATM   29  C   UNL     1     -40.160  62.435 -58.838  1.00  0.00     0.009 A 
HETATM   30  C   UNL     1     -41.140  61.447 -59.138  1.00  0.00     0.025 A 
ENDBRANCH  23  26
ENDBRANCH   3  22
BRANCH   4  31
HETATM   31  N   UNL     1     -44.292  62.182 -56.625  1.00  0.00    -0.378 N 
HETATM   32  C   UNL     1     -45.678  62.650 -56.557  1.00  0.00     0.134 C 
HETATM   33  C   UNL     1     -45.898  63.567 -55.333  1.00  0.00     0.054 C 
HETATM   34  C   UNL     1     -44.905  64.726 -55.375  1.00  0.00     0.020 C 
HETATM   35  C   UNL     1     -45.749  62.754 -54.060  1.00  0.00     0.020 A 
HETATM   36  C   UNL     1     -43.505  64.131 -55.280  1.00  0.00     0.023 C 
HETATM   37  C   UNL     1     -43.352  63.438 -53.922  1.00  0.00     0.138 C 
HETATM   38  C   UNL     1     -43.235  63.187 -56.466  1.00  0.00     0.129 C 
HETATM   39  N   UNL     1     -44.494  62.648 -53.457  1.00  0.00    -0.317 N 
HETATM   40  C   UNL     1     -44.276  61.857 -52.324  1.00  0.00     0.247 A 
HETATM   41  O   UNL     1     -43.198  61.754 -51.744  1.00  0.00    -0.268 OA
HETATM   42  C   UNL     1     -45.449  61.102 -51.812  1.00  0.00     0.074 A 
HETATM   43  C   UNL     1     -46.643  61.238 -52.397  1.00  0.00     0.007 A 
HETATM   44  C   UNL     1     -46.800  62.089 -53.545  1.00  0.00     0.026 A 
ENDBRANCH   4  31
TORSDOF 7
ENDMDL
