MODEL 1
REMARK VINA RESULT:      -7.3      0.000      0.000
REMARK  8 active torsions:
REMARK  status: ('A' for Active; 'I' for Inactive)
REMARK    1  A    between atoms: N_2  and  C_4 
REMARK    2  A    between atoms: N_2  and  C_28 
REMARK    3  A    between atoms: N_7  and  C_8 
REMARK    4  A    between atoms: C_11  and  C_12 
REMARK       I    between atoms: C_12  and  N_13 
REMARK    5  A    between atoms: N_13  and  C_14 
REMARK    6  A    between atoms: C_14  and  C_15 
REMARK    7  A    between atoms: C_15  and  N_16 
REMARK    8  A    between atoms: C_28  and  C_29 
ROOT
HETATM    1  C   UNL     1     -43.212  56.323 -56.663  1.00  0.00     0.030 A 
HETATM    2  C   UNL     1     -43.301  57.100 -55.498  1.00  0.00     0.030 A 
HETATM    3  C   UNL     1     -43.155  56.537 -54.220  1.00  0.00     0.019 A 
HETATM    4  C   UNL     1     -42.908  55.170 -54.081  1.00  0.00     0.032 A 
HETATM    5  C   UNL     1     -42.811  54.377 -55.224  1.00  0.00     0.019 A 
HETATM    6  C   UNL     1     -42.970  54.948 -56.493  1.00  0.00     0.030 A 
ENDROOT
BRANCH   1   7
HETATM    7  N   UNL     1     -43.280  56.862 -57.954  1.00  0.00    -0.381 N 
HETATM    8  C   UNL     1     -42.089  57.503 -58.506  1.00  0.00     0.125 C 
HETATM    9  C   UNL     1     -42.188  57.525 -60.029  1.00  0.00     0.053 C 
HETATM   10  C   UNL     1     -43.495  58.160 -60.535  1.00  0.00     0.191 C 
HETATM   11  C   UNL     1     -44.679  57.444 -59.864  1.00  0.00     0.053 C 
HETATM   12  C   UNL     1     -44.574  57.433 -58.341  1.00  0.00     0.125 C 
BRANCH  10  13
HETATM   13  N   UNL     1     -43.519  59.685 -60.315  1.00  0.00    -0.067 N 
HETATM   14  C   UNL     1     -44.882  60.313 -60.537  1.00  0.00     0.270 C 
HETATM   15  H   UNL     1     -43.272  59.883 -59.338  1.00  0.00     0.280 HD
BRANCH  13  16
HETATM   16  C   UNL     1     -42.488  60.427 -61.168  1.00  0.00     0.273 C 
BRANCH  16  17
HETATM   17  C   UNL     1     -41.589  61.298 -60.348  1.00  0.00    -0.026 A 
HETATM   18  C   UNL     1     -40.766  62.286 -60.861  1.00  0.00     0.058 A 
HETATM   19  S   UNL     1     -39.885  63.113 -59.652  1.00  0.00    -0.113 SA
HETATM   20  C   UNL     1     -40.556  62.140 -58.421  1.00  0.00     0.050 A 
HETATM   21  C   UNL     1     -41.442  61.211 -58.920  1.00  0.00     0.016 A 
ENDBRANCH  16  17
ENDBRANCH  13  16
ENDBRANCH  10  13
ENDBRANCH   1   7
BRANCH   4  22
HETATM   22  C   UNL     1     -42.649  54.550 -52.755  1.00  0.00     0.251 C 
HETATM   23  N   UNL     1     -41.390  54.707 -52.219  1.00  0.00    -0.355 N 
HETATM   24  H   UNL     1     -40.714  55.247 -52.748  1.00  0.00     0.162 HD
HETATM   25  O   UNL     1     -43.539  53.941 -52.167  1.00  0.00    -0.268 OA
BRANCH  23  26
HETATM   26  C   UNL     1     -40.868  53.931 -51.095  1.00  0.00     0.150 C 
BRANCH  26  27
HETATM   27  C   UNL     1     -39.626  53.052 -51.369  1.00  0.00     0.254 C 
BRANCH  27  28
HETATM   28  N   UNL     1     -39.951  51.776 -52.106  1.00  0.00    -0.066 N 
HETATM   29  H   UNL     1     -40.979  51.643 -52.004  1.00  0.00     0.280 HD
HETATM   30  C   UNL     1     -39.682  51.812 -53.602  1.00  0.00     0.261 C 
HETATM   31  C   UNL     1     -40.121  50.486 -54.235  1.00  0.00     0.195 C 
HETATM   32  O   UNL     1     -39.447  49.382 -53.623  1.00  0.00    -0.388 OA
HETATM   33  C   UNL     1     -39.751  49.292 -52.226  1.00  0.00     0.195 C 
HETATM   34  C   UNL     1     -39.297  50.553 -51.483  1.00  0.00     0.261 C 
ENDBRANCH  27  28
ENDBRANCH  26  27
ENDBRANCH  23  26
ENDBRANCH   4  22
TORSDOF 8
ENDMDL
MODEL 2
REMARK VINA RESULT:      -7.2      4.309     10.647
REMARK  8 active torsions:
REMARK  status: ('A' for Active; 'I' for Inactive)
REMARK    1  A    between atoms: N_2  and  C_4 
REMARK    2  A    between atoms: N_2  and  C_28 
REMARK    3  A    between atoms: N_7  and  C_8 
REMARK    4  A    between atoms: C_11  and  C_12 
REMARK       I    between atoms: C_12  and  N_13 
REMARK    5  A    between atoms: N_13  and  C_14 
REMARK    6  A    between atoms: C_14  and  C_15 
REMARK    7  A    between atoms: C_15  and  N_16 
REMARK    8  A    between atoms: C_28  and  C_29 
ROOT
HETATM    1  C   UNL     1     -42.609  55.787 -54.110  1.00  0.00     0.030 A 
HETATM    2  C   UNL     1     -42.760  57.091 -54.605  1.00  0.00     0.030 A 
HETATM    3  C   UNL     1     -43.042  57.341 -55.959  1.00  0.00     0.019 A 
HETATM    4  C   UNL     1     -43.184  56.278 -56.852  1.00  0.00     0.032 A 
HETATM    5  C   UNL     1     -43.042  54.972 -56.384  1.00  0.00     0.019 A 
HETATM    6  C   UNL     1     -42.751  54.736 -55.033  1.00  0.00     0.030 A 
ENDROOT
BRANCH   1   7
HETATM    7  N   UNL     1     -42.402  55.498 -52.756  1.00  0.00    -0.381 N 
HETATM    8  C   UNL     1     -41.079  55.741 -52.186  1.00  0.00     0.125 C 
HETATM    9  C   UNL     1     -41.201  55.886 -50.671  1.00  0.00     0.053 C 
HETATM   10  C   UNL     1     -41.924  54.699 -50.013  1.00  0.00     0.191 C 
HETATM   11  C   UNL     1     -43.280  54.503 -50.711  1.00  0.00     0.053 C 
HETATM   12  C   UNL     1     -43.146  54.352 -52.224  1.00  0.00     0.125 C 
BRANCH  10  13
HETATM   13  N   UNL     1     -41.061  53.422 -50.019  1.00  0.00    -0.067 N 
HETATM   14  C   UNL     1     -40.538  53.032 -48.649  1.00  0.00     0.270 C 
HETATM   15  H   UNL     1     -41.637  52.634 -50.336  1.00  0.00     0.280 HD
BRANCH  13  16
HETATM   16  C   UNL     1     -39.884  53.502 -50.993  1.00  0.00     0.273 C 
BRANCH  16  17
HETATM   17  C   UNL     1     -39.870  52.366 -51.967  1.00  0.00    -0.026 A 
HETATM   18  C   UNL     1     -39.517  51.065 -51.655  1.00  0.00     0.058 A 
HETATM   19  S   UNL     1     -39.631  50.005 -52.991  1.00  0.00    -0.113 SA
HETATM   20  C   UNL     1     -40.117  51.273 -54.025  1.00  0.00     0.050 A 
HETATM   21  C   UNL     1     -40.201  52.477 -53.362  1.00  0.00     0.016 A 
ENDBRANCH  16  17
ENDBRANCH  13  16
ENDBRANCH  10  13
ENDBRANCH   1   7
BRANCH   4  22
HETATM   22  C   UNL     1     -43.578  56.492 -58.270  1.00  0.00     0.251 C 
HETATM   23  N   UNL     1     -44.857  56.942 -58.509  1.00  0.00    -0.355 N 
HETATM   24  H   UNL     1     -45.455  57.119 -57.709  1.00  0.00     0.162 HD
HETATM   25  O   UNL     1     -42.776  56.286 -59.177  1.00  0.00    -0.268 OA
BRANCH  23  26
HETATM   26  C   UNL     1     -45.509  56.920 -59.817  1.00  0.00     0.150 C 
BRANCH  26  27
HETATM   27  C   UNL     1     -46.131  58.247 -60.311  1.00  0.00     0.254 C 
BRANCH  27  28
HETATM   28  N   UNL     1     -47.146  58.054 -61.411  1.00  0.00    -0.066 N 
HETATM   29  H   UNL     1     -46.631  58.213 -62.303  1.00  0.00     0.280 HD
HETATM   30  C   UNL     1     -47.729  56.653 -61.509  1.00  0.00     0.261 C 
HETATM   31  C   UNL     1     -48.685  56.578 -62.707  1.00  0.00     0.195 C 
HETATM   32  O   UNL     1     -49.724  57.555 -62.590  1.00  0.00    -0.388 OA
HETATM   33  C   UNL     1     -49.194  58.884 -62.570  1.00  0.00     0.195 C 
HETATM   34  C   UNL     1     -48.262  59.086 -61.371  1.00  0.00     0.261 C 
ENDBRANCH  27  28
ENDBRANCH  26  27
ENDBRANCH  23  26
ENDBRANCH   4  22
TORSDOF 8
ENDMDL
MODEL 3
REMARK VINA RESULT:      -7.0      3.759     10.110
REMARK  8 active torsions:
REMARK  status: ('A' for Active; 'I' for Inactive)
REMARK    1  A    between atoms: N_2  and  C_4 
REMARK    2  A    between atoms: N_2  and  C_28 
REMARK    3  A    between atoms: N_7  and  C_8 
REMARK    4  A    between atoms: C_11  and  C_12 
REMARK       I    between atoms: C_12  and  N_13 
REMARK    5  A    between atoms: N_13  and  C_14 
REMARK    6  A    between atoms: C_14  and  C_15 
REMARK    7  A    between atoms: C_15  and  N_16 
REMARK    8  A    between atoms: C_28  and  C_29 
ROOT
HETATM    1  C   UNL     1     -42.709  55.512 -54.105  1.00  0.00     0.030 A 
HETATM    2  C   UNL     1     -43.016  54.455 -54.975  1.00  0.00     0.030 A 
HETATM    3  C   UNL     1     -43.129  54.646 -56.363  1.00  0.00     0.019 A 
HETATM    4  C   UNL     1     -42.930  55.914 -56.912  1.00  0.00     0.032 A 
HETATM    5  C   UNL     1     -42.621  56.980 -56.069  1.00  0.00     0.019 A 
HETATM    6  C   UNL     1     -42.521  56.779 -54.686  1.00  0.00     0.030 A 
ENDROOT
BRANCH   1   7
HETATM    7  N   UNL     1     -42.517  55.343 -52.729  1.00  0.00    -0.381 N 
HETATM    8  C   UNL     1     -41.238  55.748 -52.148  1.00  0.00     0.125 C 
HETATM    9  C   UNL     1     -41.419  55.991 -50.652  1.00  0.00     0.053 C 
HETATM   10  C   UNL     1     -42.051  54.793 -49.923  1.00  0.00     0.191 C 
HETATM   11  C   UNL     1     -43.363  54.423 -50.636  1.00  0.00     0.053 C 
HETATM   12  C   UNL     1     -43.171  54.176 -52.130  1.00  0.00     0.125 C 
BRANCH  10  13
HETATM   13  N   UNL     1     -41.077  53.604 -49.813  1.00  0.00    -0.067 N 
HETATM   14  C   UNL     1     -40.483  53.428 -48.428  1.00  0.00     0.270 C 
HETATM   15  H   UNL     1     -41.588  52.737 -50.014  1.00  0.00     0.280 HD
BRANCH  13  16
HETATM   16  C   UNL     1     -39.939  53.669 -50.834  1.00  0.00     0.273 C 
BRANCH  16  17
HETATM   17  C   UNL     1     -39.880  52.451 -51.701  1.00  0.00    -0.026 A 
HETATM   18  C   UNL     1     -39.672  51.164 -51.238  1.00  0.00     0.058 A 
HETATM   19  S   UNL     1     -39.684  49.996 -52.487  1.00  0.00    -0.113 SA
HETATM   20  C   UNL     1     -39.927  51.195 -53.678  1.00  0.00     0.050 A 
HETATM   21  C   UNL     1     -40.009  52.457 -53.133  1.00  0.00     0.016 A 
ENDBRANCH  16  17
ENDBRANCH  13  16
ENDBRANCH  10  13
ENDBRANCH   1   7
BRANCH   4  22
HETATM   22  C   UNL     1     -42.943  56.142 -58.382  1.00  0.00     0.251 C 
HETATM   23  N   UNL     1     -41.996  56.999 -58.896  1.00  0.00    -0.355 N 
HETATM   24  H   UNL     1     -41.332  57.415 -58.252  1.00  0.00     0.162 HD
HETATM   25  O   UNL     1     -43.763  55.569 -59.094  1.00  0.00    -0.268 OA
BRANCH  23  26
HETATM   26  C   UNL     1     -42.043  57.571 -60.241  1.00  0.00     0.150 C 
BRANCH  26  27
HETATM   27  C   UNL     1     -42.072  59.113 -60.345  1.00  0.00     0.254 C 
BRANCH  27  28
HETATM   28  N   UNL     1     -43.428  59.704 -60.046  1.00  0.00    -0.066 N 
HETATM   29  H   UNL     1     -43.480  60.588 -60.596  1.00  0.00     0.280 HD
HETATM   30  C   UNL     1     -44.610  58.861 -60.498  1.00  0.00     0.261 C 
HETATM   31  C   UNL     1     -45.916  59.607 -60.201  1.00  0.00     0.195 C 
HETATM   32  O   UNL     1     -46.018  59.921 -58.808  1.00  0.00    -0.388 OA
HETATM   33  C   UNL     1     -44.950  60.775 -58.384  1.00  0.00     0.195 C 
HETATM   34  C   UNL     1     -43.590  60.098 -58.587  1.00  0.00     0.261 C 
ENDBRANCH  27  28
ENDBRANCH  26  27
ENDBRANCH  23  26
ENDBRANCH   4  22
TORSDOF 8
ENDMDL
MODEL 4
REMARK VINA RESULT:      -6.7      4.355     10.588
REMARK  8 active torsions:
REMARK  status: ('A' for Active; 'I' for Inactive)
REMARK    1  A    between atoms: N_2  and  C_4 
REMARK    2  A    between atoms: N_2  and  C_28 
REMARK    3  A    between atoms: N_7  and  C_8 
REMARK    4  A    between atoms: C_11  and  C_12 
REMARK       I    between atoms: C_12  and  N_13 
REMARK    5  A    between atoms: N_13  and  C_14 
REMARK    6  A    between atoms: C_14  and  C_15 
REMARK    7  A    between atoms: C_15  and  N_16 
REMARK    8  A    between atoms: C_28  and  C_29 
ROOT
HETATM    1  C   UNL     1     -42.557  57.579 -55.665  1.00  0.00     0.030 A 
HETATM    2  C   UNL     1     -42.798  56.595 -56.636  1.00  0.00     0.030 A 
HETATM    3  C   UNL     1     -42.698  56.870 -58.010  1.00  0.00     0.019 A 
HETATM    4  C   UNL     1     -42.345  58.149 -58.443  1.00  0.00     0.032 A 
HETATM    5  C   UNL     1     -42.096  59.143 -57.498  1.00  0.00     0.019 A 
HETATM    6  C   UNL     1     -42.210  58.859 -56.130  1.00  0.00     0.030 A 
ENDROOT
BRANCH   1   7
HETATM    7  N   UNL     1     -42.577  57.321 -54.288  1.00  0.00    -0.381 N 
HETATM    8  C   UNL     1     -41.358  56.823 -53.655  1.00  0.00     0.125 C 
HETATM    9  C   UNL     1     -41.411  57.120 -52.158  1.00  0.00     0.053 C 
HETATM   10  C   UNL     1     -42.690  56.591 -51.487  1.00  0.00     0.191 C 
HETATM   11  C   UNL     1     -43.907  57.138 -52.253  1.00  0.00     0.053 C 
HETATM   12  C   UNL     1     -43.848  56.830 -53.747  1.00  0.00     0.125 C 
BRANCH  10  13
HETATM   13  N   UNL     1     -42.694  55.053 -51.383  1.00  0.00    -0.067 N 
HETATM   14  C   UNL     1     -43.823  54.502 -50.532  1.00  0.00     0.270 C 
HETATM   15  H   UNL     1     -42.829  54.658 -52.321  1.00  0.00     0.280 HD
BRANCH  13  16
HETATM   16  C   UNL     1     -41.368  54.486 -50.872  1.00  0.00     0.273 C 
BRANCH  16  17
HETATM   17  C   UNL     1     -40.809  53.436 -51.780  1.00  0.00    -0.026 A 
HETATM   18  C   UNL     1     -39.899  52.466 -51.398  1.00  0.00     0.058 A 
HETATM   19  S   UNL     1     -39.481  51.405 -52.670  1.00  0.00    -0.113 SA
HETATM   20  C   UNL     1     -40.478  52.246 -53.771  1.00  0.00     0.050 A 
HETATM   21  C   UNL     1     -41.126  53.307 -53.177  1.00  0.00     0.016 A 
ENDBRANCH  16  17
ENDBRANCH  13  16
ENDBRANCH  10  13
ENDBRANCH   1   7
BRANCH   4  22
HETATM   22  C   UNL     1     -42.131  58.459 -59.881  1.00  0.00     0.251 C 
HETATM   23  N   UNL     1     -42.001  59.784 -60.230  1.00  0.00    -0.355 N 
HETATM   24  H   UNL     1     -42.041  60.476 -59.489  1.00  0.00     0.162 HD
HETATM   25  O   UNL     1     -42.059  57.554 -60.710  1.00  0.00    -0.268 OA
BRANCH  23  26
HETATM   26  C   UNL     1     -42.088  60.290 -61.599  1.00  0.00     0.150 C 
BRANCH  26  27
HETATM   27  C   UNL     1     -41.985  61.822 -61.786  1.00  0.00     0.254 C 
BRANCH  27  28
HETATM   28  N   UNL     1     -40.615  62.369 -61.466  1.00  0.00    -0.066 N 
HETATM   29  H   UNL     1     -40.004  61.537 -61.324  1.00  0.00     0.280 HD
HETATM   30  C   UNL     1     -39.969  63.174 -62.582  1.00  0.00     0.261 C 
HETATM   31  C   UNL     1     -38.561  63.606 -62.154  1.00  0.00     0.195 C 
HETATM   32  O   UNL     1     -38.606  64.362 -60.940  1.00  0.00    -0.388 OA
HETATM   33  C   UNL     1     -39.146  63.590 -59.862  1.00  0.00     0.195 C 
HETATM   34  C   UNL     1     -40.583  63.152 -60.164  1.00  0.00     0.261 C 
ENDBRANCH  27  28
ENDBRANCH  26  27
ENDBRANCH  23  26
ENDBRANCH   4  22
TORSDOF 8
ENDMDL
MODEL 5
REMARK VINA RESULT:      -6.6      2.245      3.603
REMARK  8 active torsions:
REMARK  status: ('A' for Active; 'I' for Inactive)
REMARK    1  A    between atoms: N_2  and  C_4 
REMARK    2  A    between atoms: N_2  and  C_28 
REMARK    3  A    between atoms: N_7  and  C_8 
REMARK    4  A    between atoms: C_11  and  C_12 
REMARK       I    between atoms: C_12  and  N_13 
REMARK    5  A    between atoms: N_13  and  C_14 
REMARK    6  A    between atoms: C_14  and  C_15 
REMARK    7  A    between atoms: C_15  and  N_16 
REMARK    8  A    between atoms: C_28  and  C_29 
ROOT
HETATM    1  C   UNL     1     -42.951  57.795 -55.172  1.00  0.00     0.030 A 
HETATM    2  C   UNL     1     -41.831  57.828 -54.327  1.00  0.00     0.030 A 
HETATM    3  C   UNL     1     -41.600  56.830 -53.366  1.00  0.00     0.019 A 
HETATM    4  C   UNL     1     -42.493  55.765 -53.234  1.00  0.00     0.032 A 
HETATM    5  C   UNL     1     -43.612  55.708 -54.064  1.00  0.00     0.019 A 
HETATM    6  C   UNL     1     -43.837  56.715 -55.012  1.00  0.00     0.030 A 
ENDROOT
BRANCH   1   7
HETATM    7  N   UNL     1     -43.174  58.732 -56.189  1.00  0.00    -0.381 N 
HETATM    8  C   UNL     1     -44.513  58.833 -56.764  1.00  0.00     0.125 C 
HETATM    9  C   UNL     1     -44.680  60.202 -57.417  1.00  0.00     0.053 C 
HETATM   10  C   UNL     1     -43.571  60.519 -58.434  1.00  0.00     0.191 C 
HETATM   11  C   UNL     1     -42.208  60.342 -57.744  1.00  0.00     0.053 C 
HETATM   12  C   UNL     1     -42.049  58.968 -57.100  1.00  0.00     0.125 C 
BRANCH  10  13
HETATM   13  N   UNL     1     -43.703  59.673 -59.716  1.00  0.00    -0.067 N 
HETATM   14  C   UNL     1     -42.841  60.163 -60.863  1.00  0.00     0.270 C 
HETATM   15  H   UNL     1     -43.389  58.716 -59.515  1.00  0.00     0.280 HD
BRANCH  13  16
HETATM   16  C   UNL     1     -45.149  59.549 -60.202  1.00  0.00     0.273 C 
BRANCH  16  17
HETATM   17  C   UNL     1     -45.607  58.126 -60.274  1.00  0.00    -0.026 A 
HETATM   18  C   UNL     1     -44.768  57.026 -60.251  1.00  0.00     0.058 A 
HETATM   19  S   UNL     1     -45.612  55.542 -60.326  1.00  0.00    -0.113 SA
HETATM   20  C   UNL     1     -47.117  56.341 -60.432  1.00  0.00     0.050 A 
HETATM   21  C   UNL     1     -46.978  57.711 -60.398  1.00  0.00     0.016 A 
ENDBRANCH  16  17
ENDBRANCH  13  16
ENDBRANCH  10  13
ENDBRANCH   1   7
BRANCH   4  22
HETATM   22  C   UNL     1     -42.237  54.638 -52.299  1.00  0.00     0.251 C 
HETATM   23  N   UNL     1     -41.310  54.842 -51.302  1.00  0.00    -0.355 N 
HETATM   24  H   UNL     1     -40.864  55.751 -51.248  1.00  0.00     0.162 HD
HETATM   25  O   UNL     1     -42.849  53.579 -52.417  1.00  0.00    -0.268 OA
BRANCH  23  26
HETATM   26  C   UNL     1     -40.716  53.776 -50.496  1.00  0.00     0.150 C 
BRANCH  26  27
HETATM   27  C   UNL     1     -39.513  53.023 -51.110  1.00  0.00     0.254 C 
BRANCH  27  28
HETATM   28  N   UNL     1     -39.921  51.842 -51.956  1.00  0.00    -0.066 N 
HETATM   29  H   UNL     1     -40.944  51.719 -51.797  1.00  0.00     0.280 HD
HETATM   30  C   UNL     1     -39.753  52.037 -53.455  1.00  0.00     0.261 C 
HETATM   31  C   UNL     1     -40.270  50.797 -54.195  1.00  0.00     0.195 C 
HETATM   32  O   UNL     1     -39.586  49.619 -53.755  1.00  0.00    -0.388 OA
HETATM   33  C   UNL     1     -39.797  49.383 -52.358  1.00  0.00     0.195 C 
HETATM   34  C   UNL     1     -39.261  50.545 -51.517  1.00  0.00     0.261 C 
ENDBRANCH  27  28
ENDBRANCH  26  27
ENDBRANCH  23  26
ENDBRANCH   4  22
TORSDOF 8
ENDMDL
MODEL 6
REMARK VINA RESULT:      -6.6      6.541     10.456
REMARK  8 active torsions:
REMARK  status: ('A' for Active; 'I' for Inactive)
REMARK    1  A    between atoms: N_2  and  C_4 
REMARK    2  A    between atoms: N_2  and  C_28 
REMARK    3  A    between atoms: N_7  and  C_8 
REMARK    4  A    between atoms: C_11  and  C_12 
REMARK       I    between atoms: C_12  and  N_13 
REMARK    5  A    between atoms: N_13  and  C_14 
REMARK    6  A    between atoms: C_14  and  C_15 
REMARK    7  A    between atoms: C_15  and  N_16 
REMARK    8  A    between atoms: C_28  and  C_29 
ROOT
HETATM    1  C   UNL     1     -44.567  57.514 -52.656  1.00  0.00     0.030 A 
HETATM    2  C   UNL     1     -44.803  58.492 -53.634  1.00  0.00     0.030 A 
HETATM    3  C   UNL     1     -45.409  59.721 -53.322  1.00  0.00     0.019 A 
HETATM    4  C   UNL     1     -45.792  59.998 -52.008  1.00  0.00     0.032 A 
HETATM    5  C   UNL     1     -45.566  59.044 -51.017  1.00  0.00     0.019 A 
HETATM    6  C   UNL     1     -44.969  57.818 -51.343  1.00  0.00     0.030 A 
ENDROOT
BRANCH   1   7
HETATM    7  N   UNL     1     -43.900  56.311 -52.917  1.00  0.00    -0.381 N 
HETATM    8  C   UNL     1     -43.176  55.663 -51.826  1.00  0.00     0.125 C 
HETATM    9  C   UNL     1     -43.000  54.181 -52.147  1.00  0.00     0.053 C 
HETATM   10  C   UNL     1     -42.349  53.940 -53.519  1.00  0.00     0.191 C 
HETATM   11  C   UNL     1     -43.159  54.696 -54.586  1.00  0.00     0.053 C 
HETATM   12  C   UNL     1     -43.324  56.177 -54.259  1.00  0.00     0.125 C 
BRANCH  10  13
HETATM   13  N   UNL     1     -40.855  54.321 -53.524  1.00  0.00    -0.067 N 
HETATM   14  C   UNL     1     -40.203  54.212 -54.889  1.00  0.00     0.270 C 
HETATM   15  H   UNL     1     -40.763  55.304 -53.245  1.00  0.00     0.280 HD
BRANCH  13  16
HETATM   16  C   UNL     1     -40.031  53.517 -52.517  1.00  0.00     0.273 C 
BRANCH  16  17
HETATM   17  C   UNL     1     -39.950  52.066 -52.874  1.00  0.00    -0.026 A 
HETATM   18  C   UNL     1     -39.558  51.061 -52.007  1.00  0.00     0.058 A 
HETATM   19  S   UNL     1     -39.597  49.510 -52.723  1.00  0.00    -0.113 SA
HETATM   20  C   UNL     1     -40.101  50.155 -54.221  1.00  0.00     0.050 A 
HETATM   21  C   UNL     1     -40.247  51.523 -54.172  1.00  0.00     0.016 A 
ENDBRANCH  16  17
ENDBRANCH  13  16
ENDBRANCH  10  13
ENDBRANCH   1   7
BRANCH   4  22
HETATM   22  C   UNL     1     -46.346  61.321 -51.616  1.00  0.00     0.251 C 
HETATM   23  N   UNL     1     -45.590  62.095 -50.765  1.00  0.00    -0.355 N 
HETATM   24  H   UNL     1     -44.693  61.732 -50.464  1.00  0.00     0.162 HD
HETATM   25  O   UNL     1     -47.429  61.698 -52.056  1.00  0.00    -0.268 OA
BRANCH  23  26
HETATM   26  C   UNL     1     -46.095  63.263 -50.044  1.00  0.00     0.150 C 
BRANCH  26  27
HETATM   27  C   UNL     1     -46.826  62.998 -48.707  1.00  0.00     0.254 C 
BRANCH  27  28
HETATM   28  N   UNL     1     -45.886  62.695 -47.566  1.00  0.00    -0.066 N 
HETATM   29  H   UNL     1     -44.941  62.994 -47.889  1.00  0.00     0.280 HD
HETATM   30  C   UNL     1     -46.156  63.473 -46.288  1.00  0.00     0.261 C 
HETATM   31  C   UNL     1     -45.091  63.125 -45.241  1.00  0.00     0.195 C 
HETATM   32  O   UNL     1     -45.069  61.717 -44.984  1.00  0.00    -0.388 OA
HETATM   33  C   UNL     1     -44.744  60.975 -46.165  1.00  0.00     0.195 C 
HETATM   34  C   UNL     1     -45.784  61.208 -47.265  1.00  0.00     0.261 C 
ENDBRANCH  27  28
ENDBRANCH  26  27
ENDBRANCH  23  26
ENDBRANCH   4  22
TORSDOF 8
ENDMDL
MODEL 7
REMARK VINA RESULT:      -6.4     16.414     19.732
REMARK  8 active torsions:
REMARK  status: ('A' for Active; 'I' for Inactive)
REMARK    1  A    between atoms: N_2  and  C_4 
REMARK    2  A    between atoms: N_2  and  C_28 
REMARK    3  A    between atoms: N_7  and  C_8 
REMARK    4  A    between atoms: C_11  and  C_12 
REMARK       I    between atoms: C_12  and  N_13 
REMARK    5  A    between atoms: N_13  and  C_14 
REMARK    6  A    between atoms: C_14  and  C_15 
REMARK    7  A    between atoms: C_15  and  N_16 
REMARK    8  A    between atoms: C_28  and  C_29 
ROOT
HETATM    1  C   UNL     1     -33.628  40.598 -51.880  1.00  0.00     0.030 A 
HETATM    2  C   UNL     1     -32.231  40.466 -51.844  1.00  0.00     0.030 A 
HETATM    3  C   UNL     1     -31.557  40.049 -50.684  1.00  0.00     0.019 A 
HETATM    4  C   UNL     1     -32.276  39.748 -49.526  1.00  0.00     0.032 A 
HETATM    5  C   UNL     1     -33.665  39.867 -49.538  1.00  0.00     0.019 A 
HETATM    6  C   UNL     1     -34.326  40.294 -50.698  1.00  0.00     0.030 A 
ENDROOT
BRANCH   1   7
HETATM    7  N   UNL     1     -34.338  40.939 -53.038  1.00  0.00    -0.381 N 
HETATM    8  C   UNL     1     -35.713  41.411 -52.899  1.00  0.00     0.125 C 
HETATM    9  C   UNL     1     -36.099  42.212 -54.140  1.00  0.00     0.053 C 
HETATM   10  C   UNL     1     -35.865  41.439 -55.448  1.00  0.00     0.191 C 
HETATM   11  C   UNL     1     -34.406  40.952 -55.475  1.00  0.00     0.053 C 
HETATM   12  C   UNL     1     -34.032  40.147 -54.233  1.00  0.00     0.125 C 
BRANCH  10  13
HETATM   13  N   UNL     1     -36.878  40.293 -55.632  1.00  0.00    -0.067 N 
HETATM   14  C   UNL     1     -36.279  39.040 -56.243  1.00  0.00     0.270 C 
HETATM   15  H   UNL     1     -37.234  40.015 -54.710  1.00  0.00     0.280 HD
BRANCH  13  16
HETATM   16  C   UNL     1     -38.104  40.705 -56.450  1.00  0.00     0.273 C 
BRANCH  16  17
HETATM   17  C   UNL     1     -37.803  40.816 -57.912  1.00  0.00    -0.026 A 
HETATM   18  C   UNL     1     -37.951  39.790 -58.828  1.00  0.00     0.058 A 
HETATM   19  S   UNL     1     -37.543  40.254 -60.421  1.00  0.00    -0.113 SA
HETATM   20  C   UNL     1     -37.120  41.827 -59.912  1.00  0.00     0.050 A 
HETATM   21  C   UNL     1     -37.298  41.998 -58.557  1.00  0.00     0.016 A 
ENDBRANCH  16  17
ENDBRANCH  13  16
ENDBRANCH  10  13
ENDBRANCH   1   7
BRANCH   4  22
HETATM   22  C   UNL     1     -31.614  39.210 -48.309  1.00  0.00     0.251 C 
HETATM   23  N   UNL     1     -30.695  40.020 -47.679  1.00  0.00    -0.355 N 
HETATM   24  H   UNL     1     -30.531  40.942 -48.068  1.00  0.00     0.162 HD
HETATM   25  O   UNL     1     -31.899  38.092 -47.887  1.00  0.00    -0.268 OA
BRANCH  23  26
HETATM   26  C   UNL     1     -29.742  39.558 -46.671  1.00  0.00     0.150 C 
BRANCH  26  27
HETATM   27  C   UNL     1     -29.722  40.322 -45.327  1.00  0.00     0.254 C 
BRANCH  27  28
HETATM   28  N   UNL     1     -28.502  40.021 -44.491  1.00  0.00    -0.066 N 
HETATM   29  H   UNL     1     -27.736  40.607 -44.885  1.00  0.00     0.280 HD
HETATM   30  C   UNL     1     -28.616  40.413 -43.026  1.00  0.00     0.261 C 
HETATM   31  C   UNL     1     -27.289  40.121 -42.313  1.00  0.00     0.195 C 
HETATM   32  O   UNL     1     -26.934  38.741 -42.444  1.00  0.00    -0.388 OA
HETATM   33  C   UNL     1     -26.752  38.376 -43.817  1.00  0.00     0.195 C 
HETATM   34  C   UNL     1     -28.044  38.577 -44.615  1.00  0.00     0.261 C 
ENDBRANCH  27  28
ENDBRANCH  26  27
ENDBRANCH  23  26
ENDBRANCH   4  22
TORSDOF 8
ENDMDL
MODEL 8
REMARK VINA RESULT:      -6.3      6.785     11.361
REMARK  8 active torsions:
REMARK  status: ('A' for Active; 'I' for Inactive)
REMARK    1  A    between atoms: N_2  and  C_4 
REMARK    2  A    between atoms: N_2  and  C_28 
REMARK    3  A    between atoms: N_7  and  C_8 
REMARK    4  A    between atoms: C_11  and  C_12 
REMARK       I    between atoms: C_12  and  N_13 
REMARK    5  A    between atoms: N_13  and  C_14 
REMARK    6  A    between atoms: C_14  and  C_15 
REMARK    7  A    between atoms: C_15  and  N_16 
REMARK    8  A    between atoms: C_28  and  C_29 
ROOT
HETATM    1  C   UNL     1     -44.490  57.690 -52.869  1.00  0.00     0.030 A 
HETATM    2  C   UNL     1     -44.770  58.600 -53.900  1.00  0.00     0.030 A 
HETATM    3  C   UNL     1     -45.290  59.879 -53.637  1.00  0.00     0.019 A 
HETATM    4  C   UNL     1     -45.538  60.277 -52.322  1.00  0.00     0.032 A 
HETATM    5  C   UNL     1     -45.265  59.391 -51.280  1.00  0.00     0.019 A 
HETATM    6  C   UNL     1     -44.756  58.115 -51.556  1.00  0.00     0.030 A 
ENDROOT
BRANCH   1   7
HETATM    7  N   UNL     1     -43.903  56.437 -53.089  1.00  0.00    -0.381 N 
HETATM    8  C   UNL     1     -43.155  55.816 -51.998  1.00  0.00     0.125 C 
HETATM    9  C   UNL     1     -43.077  54.310 -52.234  1.00  0.00     0.053 C 
HETATM   10  C   UNL     1     -42.517  53.950 -53.620  1.00  0.00     0.191 C 
HETATM   11  C   UNL     1     -43.344  54.685 -54.689  1.00  0.00     0.053 C 
HETATM   12  C   UNL     1     -43.411  56.191 -54.448  1.00  0.00     0.125 C 
BRANCH  10  13
HETATM   13  N   UNL     1     -41.008  54.244 -53.728  1.00  0.00    -0.067 N 
HETATM   14  C   UNL     1     -40.692  55.581 -54.371  1.00  0.00     0.270 C 
HETATM   15  H   UNL     1     -40.610  54.284 -52.783  1.00  0.00     0.280 HD
BRANCH  13  16
HETATM   16  C   UNL     1     -40.237  53.146 -54.465  1.00  0.00     0.273 C 
BRANCH  16  17
HETATM   17  C   UNL     1     -39.989  51.948 -53.604  1.00  0.00    -0.026 A 
HETATM   18  C   UNL     1     -39.781  51.989 -52.237  1.00  0.00     0.058 A 
HETATM   19  S   UNL     1     -39.550  50.440 -51.551  1.00  0.00    -0.113 SA
HETATM   20  C   UNL     1     -39.684  49.686 -53.076  1.00  0.00     0.050 A 
HETATM   21  C   UNL     1     -39.911  50.595 -54.085  1.00  0.00     0.016 A 
ENDBRANCH  16  17
ENDBRANCH  13  16
ENDBRANCH  10  13
ENDBRANCH   1   7
BRANCH   4  22
HETATM   22  C   UNL     1     -45.994  61.653 -51.992  1.00  0.00     0.251 C 
HETATM   23  N   UNL     1     -47.341  61.835 -51.769  1.00  0.00    -0.355 N 
HETATM   24  H   UNL     1     -47.945  61.023 -51.826  1.00  0.00     0.162 HD
HETATM   25  O   UNL     1     -45.186  62.574 -51.910  1.00  0.00    -0.268 OA
BRANCH  23  26
HETATM   26  C   UNL     1     -48.003  63.139 -51.734  1.00  0.00     0.150 C 
BRANCH  26  27
HETATM   27  C   UNL     1     -48.750  63.578 -53.014  1.00  0.00     0.254 C 
BRANCH  27  28
HETATM   28  N   UNL     1     -50.219  63.235 -52.992  1.00  0.00    -0.066 N 
HETATM   29  H   UNL     1     -50.286  62.250 -53.327  1.00  0.00     0.280 HD
HETATM   30  C   UNL     1     -50.862  63.252 -51.615  1.00  0.00     0.261 C 
HETATM   31  C   UNL     1     -52.329  62.817 -51.727  1.00  0.00     0.195 C 
HETATM   32  O   UNL     1     -53.043  63.664 -52.633  1.00  0.00    -0.388 OA
HETATM   33  C   UNL     1     -52.492  63.601 -53.954  1.00  0.00     0.195 C 
HETATM   34  C   UNL     1     -51.034  64.073 -53.964  1.00  0.00     0.261 C 
ENDBRANCH  27  28
ENDBRANCH  26  27
ENDBRANCH  23  26
ENDBRANCH   4  22
TORSDOF 8
ENDMDL
MODEL 9
REMARK VINA RESULT:      -6.3      6.554     10.312
REMARK  8 active torsions:
REMARK  status: ('A' for Active; 'I' for Inactive)
REMARK    1  A    between atoms: N_2  and  C_4 
REMARK    2  A    between atoms: N_2  and  C_28 
REMARK    3  A    between atoms: N_7  and  C_8 
REMARK    4  A    between atoms: C_11  and  C_12 
REMARK       I    between atoms: C_12  and  N_13 
REMARK    5  A    between atoms: N_13  and  C_14 
REMARK    6  A    between atoms: C_14  and  C_15 
REMARK    7  A    between atoms: C_15  and  N_16 
REMARK    8  A    between atoms: C_28  and  C_29 
ROOT
HETATM    1  C   UNL     1     -44.678  57.822 -52.966  1.00  0.00     0.030 A 
HETATM    2  C   UNL     1     -44.900  58.853 -53.892  1.00  0.00     0.030 A 
HETATM    3  C   UNL     1     -45.487  60.073 -53.515  1.00  0.00     0.019 A 
HETATM    4  C   UNL     1     -45.860  60.289 -52.188  1.00  0.00     0.032 A 
HETATM    5  C   UNL     1     -45.646  59.282 -51.248  1.00  0.00     0.019 A 
HETATM    6  C   UNL     1     -45.070  58.065 -51.638  1.00  0.00     0.030 A 
ENDROOT
BRANCH   1   7
HETATM    7  N   UNL     1     -44.030  56.624 -53.291  1.00  0.00    -0.381 N 
HETATM    8  C   UNL     1     -43.614  55.739 -52.205  1.00  0.00     0.125 C 
HETATM    9  C   UNL     1     -43.445  54.322 -52.747  1.00  0.00     0.053 C 
HETATM   10  C   UNL     1     -42.505  54.254 -53.963  1.00  0.00     0.191 C 
HETATM   11  C   UNL     1     -43.005  55.249 -55.024  1.00  0.00     0.053 C 
HETATM   12  C   UNL     1     -43.165  56.664 -54.474  1.00  0.00     0.125 C 
BRANCH  10  13
HETATM   13  N   UNL     1     -41.034  54.492 -53.570  1.00  0.00    -0.067 N 
HETATM   14  C   UNL     1     -40.106  54.669 -54.757  1.00  0.00     0.270 C 
HETATM   15  H   UNL     1     -40.972  55.363 -53.030  1.00  0.00     0.280 HD
BRANCH  13  16
HETATM   16  C   UNL     1     -40.473  53.393 -52.664  1.00  0.00     0.273 C 
BRANCH  16  17
HETATM   17  C   UNL     1     -40.509  53.773 -51.217  1.00  0.00    -0.026 A 
HETATM   18  C   UNL     1     -40.455  52.877 -50.165  1.00  0.00     0.058 A 
HETATM   19  S   UNL     1     -40.493  53.639 -48.636  1.00  0.00    -0.113 SA
HETATM   20  C   UNL     1     -40.622  55.184 -49.350  1.00  0.00     0.050 A 
HETATM   21  C   UNL     1     -40.624  55.120 -50.726  1.00  0.00     0.016 A 
ENDBRANCH  16  17
ENDBRANCH  13  16
ENDBRANCH  10  13
ENDBRANCH   1   7
BRANCH   4  22
HETATM   22  C   UNL     1     -46.392  61.598 -51.726  1.00  0.00     0.251 C 
HETATM   23  N   UNL     1     -45.625  62.314 -50.835  1.00  0.00    -0.355 N 
HETATM   24  H   UNL     1     -44.733  61.919 -50.553  1.00  0.00     0.162 HD
HETATM   25  O   UNL     1     -47.468  62.017 -52.146  1.00  0.00    -0.268 OA
BRANCH  23  26
HETATM   26  C   UNL     1     -46.110  63.450 -50.053  1.00  0.00     0.150 C 
BRANCH  26  27
HETATM   27  C   UNL     1     -46.842  63.128 -48.731  1.00  0.00     0.254 C 
BRANCH  27  28
HETATM   28  N   UNL     1     -45.905  62.770 -47.604  1.00  0.00    -0.066 N 
HETATM   29  H   UNL     1     -44.959  63.080 -47.912  1.00  0.00     0.280 HD
HETATM   30  C   UNL     1     -46.173  63.491 -46.292  1.00  0.00     0.261 C 
HETATM   31  C   UNL     1     -45.110  63.092 -45.261  1.00  0.00     0.195 C 
HETATM   32  O   UNL     1     -45.094  61.674 -45.068  1.00  0.00    -0.388 OA
HETATM   33  C   UNL     1     -44.770  60.984 -46.281  1.00  0.00     0.195 C 
HETATM   34  C   UNL     1     -45.809  61.271 -47.370  1.00  0.00     0.261 C 
ENDBRANCH  27  28
ENDBRANCH  26  27
ENDBRANCH  23  26
ENDBRANCH   4  22
TORSDOF 8
ENDMDL
MODEL 10
REMARK VINA RESULT:      -6.2      1.639      2.088
REMARK  8 active torsions:
REMARK  status: ('A' for Active; 'I' for Inactive)
REMARK    1  A    between atoms: N_2  and  C_4 
REMARK    2  A    between atoms: N_2  and  C_28 
REMARK    3  A    between atoms: N_7  and  C_8 
REMARK    4  A    between atoms: C_11  and  C_12 
REMARK       I    between atoms: C_12  and  N_13 
REMARK    5  A    between atoms: N_13  and  C_14 
REMARK    6  A    between atoms: C_14  and  C_15 
REMARK    7  A    between atoms: C_15  and  N_16 
REMARK    8  A    between atoms: C_28  and  C_29 
ROOT
HETATM    1  C   UNL     1     -43.313  57.713 -56.075  1.00  0.00     0.030 A 
HETATM    2  C   UNL     1     -42.127  57.941 -55.359  1.00  0.00     0.030 A 
HETATM    3  C   UNL     1     -42.040  57.705 -53.977  1.00  0.00     0.019 A 
HETATM    4  C   UNL     1     -43.149  57.227 -53.277  1.00  0.00     0.032 A 
HETATM    5  C   UNL     1     -44.338  56.990 -53.966  1.00  0.00     0.019 A 
HETATM    6  C   UNL     1     -44.415  57.239 -55.343  1.00  0.00     0.030 A 
ENDROOT
BRANCH   1   7
HETATM    7  N   UNL     1     -43.414  57.868 -57.463  1.00  0.00    -0.381 N 
HETATM    8  C   UNL     1     -42.193  58.103 -58.229  1.00  0.00     0.125 C 
HETATM    9  C   UNL     1     -42.428  57.709 -59.685  1.00  0.00     0.053 C 
HETATM   10  C   UNL     1     -43.658  58.397 -60.300  1.00  0.00     0.191 C 
HETATM   11  C   UNL     1     -44.874  58.124 -59.398  1.00  0.00     0.053 C 
HETATM   12  C   UNL     1     -44.631  58.527 -57.946  1.00  0.00     0.125 C 
BRANCH  10  13
HETATM   13  N   UNL     1     -43.420  59.901 -60.539  1.00  0.00    -0.067 N 
HETATM   14  C   UNL     1     -44.520  60.573 -61.339  1.00  0.00     0.270 C 
HETATM   15  H   UNL     1     -43.396  60.381 -59.632  1.00  0.00     0.280 HD
BRANCH  13  16
HETATM   16  C   UNL     1     -42.075  60.193 -61.207  1.00  0.00     0.273 C 
BRANCH  16  17
HETATM   17  C   UNL     1     -41.377  61.366 -60.595  1.00  0.00    -0.026 A 
HETATM   18  C   UNL     1     -40.829  62.418 -61.308  1.00  0.00     0.058 A 
HETATM   19  S   UNL     1     -40.125  63.609 -60.305  1.00  0.00    -0.113 SA
HETATM   20  C   UNL     1     -40.503  62.723 -58.896  1.00  0.00     0.050 A 
HETATM   21  C   UNL     1     -41.163  61.549 -59.185  1.00  0.00     0.016 A 
ENDBRANCH  16  17
ENDBRANCH  13  16
ENDBRANCH  10  13
ENDBRANCH   1   7
BRANCH   4  22
HETATM   22  C   UNL     1     -43.073  56.871 -51.835  1.00  0.00     0.251 C 
HETATM   23  N   UNL     1     -41.825  56.618 -51.312  1.00  0.00    -0.355 N 
HETATM   24  H   UNL     1     -41.026  56.702 -51.930  1.00  0.00     0.162 HD
HETATM   25  O   UNL     1     -44.092  56.826 -51.150  1.00  0.00    -0.268 OA
BRANCH  23  26
HETATM   26  C   UNL     1     -41.587  55.971 -50.023  1.00  0.00     0.150 C 
BRANCH  26  27
HETATM   27  C   UNL     1     -41.738  54.433 -49.973  1.00  0.00     0.254 C 
BRANCH  27  28
HETATM   28  N   UNL     1     -40.860  53.717 -50.970  1.00  0.00    -0.066 N 
HETATM   29  H   UNL     1     -40.018  54.320 -51.091  1.00  0.00     0.280 HD
HETATM   30  C   UNL     1     -40.341  52.363 -50.512  1.00  0.00     0.261 C 
HETATM   31  C   UNL     1     -39.409  51.782 -51.583  1.00  0.00     0.195 C 
HETATM   32  O   UNL     1     -40.085  51.670 -52.840  1.00  0.00    -0.388 OA
HETATM   33  C   UNL     1     -40.515  52.949 -53.319  1.00  0.00     0.195 C 
HETATM   34  C   UNL     1     -41.502  53.597 -52.343  1.00  0.00     0.261 C 
ENDBRANCH  27  28
ENDBRANCH  26  27
ENDBRANCH  23  26
ENDBRANCH   4  22
TORSDOF 8
ENDMDL
