MODEL 1
REMARK VINA RESULT:      -9.4      0.000      0.000
REMARK  6 active torsions:
REMARK  status: ('A' for Active; 'I' for Inactive)
REMARK    1  A    between atoms: C_2  and  O_3 
REMARK    2  A    between atoms: C_2  and  C_10 
REMARK    3  A    between atoms: O_3  and  C_4 
REMARK       I    between atoms: C_10  and  N_11 
REMARK    4  A    between atoms: N_11  and  C_12 
REMARK    5  A    between atoms: N_13  and  C_14 
REMARK    6  A    between atoms: C_26  and  C_27 
ROOT
HETATM    1  C   UNL     1     -42.100  55.527 -54.935  1.00  0.00     0.152 A 
HETATM    2  N   UNL     1     -42.576  56.831 -54.942  1.00  0.00    -0.044 N 
HETATM    3  N   UNL     1     -43.144  57.175 -56.134  1.00  0.00    -0.150 NA
HETATM    4  C   UNL     1     -43.007  56.079 -56.892  1.00  0.00     0.099 A 
HETATM    5  C   UNL     1     -42.364  55.033 -56.193  1.00  0.00     0.086 A 
ENDROOT
BRANCH   1   6
HETATM    6  N   UNL     1     -41.488  54.967 -53.820  1.00  0.00    -0.309 N 
HETATM    7  C   UNL     1     -42.198  54.435 -52.751  1.00  0.00     0.252 C 
HETATM    8  O   UNL     1     -43.426  54.401 -52.690  1.00  0.00    -0.270 OA
HETATM    9  H   UNL     1     -40.477  54.849 -53.873  1.00  0.00     0.170 HD
BRANCH   7  10
HETATM   10  C   UNL     1     -41.293  53.908 -51.600  1.00  0.00     0.217 C 
HETATM   11  C   UNL     1     -40.969  55.010 -50.591  1.00  0.00     0.050 C 
BRANCH  10  12
HETATM   12  O   UNL     1     -40.020  53.444 -52.063  1.00  0.00    -0.337 OA
BRANCH  12  13
HETATM   13  C   UNL     1     -39.909  52.094 -52.242  1.00  0.00     0.070 A 
HETATM   14  C   UNL     1     -39.881  51.647 -53.563  1.00  0.00     0.037 A 
HETATM   15  C   UNL     1     -39.713  50.292 -53.843  1.00  0.00     0.003 A 
HETATM   16  C   UNL     1     -39.552  49.382 -52.799  1.00  0.00     0.000 A 
HETATM   17  C   UNL     1     -39.554  49.832 -51.478  1.00  0.00     0.003 A 
HETATM   18  C   UNL     1     -39.722  51.189 -51.197  1.00  0.00     0.037 A 
ENDBRANCH  12  13
ENDBRANCH  10  12
ENDBRANCH   7  10
ENDBRANCH   1   6
BRANCH   2  19
HETATM   19  C   UNL     1     -42.487  57.790 -53.913  1.00  0.00     0.732 A 
HETATM   20  N   UNL     1     -43.521  58.260 -53.286  1.00  0.00    -0.067 NA
HETATM   21  C   UNL     1     -43.257  59.162 -52.277  1.00  0.00     0.065 A 
HETATM   22  C   UNL     1     -42.021  59.564 -51.924  1.00  0.00     0.036 A 
HETATM   23  C   UNL     1     -44.476  59.669 -51.539  1.00  0.00     0.060 C 
HETATM   24  C   UNL     1     -41.724  60.541 -50.823  1.00  0.00     0.046 C 
HETATM   25  C   UNL     1     -40.865  59.007 -52.669  1.00  0.00     0.268 A 
HETATM   26  C   UNL     1     -42.968  61.283 -50.331  1.00  0.00     0.005 C 
HETATM   27  C   UNL     1     -44.154  60.335 -50.199  1.00  0.00     0.006 C 
HETATM   28  O   UNL     1     -39.707  59.304 -52.404  1.00  0.00    -0.267 OA
HETATM   29  N   UNL     1     -41.191  58.134 -53.657  1.00  0.00    -0.152 N 
HETATM   30  H   UNL     1     -40.447  57.700 -54.197  1.00  0.00     0.188 HD
ENDBRANCH   2  19
BRANCH   4  31
HETATM   31  C   UNL     1     -43.498  56.032 -58.310  1.00  0.00     0.035 A 
HETATM   32  S   UNL     1     -43.588  57.387 -59.348  1.00  0.00    -0.100 SA
HETATM   33  C   UNL     1     -44.211  56.446 -60.633  1.00  0.00     0.050 A 
HETATM   34  C   UNL     1     -44.351  55.122 -60.281  1.00  0.00     0.008 A 
HETATM   35  C   UNL     1     -43.936  54.882 -58.937  1.00  0.00     0.022 A 
ENDBRANCH   4  31
TORSDOF 6
ENDMDL
MODEL 2
REMARK VINA RESULT:      -9.1      2.731      6.851
REMARK  6 active torsions:
REMARK  status: ('A' for Active; 'I' for Inactive)
REMARK    1  A    between atoms: C_2  and  O_3 
REMARK    2  A    between atoms: C_2  and  C_10 
REMARK    3  A    between atoms: O_3  and  C_4 
REMARK       I    between atoms: C_10  and  N_11 
REMARK    4  A    between atoms: N_11  and  C_12 
REMARK    5  A    between atoms: N_13  and  C_14 
REMARK    6  A    between atoms: C_26  and  C_27 
ROOT
HETATM    1  C   UNL     1     -41.260  55.193 -54.930  1.00  0.00     0.152 A 
HETATM    2  N   UNL     1     -41.510  55.390 -53.579  1.00  0.00    -0.044 N 
HETATM    3  N   UNL     1     -41.161  54.312 -52.819  1.00  0.00    -0.150 NA
HETATM    4  C   UNL     1     -40.702  53.419 -53.706  1.00  0.00     0.099 A 
HETATM    5  C   UNL     1     -40.746  53.919 -55.027  1.00  0.00     0.086 A 
ENDROOT
BRANCH   1   6
HETATM    6  N   UNL     1     -41.535  56.165 -55.885  1.00  0.00    -0.309 N 
HETATM    7  C   UNL     1     -42.805  56.380 -56.406  1.00  0.00     0.252 C 
HETATM    8  O   UNL     1     -43.802  55.745 -56.071  1.00  0.00    -0.270 OA
HETATM    9  H   UNL     1     -40.775  56.808 -56.104  1.00  0.00     0.170 HD
BRANCH   7  10
HETATM   10  C   UNL     1     -42.853  57.491 -57.494  1.00  0.00     0.217 C 
HETATM   11  C   UNL     1     -42.165  58.772 -57.019  1.00  0.00     0.050 C 
BRANCH  10  12
HETATM   12  O   UNL     1     -44.188  57.889 -57.823  1.00  0.00    -0.337 OA
BRANCH  12  13
HETATM   13  C   UNL     1     -44.799  57.165 -58.808  1.00  0.00     0.070 A 
HETATM   14  C   UNL     1     -46.176  57.342 -58.938  1.00  0.00     0.037 A 
HETATM   15  C   UNL     1     -46.875  56.687 -59.952  1.00  0.00     0.003 A 
HETATM   16  C   UNL     1     -46.192  55.869 -60.850  1.00  0.00     0.000 A 
HETATM   17  C   UNL     1     -44.809  55.714 -60.737  1.00  0.00     0.003 A 
HETATM   18  C   UNL     1     -44.109  56.369 -59.721  1.00  0.00     0.037 A 
ENDBRANCH  12  13
ENDBRANCH  10  12
ENDBRANCH   7  10
ENDBRANCH   1   6
BRANCH   2  19
HETATM   19  C   UNL     1     -42.102  56.511 -52.964  1.00  0.00     0.732 A 
HETATM   20  N   UNL     1     -41.739  57.732 -53.209  1.00  0.00    -0.067 NA
HETATM   21  C   UNL     1     -42.448  58.716 -52.551  1.00  0.00     0.065 A 
HETATM   22  C   UNL     1     -43.463  58.478 -51.698  1.00  0.00     0.036 A 
HETATM   23  C   UNL     1     -42.030  60.132 -52.880  1.00  0.00     0.060 C 
HETATM   24  C   UNL     1     -44.244  59.543 -50.984  1.00  0.00     0.046 C 
HETATM   25  C   UNL     1     -43.844  57.067 -51.442  1.00  0.00     0.268 A 
HETATM   26  C   UNL     1     -43.589  60.923 -51.069  1.00  0.00     0.005 C 
HETATM   27  C   UNL     1     -43.057  61.191 -52.472  1.00  0.00     0.006 C 
HETATM   28  O   UNL     1     -44.764  56.760 -50.694  1.00  0.00    -0.267 OA
HETATM   29  N   UNL     1     -43.101  56.145 -52.108  1.00  0.00    -0.152 N 
HETATM   30  H   UNL     1     -43.319  55.160 -51.993  1.00  0.00     0.188 HD
ENDBRANCH   2  19
BRANCH   4  31
HETATM   31  C   UNL     1     -40.215  52.063 -53.283  1.00  0.00     0.035 A 
HETATM   32  S   UNL     1     -39.709  51.669 -51.699  1.00  0.00    -0.100 SA
HETATM   33  C   UNL     1     -39.359  50.053 -52.141  1.00  0.00     0.050 A 
HETATM   34  C   UNL     1     -39.621  49.816 -53.472  1.00  0.00     0.008 A 
HETATM   35  C   UNL     1     -40.118  50.979 -54.132  1.00  0.00     0.022 A 
ENDBRANCH   4  31
TORSDOF 6
ENDMDL
MODEL 3
REMARK VINA RESULT:      -9.0      2.660      6.247
REMARK  6 active torsions:
REMARK  status: ('A' for Active; 'I' for Inactive)
REMARK    1  A    between atoms: C_2  and  O_3 
REMARK    2  A    between atoms: C_2  and  C_10 
REMARK    3  A    between atoms: O_3  and  C_4 
REMARK       I    between atoms: C_10  and  N_11 
REMARK    4  A    between atoms: N_11  and  C_12 
REMARK    5  A    between atoms: N_13  and  C_14 
REMARK    6  A    between atoms: C_26  and  C_27 
ROOT
HETATM    1  C   UNL     1     -42.406  58.619 -52.967  1.00  0.00     0.152 A 
HETATM    2  N   UNL     1     -42.458  59.346 -54.148  1.00  0.00    -0.044 N 
HETATM    3  N   UNL     1     -42.648  60.681 -53.935  1.00  0.00    -0.150 NA
HETATM    4  C   UNL     1     -42.734  60.791 -52.602  1.00  0.00     0.099 A 
HETATM    5  C   UNL     1     -42.593  59.540 -51.961  1.00  0.00     0.086 A 
ENDROOT
BRANCH   1   6
HETATM    6  N   UNL     1     -42.214  57.242 -52.951  1.00  0.00    -0.309 N 
HETATM    7  C   UNL     1     -43.123  56.355 -52.388  1.00  0.00     0.252 C 
HETATM    8  O   UNL     1     -44.181  56.696 -51.862  1.00  0.00    -0.270 OA
HETATM    9  H   UNL     1     -41.421  56.892 -53.487  1.00  0.00     0.170 HD
BRANCH   7  10
HETATM   10  C   UNL     1     -42.666  54.870 -52.451  1.00  0.00     0.217 C 
HETATM   11  C   UNL     1     -43.379  54.017 -51.401  1.00  0.00     0.050 C 
BRANCH  10  12
HETATM   12  O   UNL     1     -41.271  54.705 -52.176  1.00  0.00    -0.337 OA
BRANCH  12  13
HETATM   13  C   UNL     1     -40.729  53.505 -52.542  1.00  0.00     0.070 A 
HETATM   14  C   UNL     1     -40.889  53.139 -53.878  1.00  0.00     0.037 A 
HETATM   15  C   UNL     1     -40.322  51.959 -54.356  1.00  0.00     0.003 A 
HETATM   16  C   UNL     1     -39.575  51.151 -53.499  1.00  0.00     0.000 A 
HETATM   17  C   UNL     1     -39.393  51.530 -52.168  1.00  0.00     0.003 A 
HETATM   18  C   UNL     1     -39.961  52.713 -51.690  1.00  0.00     0.037 A 
ENDBRANCH  12  13
ENDBRANCH  10  12
ENDBRANCH   7  10
ENDBRANCH   1   6
BRANCH   2  19
HETATM   19  C   UNL     1     -42.388  58.857 -55.468  1.00  0.00     0.732 A 
HETATM   20  N   UNL     1     -42.704  57.642 -55.796  1.00  0.00    -0.067 NA
HETATM   21  C   UNL     1     -42.618  57.337 -57.138  1.00  0.00     0.065 A 
HETATM   22  C   UNL     1     -42.234  58.209 -58.091  1.00  0.00     0.036 A 
HETATM   23  C   UNL     1     -43.025  55.926 -57.499  1.00  0.00     0.060 C 
HETATM   24  C   UNL     1     -42.144  57.886 -59.554  1.00  0.00     0.046 C 
HETATM   25  C   UNL     1     -41.876  59.586 -57.674  1.00  0.00     0.268 A 
HETATM   26  C   UNL     1     -42.230  56.386 -59.842  1.00  0.00     0.005 C 
HETATM   27  C   UNL     1     -43.307  55.726 -58.990  1.00  0.00     0.006 C 
HETATM   28  O   UNL     1     -41.533  60.447 -58.475  1.00  0.00    -0.267 OA
HETATM   29  N   UNL     1     -41.969  59.822 -56.340  1.00  0.00    -0.152 N 
HETATM   30  H   UNL     1     -41.756  60.750 -55.986  1.00  0.00     0.188 HD
ENDBRANCH   2  19
BRANCH   4  31
HETATM   31  C   UNL     1     -42.958  62.115 -51.932  1.00  0.00     0.035 A 
HETATM   32  S   UNL     1     -43.296  63.573 -52.759  1.00  0.00    -0.100 SA
HETATM   33  C   UNL     1     -43.382  64.459 -51.298  1.00  0.00     0.050 A 
HETATM   34  C   UNL     1     -43.155  63.662 -50.198  1.00  0.00     0.008 A 
HETATM   35  C   UNL     1     -42.912  62.305 -50.565  1.00  0.00     0.022 A 
ENDBRANCH   4  31
TORSDOF 6
ENDMDL
MODEL 4
REMARK VINA RESULT:      -9.0      1.844      6.911
REMARK  6 active torsions:
REMARK  status: ('A' for Active; 'I' for Inactive)
REMARK    1  A    between atoms: C_2  and  O_3 
REMARK    2  A    between atoms: C_2  and  C_10 
REMARK    3  A    between atoms: O_3  and  C_4 
REMARK       I    between atoms: C_10  and  N_11 
REMARK    4  A    between atoms: N_11  and  C_12 
REMARK    5  A    between atoms: N_13  and  C_14 
REMARK    6  A    between atoms: C_26  and  C_27 
ROOT
HETATM    1  C   UNL     1     -42.740  57.885 -54.443  1.00  0.00     0.152 A 
HETATM    2  N   UNL     1     -42.233  56.594 -54.484  1.00  0.00    -0.044 N 
HETATM    3  N   UNL     1     -42.343  56.026 -55.720  1.00  0.00    -0.150 NA
HETATM    4  C   UNL     1     -42.943  56.968 -56.462  1.00  0.00     0.099 A 
HETATM    5  C   UNL     1     -43.209  58.136 -55.713  1.00  0.00     0.086 A 
ENDROOT
BRANCH   1   6
HETATM    6  N   UNL     1     -42.724  58.652 -53.284  1.00  0.00    -0.309 N 
HETATM    7  C   UNL     1     -41.682  59.508 -52.953  1.00  0.00     0.252 C 
HETATM    8  O   UNL     1     -40.683  59.677 -53.651  1.00  0.00    -0.270 OA
HETATM    9  H   UNL     1     -43.583  58.653 -52.733  1.00  0.00     0.170 HD
BRANCH   7  10
HETATM   10  C   UNL     1     -41.871  60.223 -51.585  1.00  0.00     0.217 C 
HETATM   11  C   UNL     1     -41.251  59.420 -50.441  1.00  0.00     0.050 C 
BRANCH  10  12
HETATM   12  O   UNL     1     -43.248  60.378 -51.224  1.00  0.00    -0.337 OA
BRANCH  12  13
HETATM   13  C   UNL     1     -43.528  61.405 -50.368  1.00  0.00     0.070 A 
HETATM   14  C   UNL     1     -42.999  62.651 -50.708  1.00  0.00     0.037 A 
HETATM   15  C   UNL     1     -43.278  63.770 -49.925  1.00  0.00     0.003 A 
HETATM   16  C   UNL     1     -44.105  63.647 -48.809  1.00  0.00     0.000 A 
HETATM   17  C   UNL     1     -44.656  62.407 -48.484  1.00  0.00     0.003 A 
HETATM   18  C   UNL     1     -44.376  61.286 -49.269  1.00  0.00     0.037 A 
ENDBRANCH  12  13
ENDBRANCH  10  12
ENDBRANCH   7  10
ENDBRANCH   1   6
BRANCH   2  19
HETATM   19  C   UNL     1     -41.696  55.842 -53.420  1.00  0.00     0.732 A 
HETATM   20  N   UNL     1     -41.739  56.227 -52.182  1.00  0.00    -0.067 NA
HETATM   21  C   UNL     1     -41.203  55.354 -51.259  1.00  0.00     0.065 A 
HETATM   22  C   UNL     1     -40.656  54.163 -51.571  1.00  0.00     0.036 A 
HETATM   23  C   UNL     1     -41.296  55.810 -49.820  1.00  0.00     0.060 C 
HETATM   24  C   UNL     1     -40.076  53.204 -50.571  1.00  0.00     0.046 C 
HETATM   25  C   UNL     1     -40.622  53.761 -52.998  1.00  0.00     0.268 A 
HETATM   26  C   UNL     1     -39.878  53.828 -49.189  1.00  0.00     0.005 C 
HETATM   27  C   UNL     1     -41.074  54.690 -48.801  1.00  0.00     0.006 C 
HETATM   28  O   UNL     1     -40.159  52.690 -53.369  1.00  0.00    -0.267 OA
HETATM   29  N   UNL     1     -41.153  54.668 -53.859  1.00  0.00    -0.152 N 
HETATM   30  H   UNL     1     -41.179  54.450 -54.851  1.00  0.00     0.188 HD
ENDBRANCH   2  19
BRANCH   4  31
HETATM   31  C   UNL     1     -43.267  56.745 -57.910  1.00  0.00     0.035 A 
HETATM   32  S   UNL     1     -43.538  57.995 -59.044  1.00  0.00    -0.100 SA
HETATM   33  C   UNL     1     -43.813  56.878 -60.310  1.00  0.00     0.050 A 
HETATM   34  C   UNL     1     -43.703  55.575 -59.880  1.00  0.00     0.008 A 
HETATM   35  C   UNL     1     -43.384  55.498 -58.492  1.00  0.00     0.022 A 
ENDBRANCH   4  31
TORSDOF 6
ENDMDL
MODEL 5
REMARK VINA RESULT:      -8.9      2.898      6.753
REMARK  6 active torsions:
REMARK  status: ('A' for Active; 'I' for Inactive)
REMARK    1  A    between atoms: C_2  and  O_3 
REMARK    2  A    between atoms: C_2  and  C_10 
REMARK    3  A    between atoms: O_3  and  C_4 
REMARK       I    between atoms: C_10  and  N_11 
REMARK    4  A    between atoms: N_11  and  C_12 
REMARK    5  A    between atoms: N_13  and  C_14 
REMARK    6  A    between atoms: C_26  and  C_27 
ROOT
HETATM    1  C   UNL     1     -41.351  55.146 -55.227  1.00  0.00     0.152 A 
HETATM    2  N   UNL     1     -41.381  55.626 -53.926  1.00  0.00    -0.044 N 
HETATM    3  N   UNL     1     -40.970  54.697 -53.014  1.00  0.00    -0.150 NA
HETATM    4  C   UNL     1     -40.694  53.613 -53.752  1.00  0.00     0.099 A 
HETATM    5  C   UNL     1     -40.917  53.843 -55.129  1.00  0.00     0.086 A 
ENDROOT
BRANCH   1   6
HETATM    6  N   UNL     1     -41.724  55.927 -56.315  1.00  0.00    -0.309 N 
HETATM    7  C   UNL     1     -42.817  55.635 -57.121  1.00  0.00     0.252 C 
HETATM    8  O   UNL     1     -43.560  54.671 -56.948  1.00  0.00    -0.270 OA
HETATM    9  H   UNL     1     -41.225  56.809 -56.428  1.00  0.00     0.170 HD
BRANCH   7  10
HETATM   10  C   UNL     1     -43.006  56.630 -58.302  1.00  0.00     0.217 C 
HETATM   11  C   UNL     1     -42.505  56.038 -59.620  1.00  0.00     0.050 C 
BRANCH  10  12
HETATM   12  O   UNL     1     -42.260  57.840 -58.133  1.00  0.00    -0.337 OA
BRANCH  12  13
HETATM   13  C   UNL     1     -42.889  58.835 -57.440  1.00  0.00     0.070 A 
HETATM   14  C   UNL     1     -42.077  59.637 -56.638  1.00  0.00     0.037 A 
HETATM   15  C   UNL     1     -42.622  60.712 -55.938  1.00  0.00     0.003 A 
HETATM   16  C   UNL     1     -43.982  60.999 -56.055  1.00  0.00     0.000 A 
HETATM   17  C   UNL     1     -44.790  60.214 -56.879  1.00  0.00     0.003 A 
HETATM   18  C   UNL     1     -44.243  59.137 -57.580  1.00  0.00     0.037 A 
ENDBRANCH  12  13
ENDBRANCH  10  12
ENDBRANCH   7  10
ENDBRANCH   1   6
BRANCH   2  19
HETATM   19  C   UNL     1     -41.819  56.889 -53.479  1.00  0.00     0.732 A 
HETATM   20  N   UNL     1     -43.050  57.290 -53.571  1.00  0.00    -0.067 NA
HETATM   21  C   UNL     1     -43.319  58.538 -53.050  1.00  0.00     0.065 A 
HETATM   22  C   UNL     1     -42.398  59.332 -52.471  1.00  0.00     0.036 A 
HETATM   23  C   UNL     1     -44.766  58.968 -53.138  1.00  0.00     0.060 C 
HETATM   24  C   UNL     1     -42.684  60.689 -51.895  1.00  0.00     0.046 C 
HETATM   25  C   UNL     1     -41.001  58.839 -52.389  1.00  0.00     0.268 A 
HETATM   26  C   UNL     1     -44.057  61.231 -52.296  1.00  0.00     0.005 C 
HETATM   27  C   UNL     1     -45.119  60.141 -52.221  1.00  0.00     0.006 C 
HETATM   28  O   UNL     1     -40.105  59.487 -51.865  1.00  0.00    -0.267 OA
HETATM   29  N   UNL     1     -40.797  57.610 -52.931  1.00  0.00    -0.152 N 
HETATM   30  H   UNL     1     -39.867  57.203 -52.894  1.00  0.00     0.188 HD
ENDBRANCH   2  19
BRANCH   4  31
HETATM   31  C   UNL     1     -40.210  52.335 -53.130  1.00  0.00     0.035 A 
HETATM   32  S   UNL     1     -39.826  52.151 -51.475  1.00  0.00    -0.100 SA
HETATM   33  C   UNL     1     -39.403  50.507 -51.688  1.00  0.00     0.050 A 
HETATM   34  C   UNL     1     -39.549  50.103 -52.996  1.00  0.00     0.008 A 
HETATM   35  C   UNL     1     -40.019  51.160 -53.830  1.00  0.00     0.022 A 
ENDBRANCH   4  31
TORSDOF 6
ENDMDL
MODEL 6
REMARK VINA RESULT:      -8.8      3.199      7.964
REMARK  6 active torsions:
REMARK  status: ('A' for Active; 'I' for Inactive)
REMARK    1  A    between atoms: C_2  and  O_3 
REMARK    2  A    between atoms: C_2  and  C_10 
REMARK    3  A    between atoms: O_3  and  C_4 
REMARK       I    between atoms: C_10  and  N_11 
REMARK    4  A    between atoms: N_11  and  C_12 
REMARK    5  A    between atoms: N_13  and  C_14 
REMARK    6  A    between atoms: C_26  and  C_27 
ROOT
HETATM    1  C   UNL     1     -42.346  56.217 -53.982  1.00  0.00     0.152 A 
HETATM    2  N   UNL     1     -42.171  55.660 -55.242  1.00  0.00    -0.044 N 
HETATM    3  N   UNL     1     -41.543  54.449 -55.197  1.00  0.00    -0.150 NA
HETATM    4  C   UNL     1     -41.304  54.251 -53.893  1.00  0.00     0.099 A 
HETATM    5  C   UNL     1     -41.782  55.320 -53.103  1.00  0.00     0.086 A 
ENDROOT
BRANCH   1   6
HETATM    6  N   UNL     1     -42.969  57.445 -53.794  1.00  0.00    -0.309 N 
HETATM    7  C   UNL     1     -42.275  58.647 -53.735  1.00  0.00     0.252 C 
HETATM    8  O   UNL     1     -41.055  58.743 -53.851  1.00  0.00    -0.270 OA
HETATM    9  H   UNL     1     -43.988  57.442 -53.823  1.00  0.00     0.170 HD
BRANCH   7  10
HETATM   10  C   UNL     1     -43.186  59.881 -53.472  1.00  0.00     0.217 C 
HETATM   11  C   UNL     1     -43.256  60.219 -51.982  1.00  0.00     0.050 C 
BRANCH  10  12
HETATM   12  O   UNL     1     -44.545  59.663 -53.867  1.00  0.00    -0.337 OA
BRANCH  12  13
HETATM   13  C   UNL     1     -44.823  59.883 -55.186  1.00  0.00     0.070 A 
HETATM   14  C   UNL     1     -45.481  58.851 -55.857  1.00  0.00     0.037 A 
HETATM   15  C   UNL     1     -45.856  59.008 -57.190  1.00  0.00     0.003 A 
HETATM   16  C   UNL     1     -45.591  60.207 -57.850  1.00  0.00     0.000 A 
HETATM   17  C   UNL     1     -44.957  61.249 -57.171  1.00  0.00     0.003 A 
HETATM   18  C   UNL     1     -44.581  61.092 -55.835  1.00  0.00     0.037 A 
ENDBRANCH  12  13
ENDBRANCH  10  12
ENDBRANCH   7  10
ENDBRANCH   1   6
BRANCH   2  19
HETATM   19  C   UNL     1     -42.515  56.218 -56.489  1.00  0.00     0.732 A 
HETATM   20  N   UNL     1     -42.189  57.422 -56.846  1.00  0.00    -0.067 NA
HETATM   21  C   UNL     1     -42.568  57.799 -58.116  1.00  0.00     0.065 A 
HETATM   22  C   UNL     1     -43.238  57.006 -58.975  1.00  0.00     0.036 A 
HETATM   23  C   UNL     1     -42.146  59.195 -58.521  1.00  0.00     0.060 C 
HETATM   24  C   UNL     1     -43.649  57.407 -60.362  1.00  0.00     0.046 C 
HETATM   25  C   UNL     1     -43.596  55.638 -58.527  1.00  0.00     0.268 A 
HETATM   26  C   UNL     1     -43.513  58.910 -60.615  1.00  0.00     0.005 C 
HETATM   27  C   UNL     1     -42.214  59.448 -60.028  1.00  0.00     0.006 C 
HETATM   28  O   UNL     1     -44.189  54.845 -59.248  1.00  0.00    -0.267 OA
HETATM   29  N   UNL     1     -43.206  55.330 -57.263  1.00  0.00    -0.152 N 
HETATM   30  H   UNL     1     -43.404  54.403 -56.898  1.00  0.00     0.188 HD
ENDBRANCH   2  19
BRANCH   4  31
HETATM   31  C   UNL     1     -40.606  53.018 -53.396  1.00  0.00     0.035 A 
HETATM   32  S   UNL     1     -40.139  52.760 -51.772  1.00  0.00    -0.100 SA
HETATM   33  C   UNL     1     -39.474  51.226 -52.138  1.00  0.00     0.050 A 
HETATM   34  C   UNL     1     -39.603  50.914 -53.473  1.00  0.00     0.008 A 
HETATM   35  C   UNL     1     -40.261  51.950 -54.201  1.00  0.00     0.022 A 
ENDBRANCH   4  31
TORSDOF 6
ENDMDL
MODEL 7
REMARK VINA RESULT:      -8.7      1.827      3.292
REMARK  6 active torsions:
REMARK  status: ('A' for Active; 'I' for Inactive)
REMARK    1  A    between atoms: C_2  and  O_3 
REMARK    2  A    between atoms: C_2  and  C_10 
REMARK    3  A    between atoms: O_3  and  C_4 
REMARK       I    between atoms: C_10  and  N_11 
REMARK    4  A    between atoms: N_11  and  C_12 
REMARK    5  A    between atoms: N_13  and  C_14 
REMARK    6  A    between atoms: C_26  and  C_27 
ROOT
HETATM    1  C   UNL     1     -42.484  55.786 -55.435  1.00  0.00     0.152 A 
HETATM    2  N   UNL     1     -42.607  57.119 -55.069  1.00  0.00    -0.044 N 
HETATM    3  N   UNL     1     -43.044  57.906 -56.096  1.00  0.00    -0.150 NA
HETATM    4  C   UNL     1     -43.179  57.058 -57.125  1.00  0.00     0.099 A 
HETATM    5  C   UNL     1     -42.841  55.735 -56.764  1.00  0.00     0.086 A 
ENDROOT
BRANCH   1   6
HETATM    6  N   UNL     1     -42.060  54.808 -54.543  1.00  0.00    -0.309 N 
HETATM    7  C   UNL     1     -40.732  54.419 -54.416  1.00  0.00     0.252 C 
HETATM    8  O   UNL     1     -39.809  54.903 -55.069  1.00  0.00    -0.270 OA
HETATM    9  H   UNL     1     -42.759  54.466 -53.884  1.00  0.00     0.170 HD
BRANCH   7  10
HETATM   10  C   UNL     1     -40.512  53.276 -53.385  1.00  0.00     0.217 C 
HETATM   11  C   UNL     1     -40.423  51.911 -54.069  1.00  0.00     0.050 C 
BRANCH  10  12
HETATM   12  O   UNL     1     -41.592  53.152 -52.453  1.00  0.00    -0.337 OA
BRANCH  12  13
HETATM   13  C   UNL     1     -41.404  53.757 -51.242  1.00  0.00     0.070 A 
HETATM   14  C   UNL     1     -40.666  53.037 -50.302  1.00  0.00     0.037 A 
HETATM   15  C   UNL     1     -40.376  53.597 -49.059  1.00  0.00     0.003 A 
HETATM   16  C   UNL     1     -40.809  54.889 -48.761  1.00  0.00     0.000 A 
HETATM   17  C   UNL     1     -41.525  55.619 -49.711  1.00  0.00     0.003 A 
HETATM   18  C   UNL     1     -41.815  55.058 -50.956  1.00  0.00     0.037 A 
ENDBRANCH  12  13
ENDBRANCH  10  12
ENDBRANCH   7  10
ENDBRANCH   1   6
BRANCH   2  19
HETATM   19  C   UNL     1     -42.295  57.708 -53.828  1.00  0.00     0.732 A 
HETATM   20  N   UNL     1     -41.082  57.842 -53.388  1.00  0.00    -0.067 NA
HETATM   21  C   UNL     1     -40.947  58.476 -52.171  1.00  0.00     0.065 A 
HETATM   22  C   UNL     1     -41.978  58.947 -51.443  1.00  0.00     0.036 A 
HETATM   23  C   UNL     1     -39.521  58.652 -51.697  1.00  0.00     0.060 C 
HETATM   24  C   UNL     1     -41.840  59.644 -50.121  1.00  0.00     0.046 C 
HETATM   25  C   UNL     1     -43.350  58.769 -51.978  1.00  0.00     0.268 A 
HETATM   26  C   UNL     1     -40.442  59.506 -49.515  1.00  0.00     0.005 C 
HETATM   27  C   UNL     1     -39.365  59.685 -50.578  1.00  0.00     0.006 C 
HETATM   28  O   UNL     1     -44.343  59.180 -51.391  1.00  0.00    -0.267 OA
HETATM   29  N   UNL     1     -43.418  58.127 -53.173  1.00  0.00    -0.152 N 
HETATM   30  H   UNL     1     -44.326  57.986 -53.607  1.00  0.00     0.188 HD
ENDBRANCH   2  19
BRANCH   4  31
HETATM   31  C   UNL     1     -43.637  57.523 -58.476  1.00  0.00     0.035 A 
HETATM   32  S   UNL     1     -45.262  57.497 -59.008  1.00  0.00    -0.100 SA
HETATM   33  C   UNL     1     -44.843  58.153 -60.532  1.00  0.00     0.050 A 
HETATM   34  C   UNL     1     -43.490  58.387 -60.638  1.00  0.00     0.008 A 
HETATM   35  C   UNL     1     -42.793  58.025 -59.447  1.00  0.00     0.022 A 
ENDBRANCH   4  31
TORSDOF 6
ENDMDL
MODEL 8
REMARK VINA RESULT:      -8.5      3.072      7.136
REMARK  6 active torsions:
REMARK  status: ('A' for Active; 'I' for Inactive)
REMARK    1  A    between atoms: C_2  and  O_3 
REMARK    2  A    between atoms: C_2  and  C_10 
REMARK    3  A    between atoms: O_3  and  C_4 
REMARK       I    between atoms: C_10  and  N_11 
REMARK    4  A    between atoms: N_11  and  C_12 
REMARK    5  A    between atoms: N_13  and  C_14 
REMARK    6  A    between atoms: C_26  and  C_27 
ROOT
HETATM    1  C   UNL     1     -41.352  54.976 -54.947  1.00  0.00     0.152 A 
HETATM    2  N   UNL     1     -41.560  55.257 -53.603  1.00  0.00    -0.044 N 
HETATM    3  N   UNL     1     -41.176  54.232 -52.788  1.00  0.00    -0.150 NA
HETATM    4  C   UNL     1     -40.738  53.288 -53.631  1.00  0.00     0.099 A 
HETATM    5  C   UNL     1     -40.830  53.702 -54.979  1.00  0.00     0.086 A 
ENDROOT
BRANCH   1   6
HETATM    6  N   UNL     1     -41.667  55.883 -55.952  1.00  0.00    -0.309 N 
HETATM    7  C   UNL     1     -42.737  55.712 -56.822  1.00  0.00     0.252 C 
HETATM    8  O   UNL     1     -43.508  54.755 -56.783  1.00  0.00    -0.270 OA
HETATM    9  H   UNL     1     -41.144  56.758 -55.948  1.00  0.00     0.170 HD
BRANCH   7  10
HETATM   10  C   UNL     1     -42.859  56.837 -57.889  1.00  0.00     0.217 C 
HETATM   11  C   UNL     1     -42.539  56.317 -59.292  1.00  0.00     0.050 C 
BRANCH  10  12
HETATM   12  O   UNL     1     -41.936  57.910 -57.674  1.00  0.00    -0.337 OA
BRANCH  12  13
HETATM   13  C   UNL     1     -42.470  59.168 -57.706  1.00  0.00     0.070 A 
HETATM   14  C   UNL     1     -43.375  59.479 -56.691  1.00  0.00     0.037 A 
HETATM   15  C   UNL     1     -43.927  60.756 -56.610  1.00  0.00     0.003 A 
HETATM   16  C   UNL     1     -43.558  61.733 -57.534  1.00  0.00     0.000 A 
HETATM   17  C   UNL     1     -42.631  61.430 -58.533  1.00  0.00     0.003 A 
HETATM   18  C   UNL     1     -42.078  60.150 -58.614  1.00  0.00     0.037 A 
ENDBRANCH  12  13
ENDBRANCH  10  12
ENDBRANCH   7  10
ENDBRANCH   1   6
BRANCH   2  19
HETATM   19  C   UNL     1     -42.142  56.411 -53.041  1.00  0.00     0.732 A 
HETATM   20  N   UNL     1     -41.816  57.617 -53.392  1.00  0.00    -0.067 NA
HETATM   21  C   UNL     1     -42.510  58.635 -52.773  1.00  0.00     0.065 A 
HETATM   22  C   UNL     1     -43.476  58.444 -51.853  1.00  0.00     0.036 A 
HETATM   23  C   UNL     1     -42.136  60.029 -53.224  1.00  0.00     0.060 C 
HETATM   24  C   UNL     1     -44.240  59.546 -51.179  1.00  0.00     0.046 C 
HETATM   25  C   UNL     1     -43.816  57.050 -51.476  1.00  0.00     0.268 A 
HETATM   26  C   UNL     1     -43.617  60.926 -51.398  1.00  0.00     0.005 C 
HETATM   27  C   UNL     1     -43.162  61.098 -52.842  1.00  0.00     0.006 C 
HETATM   28  O   UNL     1     -44.691  56.784 -50.662  1.00  0.00    -0.267 OA
HETATM   29  N   UNL     1     -43.090  56.093 -52.111  1.00  0.00    -0.152 N 
HETATM   30  H   UNL     1     -43.282  55.116 -51.913  1.00  0.00     0.188 HD
ENDBRANCH   2  19
BRANCH   4  31
HETATM   31  C   UNL     1     -40.225  51.966 -53.139  1.00  0.00     0.035 A 
HETATM   32  S   UNL     1     -40.129  50.550 -54.092  1.00  0.00    -0.100 SA
HETATM   33  C   UNL     1     -39.485  49.640 -52.795  1.00  0.00     0.050 A 
HETATM   34  C   UNL     1     -39.345  50.398 -51.653  1.00  0.00     0.008 A 
HETATM   35  C   UNL     1     -39.771  51.745 -51.854  1.00  0.00     0.022 A 
ENDBRANCH   4  31
TORSDOF 6
ENDMDL
MODEL 9
REMARK VINA RESULT:      -8.5      2.693      7.895
REMARK  6 active torsions:
REMARK  status: ('A' for Active; 'I' for Inactive)
REMARK    1  A    between atoms: C_2  and  O_3 
REMARK    2  A    between atoms: C_2  and  C_10 
REMARK    3  A    between atoms: O_3  and  C_4 
REMARK       I    between atoms: C_10  and  N_11 
REMARK    4  A    between atoms: N_11  and  C_12 
REMARK    5  A    between atoms: N_13  and  C_14 
REMARK    6  A    between atoms: C_26  and  C_27 
ROOT
HETATM    1  C   UNL     1     -43.704  58.734 -53.766  1.00  0.00     0.152 A 
HETATM    2  N   UNL     1     -43.242  58.011 -52.676  1.00  0.00    -0.044 N 
HETATM    3  N   UNL     1     -43.490  58.637 -51.488  1.00  0.00    -0.150 NA
HETATM    4  C   UNL     1     -44.101  59.777 -51.839  1.00  0.00     0.099 A 
HETATM    5  C   UNL     1     -44.253  59.882 -53.240  1.00  0.00     0.086 A 
ENDROOT
BRANCH   1   6
HETATM    6  N   UNL     1     -43.562  58.280 -55.072  1.00  0.00    -0.309 N 
HETATM    7  C   UNL     1     -42.595  58.763 -55.944  1.00  0.00     0.252 C 
HETATM    8  O   UNL     1     -41.771  59.626 -55.646  1.00  0.00    -0.270 OA
HETATM    9  H   UNL     1     -44.130  57.474 -55.332  1.00  0.00     0.170 HD
BRANCH   7  10
HETATM   10  C   UNL     1     -42.664  58.133 -57.364  1.00  0.00     0.217 C 
HETATM   11  C   UNL     1     -41.836  58.930 -58.373  1.00  0.00     0.050 C 
BRANCH  10  12
HETATM   12  O   UNL     1     -43.990  58.119 -57.903  1.00  0.00    -0.337 OA
BRANCH  12  13
HETATM   13  C   UNL     1     -44.331  57.005 -58.617  1.00  0.00     0.070 A 
HETATM   14  C   UNL     1     -45.429  57.130 -59.467  1.00  0.00     0.037 A 
HETATM   15  C   UNL     1     -45.816  56.064 -60.278  1.00  0.00     0.003 A 
HETATM   16  C   UNL     1     -45.089  54.874 -60.252  1.00  0.00     0.000 A 
HETATM   17  C   UNL     1     -43.974  54.757 -59.422  1.00  0.00     0.003 A 
HETATM   18  C   UNL     1     -43.587  55.826 -58.610  1.00  0.00     0.037 A 
ENDBRANCH  12  13
ENDBRANCH  10  12
ENDBRANCH   7  10
ENDBRANCH   1   6
BRANCH   2  19
HETATM   19  C   UNL     1     -42.539  56.790 -52.683  1.00  0.00     0.732 A 
HETATM   20  N   UNL     1     -42.340  56.089 -53.756  1.00  0.00    -0.067 NA
HETATM   21  C   UNL     1     -41.597  54.938 -53.596  1.00  0.00     0.065 A 
HETATM   22  C   UNL     1     -41.087  54.522 -52.421  1.00  0.00     0.036 A 
HETATM   23  C   UNL     1     -41.349  54.156 -54.867  1.00  0.00     0.060 C 
HETATM   24  C   UNL     1     -40.272  53.274 -52.240  1.00  0.00     0.046 C 
HETATM   25  C   UNL     1     -41.341  55.349 -51.217  1.00  0.00     0.268 A 
HETATM   26  C   UNL     1     -40.325  52.343 -53.453  1.00  0.00     0.005 C 
HETATM   27  C   UNL     1     -40.218  53.132 -54.753  1.00  0.00     0.006 C 
HETATM   28  O   UNL     1     -40.902  55.055 -50.112  1.00  0.00    -0.267 OA
HETATM   29  N   UNL     1     -42.088  56.462 -51.436  1.00  0.00    -0.152 N 
HETATM   30  H   UNL     1     -42.286  57.085 -50.658  1.00  0.00     0.188 HD
ENDBRANCH   2  19
BRANCH   4  31
HETATM   31  C   UNL     1     -44.544  60.783 -50.817  1.00  0.00     0.035 A 
HETATM   32  S   UNL     1     -46.099  61.491 -50.768  1.00  0.00    -0.100 SA
HETATM   33  C   UNL     1     -45.703  62.425 -49.390  1.00  0.00     0.050 A 
HETATM   34  C   UNL     1     -44.409  62.206 -48.974  1.00  0.00     0.008 A 
HETATM   35  C   UNL     1     -43.739  61.253 -49.798  1.00  0.00     0.022 A 
ENDBRANCH   4  31
TORSDOF 6
ENDMDL
MODEL 10
REMARK VINA RESULT:      -8.3      3.404      6.515
REMARK  6 active torsions:
REMARK  status: ('A' for Active; 'I' for Inactive)
REMARK    1  A    between atoms: C_2  and  O_3 
REMARK    2  A    between atoms: C_2  and  C_10 
REMARK    3  A    between atoms: O_3  and  C_4 
REMARK       I    between atoms: C_10  and  N_11 
REMARK    4  A    between atoms: N_11  and  C_12 
REMARK    5  A    between atoms: N_13  and  C_14 
REMARK    6  A    between atoms: C_26  and  C_27 
ROOT
HETATM    1  C   UNL     1     -44.679  59.689 -53.636  1.00  0.00     0.152 A 
HETATM    2  N   UNL     1     -44.551  59.324 -52.304  1.00  0.00    -0.044 N 
HETATM    3  N   UNL     1     -45.324  60.084 -51.475  1.00  0.00    -0.150 NA
HETATM    4  C   UNL     1     -45.933  60.950 -52.297  1.00  0.00     0.099 A 
HETATM    5  C   UNL     1     -45.562  60.744 -53.645  1.00  0.00     0.086 A 
ENDROOT
BRANCH   1   6
HETATM    6  N   UNL     1     -43.985  59.042 -54.653  1.00  0.00    -0.309 N 
HETATM    7  C   UNL     1     -44.462  57.907 -55.295  1.00  0.00     0.252 C 
HETATM    8  O   UNL     1     -45.539  57.372 -55.037  1.00  0.00    -0.270 OA
HETATM    9  H   UNL     1     -43.150  59.514 -54.998  1.00  0.00     0.170 HD
BRANCH   7  10
HETATM   10  C   UNL     1     -43.486  57.339 -56.366  1.00  0.00     0.217 C 
HETATM   11  C   UNL     1     -43.935  57.700 -57.782  1.00  0.00     0.050 C 
BRANCH  10  12
HETATM   12  O   UNL     1     -43.418  55.909 -56.352  1.00  0.00    -0.337 OA
BRANCH  12  13
HETATM   13  C   UNL     1     -42.516  55.365 -55.482  1.00  0.00     0.070 A 
HETATM   14  C   UNL     1     -42.660  54.003 -55.217  1.00  0.00     0.037 A 
HETATM   15  C   UNL     1     -41.752  53.349 -54.385  1.00  0.00     0.003 A 
HETATM   16  C   UNL     1     -40.684  54.055 -53.832  1.00  0.00     0.000 A 
HETATM   17  C   UNL     1     -40.524  55.412 -54.119  1.00  0.00     0.003 A 
HETATM   18  C   UNL     1     -41.434  56.066 -54.952  1.00  0.00     0.037 A 
ENDBRANCH  12  13
ENDBRANCH  10  12
ENDBRANCH   7  10
ENDBRANCH   1   6
BRANCH   2  19
HETATM   19  C   UNL     1     -43.709  58.336 -51.754  1.00  0.00     0.732 A 
HETATM   20  N   UNL     1     -44.063  57.096 -51.614  1.00  0.00    -0.067 NA
HETATM   21  C   UNL     1     -43.106  56.249 -51.096  1.00  0.00     0.065 A 
HETATM   22  C   UNL     1     -41.865  56.634 -50.742  1.00  0.00     0.036 A 
HETATM   23  C   UNL     1     -43.531  54.802 -50.975  1.00  0.00     0.060 C 
HETATM   24  C   UNL     1     -40.815  55.718 -50.184  1.00  0.00     0.046 C 
HETATM   25  C   UNL     1     -41.500  58.062 -50.914  1.00  0.00     0.268 A 
HETATM   26  C   UNL     1     -41.372  54.358 -49.760  1.00  0.00     0.005 C 
HETATM   27  C   UNL     1     -42.365  53.829 -50.788  1.00  0.00     0.006 C 
HETATM   28  O   UNL     1     -40.390  58.495 -50.634  1.00  0.00    -0.267 OA
HETATM   29  N   UNL     1     -42.489  58.847 -51.416  1.00  0.00    -0.152 N 
HETATM   30  H   UNL     1     -42.303  59.833 -51.576  1.00  0.00     0.188 HD
ENDBRANCH   2  19
BRANCH   4  31
HETATM   31  C   UNL     1     -46.884  61.992 -51.783  1.00  0.00     0.035 A 
HETATM   32  S   UNL     1     -46.709  62.811 -50.293  1.00  0.00    -0.100 SA
HETATM   33  C   UNL     1     -48.137  63.717 -50.547  1.00  0.00     0.050 A 
HETATM   34  C   UNL     1     -48.741  63.402 -51.744  1.00  0.00     0.008 A 
HETATM   35  C   UNL     1     -48.014  62.406 -52.461  1.00  0.00     0.022 A 
ENDBRANCH   4  31
TORSDOF 6
ENDMDL
