MODEL 1
REMARK VINA RESULT:      -7.8      0.000      0.000
REMARK  8 active torsions:
REMARK  status: ('A' for Active; 'I' for Inactive)
REMARK    1  A    between atoms: N_2  and  C_4 
REMARK    2  A    between atoms: C_4  and  C_5 
REMARK    3  A    between atoms: C_5  and  N_6 
REMARK       I    between atoms: N_6  and  C_7 
REMARK    4  A    between atoms: N_6  and  C_23 
REMARK       I    between atoms: C_7  and  N_8 
REMARK    5  A    between atoms: N_8  and  C_9 
REMARK    6  A    between atoms: C_11  and  O_12 
REMARK    7  A    between atoms: O_12  and  C_13 
REMARK    8  A    between atoms: C_23  and  C_24 
ROOT
HETATM    1  N   UNL     1     -42.940  56.428 -59.438  1.00  0.00    -0.328 N 
HETATM    2  C   UNL     1     -43.174  55.586 -58.344  1.00  0.00     0.323 C 
HETATM    3  N   UNL     1     -42.353  55.825 -57.269  1.00  0.00    -0.309 N 
HETATM    4  O   UNL     1     -44.081  54.760 -58.392  1.00  0.00    -0.247 OA
HETATM    5  H   UNL     1     -41.759  56.637 -57.334  1.00  0.00     0.170 HD
ENDROOT
BRANCH   1   6
HETATM    6  C   UNL     1     -43.954  56.474 -60.486  1.00  0.00     0.155 C 
BRANCH   6   7
HETATM    7  C   UNL     1     -45.089  57.466 -60.183  1.00  0.00     0.254 C 
BRANCH   7   8
HETATM    8  N   UNL     1     -46.258  56.772 -59.493  1.00  0.00    -0.077 N 
HETATM    9  C   UNL     1     -47.300  56.282 -60.465  1.00  0.00     0.269 C 
HETATM   10  H   UNL     1     -45.892  55.946 -59.000  1.00  0.00     0.279 HD
HETATM   11  C   UNL     1     -46.875  57.647 -58.435  1.00  0.00     0.269 C 
ENDBRANCH   7   8
ENDBRANCH   6   7
ENDBRANCH   1   6
BRANCH   1  12
HETATM   12  C   UNL     1     -41.707  57.194 -59.653  1.00  0.00     0.166 C 
BRANCH  12  13
HETATM   13  C   UNL     1     -41.851  58.686 -59.458  1.00  0.00    -0.040 A 
HETATM   14  C   UNL     1     -41.885  59.286 -58.190  1.00  0.00     0.009 A 
HETATM   15  C   UNL     1     -41.957  60.674 -58.062  1.00  0.00     0.001 A 
HETATM   16  C   UNL     1     -42.014  61.478 -59.196  1.00  0.00     0.000 A 
HETATM   17  C   UNL     1     -42.008  60.897 -60.461  1.00  0.00     0.001 A 
HETATM   18  C   UNL     1     -41.931  59.509 -60.592  1.00  0.00     0.009 A 
ENDBRANCH  12  13
ENDBRANCH   1  12
BRANCH   3  19
HETATM   19  C   UNL     1     -42.406  55.277 -55.972  1.00  0.00     0.042 A 
HETATM   20  C   UNL     1     -41.239  54.658 -55.521  1.00  0.00     0.087 A 
HETATM   21  C   UNL     1     -41.211  54.122 -54.244  1.00  0.00     0.171 A 
HETATM   22  N   UNL     1     -42.263  54.158 -53.405  1.00  0.00    -0.237 NA
HETATM   23  C   UNL     1     -43.383  54.760 -53.866  1.00  0.00     0.122 A 
HETATM   24  C   UNL     1     -43.504  55.330 -55.127  1.00  0.00     0.049 A 
BRANCH  21  25
HETATM   25  O   UNL     1     -39.994  53.549 -53.885  1.00  0.00    -0.292 OA
BRANCH  25  26
HETATM   26  C   UNL     1     -39.980  52.254 -53.438  1.00  0.00     0.077 A 
HETATM   27  C   UNL     1     -39.665  51.925 -52.121  1.00  0.00     0.037 A 
HETATM   28  C   UNL     1     -39.543  50.583 -51.755  1.00  0.00     0.003 A 
HETATM   29  C   UNL     1     -39.715  49.578 -52.708  1.00  0.00     0.000 A 
HETATM   30  C   UNL     1     -40.009  49.911 -54.031  1.00  0.00     0.003 A 
HETATM   31  C   UNL     1     -40.133  51.251 -54.398  1.00  0.00     0.037 A 
ENDBRANCH  25  26
ENDBRANCH  21  25
ENDBRANCH   3  19
TORSDOF 8
ENDMDL
MODEL 2
REMARK VINA RESULT:      -7.7      1.674      3.786
REMARK  8 active torsions:
REMARK  status: ('A' for Active; 'I' for Inactive)
REMARK    1  A    between atoms: N_2  and  C_4 
REMARK    2  A    between atoms: C_4  and  C_5 
REMARK    3  A    between atoms: C_5  and  N_6 
REMARK       I    between atoms: N_6  and  C_7 
REMARK    4  A    between atoms: N_6  and  C_23 
REMARK       I    between atoms: C_7  and  N_8 
REMARK    5  A    between atoms: N_8  and  C_9 
REMARK    6  A    between atoms: C_11  and  O_12 
REMARK    7  A    between atoms: O_12  and  C_13 
REMARK    8  A    between atoms: C_23  and  C_24 
ROOT
HETATM    1  N   UNL     1     -42.176  58.232 -57.956  1.00  0.00    -0.328 N 
HETATM    2  C   UNL     1     -42.468  57.724 -56.685  1.00  0.00     0.323 C 
HETATM    3  N   UNL     1     -42.324  56.363 -56.579  1.00  0.00    -0.309 N 
HETATM    4  O   UNL     1     -42.775  58.491 -55.777  1.00  0.00    -0.247 OA
HETATM    5  H   UNL     1     -41.921  55.895 -57.376  1.00  0.00     0.170 HD
ENDROOT
BRANCH   1   6
HETATM    6  C   UNL     1     -41.985  59.673 -58.083  1.00  0.00     0.155 C 
BRANCH   6   7
HETATM    7  C   UNL     1     -41.841  60.135 -59.542  1.00  0.00     0.254 C 
BRANCH   7   8
HETATM    8  N   UNL     1     -41.740  61.654 -59.631  1.00  0.00    -0.077 N 
HETATM    9  C   UNL     1     -41.139  62.122 -60.931  1.00  0.00     0.269 C 
HETATM   10  H   UNL     1     -42.693  62.040 -59.583  1.00  0.00     0.279 HD
HETATM   11  C   UNL     1     -40.999  62.230 -58.454  1.00  0.00     0.269 C 
ENDBRANCH   7   8
ENDBRANCH   6   7
ENDBRANCH   1   6
BRANCH   1  12
HETATM   12  C   UNL     1     -42.142  57.432 -59.186  1.00  0.00     0.166 C 
BRANCH  12  13
HETATM   13  C   UNL     1     -43.471  56.838 -59.589  1.00  0.00    -0.040 A 
HETATM   14  C   UNL     1     -44.602  57.624 -59.864  1.00  0.00     0.009 A 
HETATM   15  C   UNL     1     -45.791  57.033 -60.293  1.00  0.00     0.001 A 
HETATM   16  C   UNL     1     -45.873  55.651 -60.434  1.00  0.00     0.000 A 
HETATM   17  C   UNL     1     -44.770  54.856 -60.139  1.00  0.00     0.001 A 
HETATM   18  C   UNL     1     -43.577  55.444 -59.715  1.00  0.00     0.009 A 
ENDBRANCH  12  13
ENDBRANCH   1  12
BRANCH   3  19
HETATM   19  C   UNL     1     -42.390  55.548 -55.431  1.00  0.00     0.042 A 
HETATM   20  C   UNL     1     -41.211  54.891 -55.077  1.00  0.00     0.087 A 
HETATM   21  C   UNL     1     -41.197  54.096 -53.943  1.00  0.00     0.171 A 
HETATM   22  N   UNL     1     -42.274  53.913 -53.156  1.00  0.00    -0.237 NA
HETATM   23  C   UNL     1     -43.406  54.557 -53.521  1.00  0.00     0.122 A 
HETATM   24  C   UNL     1     -43.514  55.379 -54.637  1.00  0.00     0.049 A 
BRANCH  21  25
HETATM   25  O   UNL     1     -39.967  53.503 -53.668  1.00  0.00    -0.292 OA
BRANCH  25  26
HETATM   26  C   UNL     1     -39.942  52.207 -53.227  1.00  0.00     0.077 A 
HETATM   27  C   UNL     1     -39.666  51.877 -51.901  1.00  0.00     0.037 A 
HETATM   28  C   UNL     1     -39.529  50.537 -51.536  1.00  0.00     0.003 A 
HETATM   29  C   UNL     1     -39.646  49.534 -52.500  1.00  0.00     0.000 A 
HETATM   30  C   UNL     1     -39.901  49.867 -53.830  1.00  0.00     0.003 A 
HETATM   31  C   UNL     1     -40.040  51.206 -54.195  1.00  0.00     0.037 A 
ENDBRANCH  25  26
ENDBRANCH  21  25
ENDBRANCH   3  19
TORSDOF 8
ENDMDL
MODEL 3
REMARK VINA RESULT:      -7.6      2.254      8.944
REMARK  8 active torsions:
REMARK  status: ('A' for Active; 'I' for Inactive)
REMARK    1  A    between atoms: N_2  and  C_4 
REMARK    2  A    between atoms: C_4  and  C_5 
REMARK    3  A    between atoms: C_5  and  N_6 
REMARK       I    between atoms: N_6  and  C_7 
REMARK    4  A    between atoms: N_6  and  C_23 
REMARK       I    between atoms: C_7  and  N_8 
REMARK    5  A    between atoms: N_8  and  C_9 
REMARK    6  A    between atoms: C_11  and  O_12 
REMARK    7  A    between atoms: O_12  and  C_13 
REMARK    8  A    between atoms: C_23  and  C_24 
ROOT
HETATM    1  N   UNL     1     -42.452  55.509 -53.391  1.00  0.00    -0.328 N 
HETATM    2  C   UNL     1     -43.104  56.124 -54.465  1.00  0.00     0.323 C 
HETATM    3  N   UNL     1     -42.378  56.129 -55.631  1.00  0.00    -0.309 N 
HETATM    4  O   UNL     1     -44.244  56.557 -54.322  1.00  0.00    -0.247 OA
HETATM    5  H   UNL     1     -41.519  55.601 -55.623  1.00  0.00     0.170 HD
ENDROOT
BRANCH   1   6
HETATM    6  C   UNL     1     -43.252  55.166 -52.219  1.00  0.00     0.155 C 
BRANCH   6   7
HETATM    7  C   UNL     1     -42.707  55.774 -50.917  1.00  0.00     0.254 C 
BRANCH   7   8
HETATM    8  N   UNL     1     -43.279  57.167 -50.678  1.00  0.00    -0.077 N 
HETATM    9  C   UNL     1     -44.714  57.291 -51.118  1.00  0.00     0.269 C 
HETATM   10  H   UNL     1     -43.255  57.351 -49.665  1.00  0.00     0.279 HD
HETATM   11  C   UNL     1     -42.425  58.233 -51.313  1.00  0.00     0.269 C 
ENDBRANCH   7   8
ENDBRANCH   6   7
ENDBRANCH   1   6
BRANCH   1  12
HETATM   12  C   UNL     1     -41.006  55.270 -53.317  1.00  0.00     0.166 C 
BRANCH  12  13
HETATM   13  C   UNL     1     -40.610  53.813 -53.257  1.00  0.00    -0.040 A 
HETATM   14  C   UNL     1     -40.687  52.959 -54.368  1.00  0.00     0.009 A 
HETATM   15  C   UNL     1     -40.251  51.635 -54.278  1.00  0.00     0.001 A 
HETATM   16  C   UNL     1     -39.752  51.144 -53.076  1.00  0.00     0.000 A 
HETATM   17  C   UNL     1     -39.695  51.971 -51.958  1.00  0.00     0.001 A 
HETATM   18  C   UNL     1     -40.124  53.296 -52.046  1.00  0.00     0.009 A 
ENDBRANCH  12  13
ENDBRANCH   1  12
BRANCH   3  19
HETATM   19  C   UNL     1     -42.775  56.525 -56.924  1.00  0.00     0.042 A 
HETATM   20  C   UNL     1     -42.971  57.895 -57.112  1.00  0.00     0.087 A 
HETATM   21  C   UNL     1     -43.336  58.357 -58.366  1.00  0.00     0.171 A 
HETATM   22  N   UNL     1     -43.521  57.548 -59.426  1.00  0.00    -0.237 NA
HETATM   23  C   UNL     1     -43.328  56.225 -59.218  1.00  0.00     0.122 A 
HETATM   24  C   UNL     1     -42.957  55.669 -57.999  1.00  0.00     0.049 A 
BRANCH  21  25
HETATM   25  O   UNL     1     -43.484  59.738 -58.451  1.00  0.00    -0.292 OA
BRANCH  25  26
HETATM   26  C   UNL     1     -42.417  60.494 -58.856  1.00  0.00     0.077 A 
HETATM   27  C   UNL     1     -41.544  61.096 -57.950  1.00  0.00     0.037 A 
HETATM   28  C   UNL     1     -40.550  61.957 -58.417  1.00  0.00     0.003 A 
HETATM   29  C   UNL     1     -40.445  62.232 -59.782  1.00  0.00     0.000 A 
HETATM   30  C   UNL     1     -41.334  61.646 -60.684  1.00  0.00     0.003 A 
HETATM   31  C   UNL     1     -42.326  60.783 -60.219  1.00  0.00     0.037 A 
ENDBRANCH  25  26
ENDBRANCH  21  25
ENDBRANCH   3  19
TORSDOF 8
ENDMDL
MODEL 4
REMARK VINA RESULT:      -7.3      2.886      8.059
REMARK  8 active torsions:
REMARK  status: ('A' for Active; 'I' for Inactive)
REMARK    1  A    between atoms: N_2  and  C_4 
REMARK    2  A    between atoms: C_4  and  C_5 
REMARK    3  A    between atoms: C_5  and  N_6 
REMARK       I    between atoms: N_6  and  C_7 
REMARK    4  A    between atoms: N_6  and  C_23 
REMARK       I    between atoms: C_7  and  N_8 
REMARK    5  A    between atoms: N_8  and  C_9 
REMARK    6  A    between atoms: C_11  and  O_12 
REMARK    7  A    between atoms: O_12  and  C_13 
REMARK    8  A    between atoms: C_23  and  C_24 
ROOT
HETATM    1  N   UNL     1     -42.777  57.242 -53.482  1.00  0.00    -0.328 N 
HETATM    2  C   UNL     1     -43.113  58.117 -54.521  1.00  0.00     0.323 C 
HETATM    3  N   UNL     1     -42.101  58.329 -55.425  1.00  0.00    -0.309 N 
HETATM    4  O   UNL     1     -44.248  58.582 -54.586  1.00  0.00    -0.247 OA
HETATM    5  H   UNL     1     -41.278  57.757 -55.312  1.00  0.00     0.170 HD
ENDROOT
BRANCH   1   6
HETATM    6  C   UNL     1     -43.864  56.705 -52.670  1.00  0.00     0.155 C 
BRANCH   6   7
HETATM    7  C   UNL     1     -43.988  57.391 -51.299  1.00  0.00     0.254 C 
BRANCH   7   8
HETATM    8  N   UNL     1     -44.430  58.842 -51.446  1.00  0.00    -0.077 N 
HETATM    9  C   UNL     1     -43.358  59.822 -51.046  1.00  0.00     0.269 C 
HETATM   10  H   UNL     1     -44.640  59.012 -52.440  1.00  0.00     0.279 HD
HETATM   11  C   UNL     1     -45.711  59.108 -50.701  1.00  0.00     0.269 C 
ENDBRANCH   7   8
ENDBRANCH   6   7
ENDBRANCH   1   6
BRANCH   1  12
HETATM   12  C   UNL     1     -41.405  56.900 -53.090  1.00  0.00     0.166 C 
BRANCH  12  13
HETATM   13  C   UNL     1     -40.982  55.493 -53.441  1.00  0.00    -0.040 A 
HETATM   14  C   UNL     1     -41.010  54.438 -52.515  1.00  0.00     0.009 A 
HETATM   15  C   UNL     1     -40.668  53.142 -52.904  1.00  0.00     0.001 A 
HETATM   16  C   UNL     1     -40.278  52.885 -54.214  1.00  0.00     0.000 A 
HETATM   17  C   UNL     1     -40.219  53.925 -55.138  1.00  0.00     0.001 A 
HETATM   18  C   UNL     1     -40.565  55.222 -54.754  1.00  0.00     0.009 A 
ENDBRANCH  12  13
ENDBRANCH   1  12
BRANCH   3  19
HETATM   19  C   UNL     1     -42.134  59.021 -56.651  1.00  0.00     0.042 A 
HETATM   20  C   UNL     1     -42.220  58.230 -57.799  1.00  0.00     0.087 A 
HETATM   21  C   UNL     1     -42.285  58.846 -59.038  1.00  0.00     0.171 A 
HETATM   22  N   UNL     1     -42.262  60.183 -59.200  1.00  0.00    -0.237 NA
HETATM   23  C   UNL     1     -42.174  60.927 -58.074  1.00  0.00     0.122 A 
HETATM   24  C   UNL     1     -42.110  60.401 -56.790  1.00  0.00     0.049 A 
BRANCH  21  25
HETATM   25  O   UNL     1     -42.390  57.969 -60.113  1.00  0.00    -0.292 OA
BRANCH  25  26
HETATM   26  C   UNL     1     -43.489  57.156 -60.198  1.00  0.00     0.077 A 
HETATM   27  C   UNL     1     -44.784  57.662 -60.301  1.00  0.00     0.037 A 
HETATM   28  C   UNL     1     -45.872  56.790 -60.256  1.00  0.00     0.003 A 
HETATM   29  C   UNL     1     -45.665  55.420 -60.086  1.00  0.00     0.000 A 
HETATM   30  C   UNL     1     -44.370  54.918 -59.961  1.00  0.00     0.003 A 
HETATM   31  C   UNL     1     -43.281  55.788 -60.008  1.00  0.00     0.037 A 
ENDBRANCH  25  26
ENDBRANCH  21  25
ENDBRANCH   3  19
TORSDOF 8
ENDMDL
MODEL 5
REMARK VINA RESULT:      -7.2      5.471      8.879
REMARK  8 active torsions:
REMARK  status: ('A' for Active; 'I' for Inactive)
REMARK    1  A    between atoms: N_2  and  C_4 
REMARK    2  A    between atoms: C_4  and  C_5 
REMARK    3  A    between atoms: C_5  and  N_6 
REMARK       I    between atoms: N_6  and  C_7 
REMARK    4  A    between atoms: N_6  and  C_23 
REMARK       I    between atoms: C_7  and  N_8 
REMARK    5  A    between atoms: N_8  and  C_9 
REMARK    6  A    between atoms: C_11  and  O_12 
REMARK    7  A    between atoms: O_12  and  C_13 
REMARK    8  A    between atoms: C_23  and  C_24 
ROOT
HETATM    1  N   UNL     1     -42.074  55.649 -54.475  1.00  0.00    -0.328 N 
HETATM    2  C   UNL     1     -41.985  56.948 -53.963  1.00  0.00     0.323 C 
HETATM    3  N   UNL     1     -42.039  57.013 -52.592  1.00  0.00    -0.309 N 
HETATM    4  O   UNL     1     -41.827  57.896 -54.726  1.00  0.00    -0.247 OA
HETATM    5  H   UNL     1     -42.021  56.132 -52.103  1.00  0.00     0.170 HD
ENDROOT
BRANCH   1   6
HETATM    6  C   UNL     1     -41.705  55.445 -55.873  1.00  0.00     0.155 C 
BRANCH   6   7
HETATM    7  C   UNL     1     -42.920  55.337 -56.807  1.00  0.00     0.254 C 
BRANCH   7   8
HETATM    8  N   UNL     1     -42.632  55.971 -58.163  1.00  0.00    -0.077 N 
HETATM    9  C   UNL     1     -42.616  57.477 -58.110  1.00  0.00     0.269 C 
HETATM   10  H   UNL     1     -41.694  55.669 -58.463  1.00  0.00     0.279 HD
HETATM   11  C   UNL     1     -43.584  55.477 -59.220  1.00  0.00     0.269 C 
ENDBRANCH   7   8
ENDBRANCH   6   7
ENDBRANCH   1   6
BRANCH   1  12
HETATM   12  C   UNL     1     -42.600  54.494 -53.738  1.00  0.00     0.166 C 
BRANCH  12  13
HETATM   13  C   UNL     1     -41.565  53.456 -53.371  1.00  0.00    -0.040 A 
HETATM   14  C   UNL     1     -41.160  52.443 -54.254  1.00  0.00     0.009 A 
HETATM   15  C   UNL     1     -40.155  51.545 -53.891  1.00  0.00     0.001 A 
HETATM   16  C   UNL     1     -39.557  51.634 -52.638  1.00  0.00     0.000 A 
HETATM   17  C   UNL     1     -39.967  52.616 -51.741  1.00  0.00     0.001 A 
HETATM   18  C   UNL     1     -40.968  53.520 -52.103  1.00  0.00     0.009 A 
ENDBRANCH  12  13
ENDBRANCH   1  12
BRANCH   3  19
HETATM   19  C   UNL     1     -41.835  58.122 -51.747  1.00  0.00     0.042 A 
HETATM   20  C   UNL     1     -42.884  59.040 -51.677  1.00  0.00     0.087 A 
HETATM   21  C   UNL     1     -42.763  60.140 -50.844  1.00  0.00     0.171 A 
HETATM   22  N   UNL     1     -41.672  60.381 -50.092  1.00  0.00    -0.237 NA
HETATM   23  C   UNL     1     -40.668  59.479 -50.180  1.00  0.00     0.122 A 
HETATM   24  C   UNL     1     -40.700  58.344 -50.982  1.00  0.00     0.049 A 
BRANCH  21  25
HETATM   25  O   UNL     1     -43.873  60.980 -50.832  1.00  0.00    -0.292 OA
BRANCH  25  26
HETATM   26  C   UNL     1     -44.167  61.670 -49.686  1.00  0.00     0.077 A 
HETATM   27  C   UNL     1     -44.874  61.095 -48.631  1.00  0.00     0.037 A 
HETATM   28  C   UNL     1     -45.254  61.883 -47.543  1.00  0.00     0.003 A 
HETATM   29  C   UNL     1     -44.946  63.245 -47.523  1.00  0.00     0.000 A 
HETATM   30  C   UNL     1     -44.258  63.822 -48.590  1.00  0.00     0.003 A 
HETATM   31  C   UNL     1     -43.875  63.036 -49.676  1.00  0.00     0.037 A 
ENDBRANCH  25  26
ENDBRANCH  21  25
ENDBRANCH   3  19
TORSDOF 8
ENDMDL
MODEL 6
REMARK VINA RESULT:      -7.2      3.043      4.723
REMARK  8 active torsions:
REMARK  status: ('A' for Active; 'I' for Inactive)
REMARK    1  A    between atoms: N_2  and  C_4 
REMARK    2  A    between atoms: C_4  and  C_5 
REMARK    3  A    between atoms: C_5  and  N_6 
REMARK       I    between atoms: N_6  and  C_7 
REMARK    4  A    between atoms: N_6  and  C_23 
REMARK       I    between atoms: C_7  and  N_8 
REMARK    5  A    between atoms: N_8  and  C_9 
REMARK    6  A    between atoms: C_11  and  O_12 
REMARK    7  A    between atoms: O_12  and  C_13 
REMARK    8  A    between atoms: C_23  and  C_24 
ROOT
HETATM    1  N   UNL     1     -42.961  56.547 -54.567  1.00  0.00    -0.328 N 
HETATM    2  C   UNL     1     -41.975  56.244 -53.620  1.00  0.00     0.323 C 
HETATM    3  N   UNL     1     -42.465  55.706 -52.455  1.00  0.00    -0.309 N 
HETATM    4  O   UNL     1     -40.792  56.425 -53.892  1.00  0.00    -0.247 OA
HETATM    5  H   UNL     1     -43.448  55.483 -52.447  1.00  0.00     0.170 HD
ENDROOT
BRANCH   1   6
HETATM    6  C   UNL     1     -42.528  56.811 -55.935  1.00  0.00     0.155 C 
BRANCH   6   7
HETATM    7  C   UNL     1     -42.848  55.659 -56.902  1.00  0.00     0.254 C 
BRANCH   7   8
HETATM    8  N   UNL     1     -43.883  56.081 -57.938  1.00  0.00    -0.077 N 
HETATM    9  C   UNL     1     -43.551  55.592 -59.325  1.00  0.00     0.269 C 
HETATM   10  H   UNL     1     -44.785  55.659 -57.677  1.00  0.00     0.279 HD
HETATM   11  C   UNL     1     -44.102  57.570 -57.928  1.00  0.00     0.269 C 
ENDBRANCH   7   8
ENDBRANCH   6   7
ENDBRANCH   1   6
BRANCH   1  12
HETATM   12  C   UNL     1     -44.388  56.711 -54.263  1.00  0.00     0.166 C 
BRANCH  12  13
HETATM   13  C   UNL     1     -44.768  58.079 -53.747  1.00  0.00    -0.040 A 
HETATM   14  C   UNL     1     -44.792  58.394 -52.379  1.00  0.00     0.009 A 
HETATM   15  C   UNL     1     -45.090  59.690 -51.954  1.00  0.00     0.001 A 
HETATM   16  C   UNL     1     -45.386  60.680 -52.886  1.00  0.00     0.000 A 
HETATM   17  C   UNL     1     -45.393  60.377 -54.244  1.00  0.00     0.001 A 
HETATM   18  C   UNL     1     -45.090  59.083 -54.673  1.00  0.00     0.009 A 
ENDBRANCH  12  13
ENDBRANCH   1  12
BRANCH   3  19
HETATM   19  C   UNL     1     -41.760  55.158 -51.365  1.00  0.00     0.042 A 
HETATM   20  C   UNL     1     -40.811  54.183 -51.677  1.00  0.00     0.087 A 
HETATM   21  C   UNL     1     -40.062  53.621 -50.656  1.00  0.00     0.171 A 
HETATM   22  N   UNL     1     -40.206  53.961 -49.361  1.00  0.00    -0.237 NA
HETATM   23  C   UNL     1     -41.134  54.905 -49.084  1.00  0.00     0.122 A 
HETATM   24  C   UNL     1     -41.928  55.529 -50.040  1.00  0.00     0.049 A 
BRANCH  21  25
HETATM   25  O   UNL     1     -39.130  52.676 -51.077  1.00  0.00    -0.292 OA
BRANCH  25  26
HETATM   26  C   UNL     1     -39.516  51.726 -51.984  1.00  0.00     0.077 A 
HETATM   27  C   UNL     1     -39.401  50.361 -51.727  1.00  0.00     0.037 A 
HETATM   28  C   UNL     1     -39.690  49.441 -52.736  1.00  0.00     0.003 A 
HETATM   29  C   UNL     1     -40.072  49.887 -54.003  1.00  0.00     0.000 A 
HETATM   30  C   UNL     1     -40.165  51.254 -54.264  1.00  0.00     0.003 A 
HETATM   31  C   UNL     1     -39.878  52.175 -53.256  1.00  0.00     0.037 A 
ENDBRANCH  25  26
ENDBRANCH  21  25
ENDBRANCH   3  19
TORSDOF 8
ENDMDL
MODEL 7
REMARK VINA RESULT:      -7.1      3.337      8.651
REMARK  8 active torsions:
REMARK  status: ('A' for Active; 'I' for Inactive)
REMARK    1  A    between atoms: N_2  and  C_4 
REMARK    2  A    between atoms: C_4  and  C_5 
REMARK    3  A    between atoms: C_5  and  N_6 
REMARK       I    between atoms: N_6  and  C_7 
REMARK    4  A    between atoms: N_6  and  C_23 
REMARK       I    between atoms: C_7  and  N_8 
REMARK    5  A    between atoms: N_8  and  C_9 
REMARK    6  A    between atoms: C_11  and  O_12 
REMARK    7  A    between atoms: O_12  and  C_13 
REMARK    8  A    between atoms: C_23  and  C_24 
ROOT
HETATM    1  N   UNL     1     -41.857  56.710 -52.507  1.00  0.00    -0.328 N 
HETATM    2  C   UNL     1     -42.134  57.629 -53.526  1.00  0.00     0.323 C 
HETATM    3  N   UNL     1     -43.322  57.401 -54.177  1.00  0.00    -0.309 N 
HETATM    4  O   UNL     1     -41.362  58.560 -53.735  1.00  0.00    -0.247 OA
HETATM    5  H   UNL     1     -43.912  56.682 -53.788  1.00  0.00     0.170 HD
ENDROOT
BRANCH   1   6
HETATM    6  C   UNL     1     -40.803  57.049 -51.557  1.00  0.00     0.155 C 
BRANCH   6   7
HETATM    7  C   UNL     1     -41.344  57.579 -50.219  1.00  0.00     0.254 C 
BRANCH   7   8
HETATM    8  N   UNL     1     -41.026  59.059 -50.043  1.00  0.00    -0.077 N 
HETATM    9  C   UNL     1     -42.118  59.956 -50.567  1.00  0.00     0.269 C 
HETATM   10  H   UNL     1     -40.938  59.248 -49.034  1.00  0.00     0.279 HD
HETATM   11  C   UNL     1     -39.695  59.416 -50.649  1.00  0.00     0.269 C 
ENDBRANCH   7   8
ENDBRANCH   6   7
ENDBRANCH   1   6
BRANCH   1  12
HETATM   12  C   UNL     1     -42.485  55.389 -52.380  1.00  0.00     0.166 C 
BRANCH  12  13
HETATM   13  C   UNL     1     -41.607  54.232 -52.797  1.00  0.00    -0.040 A 
HETATM   14  C   UNL     1     -41.372  53.903 -54.141  1.00  0.00     0.009 A 
HETATM   15  C   UNL     1     -40.503  52.863 -54.477  1.00  0.00     0.001 A 
HETATM   16  C   UNL     1     -39.873  52.129 -53.477  1.00  0.00     0.000 A 
HETATM   17  C   UNL     1     -40.116  52.426 -52.139  1.00  0.00     0.001 A 
HETATM   18  C   UNL     1     -40.981  53.469 -51.800  1.00  0.00     0.009 A 
ENDBRANCH  12  13
ENDBRANCH   1  12
BRANCH   3  19
HETATM   19  C   UNL     1     -43.976  58.198 -55.138  1.00  0.00     0.042 A 
HETATM   20  C   UNL     1     -43.676  57.918 -56.472  1.00  0.00     0.087 A 
HETATM   21  C   UNL     1     -44.304  58.644 -57.471  1.00  0.00     0.171 A 
HETATM   22  N   UNL     1     -45.194  59.624 -57.222  1.00  0.00    -0.237 NA
HETATM   23  C   UNL     1     -45.465  59.879 -55.922  1.00  0.00     0.122 A 
HETATM   24  C   UNL     1     -44.890  59.200 -54.854  1.00  0.00     0.049 A 
BRANCH  21  25
HETATM   25  O   UNL     1     -43.951  58.272 -58.765  1.00  0.00    -0.292 OA
BRANCH  25  26
HETATM   26  C   UNL     1     -44.400  57.073 -59.253  1.00  0.00     0.077 A 
HETATM   27  C   UNL     1     -43.562  55.969 -59.400  1.00  0.00     0.037 A 
HETATM   28  C   UNL     1     -44.043  54.815 -60.020  1.00  0.00     0.003 A 
HETATM   29  C   UNL     1     -45.350  54.775 -60.509  1.00  0.00     0.000 A 
HETATM   30  C   UNL     1     -46.180  55.889 -60.380  1.00  0.00     0.003 A 
HETATM   31  C   UNL     1     -45.701  57.042 -59.759  1.00  0.00     0.037 A 
ENDBRANCH  25  26
ENDBRANCH  21  25
ENDBRANCH   3  19
TORSDOF 8
ENDMDL
MODEL 8
REMARK VINA RESULT:      -7.1      2.868      9.032
REMARK  8 active torsions:
REMARK  status: ('A' for Active; 'I' for Inactive)
REMARK    1  A    between atoms: N_2  and  C_4 
REMARK    2  A    between atoms: C_4  and  C_5 
REMARK    3  A    between atoms: C_5  and  N_6 
REMARK       I    between atoms: N_6  and  C_7 
REMARK    4  A    between atoms: N_6  and  C_23 
REMARK       I    between atoms: C_7  and  N_8 
REMARK    5  A    between atoms: N_8  and  C_9 
REMARK    6  A    between atoms: C_11  and  O_12 
REMARK    7  A    between atoms: O_12  and  C_13 
REMARK    8  A    between atoms: C_23  and  C_24 
ROOT
HETATM    1  N   UNL     1     -41.738  56.081 -52.482  1.00  0.00    -0.328 N 
HETATM    2  C   UNL     1     -41.984  56.889 -53.598  1.00  0.00     0.323 C 
HETATM    3  N   UNL     1     -43.072  56.502 -54.340  1.00  0.00    -0.309 N 
HETATM    4  O   UNL     1     -41.277  57.870 -53.808  1.00  0.00    -0.247 OA
HETATM    5  H   UNL     1     -43.637  55.762 -53.950  1.00  0.00     0.170 HD
ENDROOT
BRANCH   1   6
HETATM    6  C   UNL     1     -40.822  56.589 -51.465  1.00  0.00     0.155 C 
BRANCH   6   7
HETATM    7  C   UNL     1     -41.544  57.251 -50.281  1.00  0.00     0.254 C 
BRANCH   7   8
HETATM    8  N   UNL     1     -41.270  58.750 -50.235  1.00  0.00    -0.077 N 
HETATM    9  C   UNL     1     -42.348  59.560 -50.907  1.00  0.00     0.269 C 
HETATM   10  H   UNL     1     -41.245  59.039 -49.248  1.00  0.00     0.279 HD
HETATM   11  C   UNL     1     -39.914  59.082 -50.799  1.00  0.00     0.269 C 
ENDBRANCH   7   8
ENDBRANCH   6   7
ENDBRANCH   1   6
BRANCH   1  12
HETATM   12  C   UNL     1     -42.260  54.720 -52.305  1.00  0.00     0.166 C 
BRANCH  12  13
HETATM   13  C   UNL     1     -41.280  53.621 -52.645  1.00  0.00    -0.040 A 
HETATM   14  C   UNL     1     -40.512  52.961 -51.672  1.00  0.00     0.009 A 
HETATM   15  C   UNL     1     -39.666  51.910 -52.028  1.00  0.00     0.001 A 
HETATM   16  C   UNL     1     -39.562  51.516 -53.358  1.00  0.00     0.000 A 
HETATM   17  C   UNL     1     -40.297  52.178 -54.338  1.00  0.00     0.001 A 
HETATM   18  C   UNL     1     -41.148  53.226 -53.985  1.00  0.00     0.009 A 
ENDBRANCH  12  13
ENDBRANCH   1  12
BRANCH   3  19
HETATM   19  C   UNL     1     -43.687  57.158 -55.425  1.00  0.00     0.042 A 
HETATM   20  C   UNL     1     -42.940  57.229 -56.602  1.00  0.00     0.087 A 
HETATM   21  C   UNL     1     -43.494  57.835 -57.717  1.00  0.00     0.171 A 
HETATM   22  N   UNL     1     -44.727  58.376 -57.727  1.00  0.00    -0.237 NA
HETATM   23  C   UNL     1     -45.430  58.298 -56.574  1.00  0.00     0.122 A 
HETATM   24  C   UNL     1     -44.961  57.705 -55.408  1.00  0.00     0.049 A 
BRANCH  21  25
HETATM   25  O   UNL     1     -42.675  57.833 -58.842  1.00  0.00    -0.292 OA
BRANCH  25  26
HETATM   26  C   UNL     1     -42.178  59.024 -59.300  1.00  0.00     0.077 A 
HETATM   27  C   UNL     1     -41.781  60.045 -58.439  1.00  0.00     0.037 A 
HETATM   28  C   UNL     1     -41.402  61.282 -58.962  1.00  0.00     0.003 A 
HETATM   29  C   UNL     1     -41.442  61.502 -60.341  1.00  0.00     0.000 A 
HETATM   30  C   UNL     1     -41.861  60.485 -61.199  1.00  0.00     0.003 A 
HETATM   31  C   UNL     1     -42.238  59.248 -60.677  1.00  0.00     0.037 A 
ENDBRANCH  25  26
ENDBRANCH  21  25
ENDBRANCH   3  19
TORSDOF 8
ENDMDL
MODEL 9
REMARK VINA RESULT:      -7.1      2.410      4.240
REMARK  8 active torsions:
REMARK  status: ('A' for Active; 'I' for Inactive)
REMARK    1  A    between atoms: N_2  and  C_4 
REMARK    2  A    between atoms: C_4  and  C_5 
REMARK    3  A    between atoms: C_5  and  N_6 
REMARK       I    between atoms: N_6  and  C_7 
REMARK    4  A    between atoms: N_6  and  C_23 
REMARK       I    between atoms: C_7  and  N_8 
REMARK    5  A    between atoms: N_8  and  C_9 
REMARK    6  A    between atoms: C_11  and  O_12 
REMARK    7  A    between atoms: O_12  and  C_13 
REMARK    8  A    between atoms: C_23  and  C_24 
ROOT
HETATM    1  N   UNL     1     -43.395  58.819 -57.812  1.00  0.00    -0.328 N 
HETATM    2  C   UNL     1     -43.396  58.568 -56.435  1.00  0.00     0.323 C 
HETATM    3  N   UNL     1     -42.416  57.698 -56.024  1.00  0.00    -0.309 N 
HETATM    4  O   UNL     1     -44.201  59.145 -55.709  1.00  0.00    -0.247 OA
HETATM    5  H   UNL     1     -41.741  57.426 -56.722  1.00  0.00     0.170 HD
ENDROOT
BRANCH   1   6
HETATM    6  C   UNL     1     -44.170  59.957 -58.294  1.00  0.00     0.155 C 
BRANCH   6   7
HETATM    7  C   UNL     1     -43.416  60.804 -59.331  1.00  0.00     0.254 C 
BRANCH   7   8
HETATM    8  N   UNL     1     -42.610  61.910 -58.660  1.00  0.00    -0.077 N 
HETATM    9  C   UNL     1     -41.169  61.527 -58.437  1.00  0.00     0.269 C 
HETATM   10  H   UNL     1     -42.612  62.729 -59.283  1.00  0.00     0.279 HD
HETATM   11  C   UNL     1     -43.253  62.363 -57.376  1.00  0.00     0.269 C 
ENDBRANCH   7   8
ENDBRANCH   6   7
ENDBRANCH   1   6
BRANCH   1  12
HETATM   12  C   UNL     1     -42.749  57.965 -58.816  1.00  0.00     0.166 C 
BRANCH  12  13
HETATM   13  C   UNL     1     -43.602  56.821 -59.313  1.00  0.00    -0.040 A 
HETATM   14  C   UNL     1     -44.585  56.982 -60.303  1.00  0.00     0.009 A 
HETATM   15  C   UNL     1     -45.305  55.884 -60.774  1.00  0.00     0.001 A 
HETATM   16  C   UNL     1     -45.068  54.616 -60.252  1.00  0.00     0.000 A 
HETATM   17  C   UNL     1     -44.115  54.444 -59.251  1.00  0.00     0.001 A 
HETATM   18  C   UNL     1     -43.389  55.540 -58.781  1.00  0.00     0.009 A 
ENDBRANCH  12  13
ENDBRANCH   1  12
BRANCH   3  19
HETATM   19  C   UNL     1     -42.037  57.341 -54.715  1.00  0.00     0.042 A 
HETATM   20  C   UNL     1     -42.319  56.028 -54.332  1.00  0.00     0.087 A 
HETATM   21  C   UNL     1     -41.949  55.600 -53.068  1.00  0.00     0.171 A 
HETATM   22  N   UNL     1     -41.330  56.393 -52.172  1.00  0.00    -0.237 NA
HETATM   23  C   UNL     1     -41.071  57.661 -52.564  1.00  0.00     0.122 A 
HETATM   24  C   UNL     1     -41.398  58.178 -53.812  1.00  0.00     0.049 A 
BRANCH  21  25
HETATM   25  O   UNL     1     -42.257  54.270 -52.795  1.00  0.00    -0.292 OA
BRANCH  25  26
HETATM   26  C   UNL     1     -41.294  53.316 -52.990  1.00  0.00     0.077 A 
HETATM   27  C   UNL     1     -41.200  52.584 -54.172  1.00  0.00     0.037 A 
HETATM   28  C   UNL     1     -40.280  51.538 -54.266  1.00  0.00     0.003 A 
HETATM   29  C   UNL     1     -39.474  51.214 -53.173  1.00  0.00     0.000 A 
HETATM   30  C   UNL     1     -39.585  51.934 -51.983  1.00  0.00     0.003 A 
HETATM   31  C   UNL     1     -40.503  52.981 -51.889  1.00  0.00     0.037 A 
ENDBRANCH  25  26
ENDBRANCH  21  25
ENDBRANCH   3  19
TORSDOF 8
ENDMDL
MODEL 10
REMARK VINA RESULT:      -6.9      2.293      8.794
REMARK  8 active torsions:
REMARK  status: ('A' for Active; 'I' for Inactive)
REMARK    1  A    between atoms: N_2  and  C_4 
REMARK    2  A    between atoms: C_4  and  C_5 
REMARK    3  A    between atoms: C_5  and  N_6 
REMARK       I    between atoms: N_6  and  C_7 
REMARK    4  A    between atoms: N_6  and  C_23 
REMARK       I    between atoms: C_7  and  N_8 
REMARK    5  A    between atoms: N_8  and  C_9 
REMARK    6  A    between atoms: C_11  and  O_12 
REMARK    7  A    between atoms: O_12  and  C_13 
REMARK    8  A    between atoms: C_23  and  C_24 
ROOT
HETATM    1  N   UNL     1     -42.723  55.958 -54.386  1.00  0.00    -0.328 N 
HETATM    2  C   UNL     1     -42.586  56.343 -55.725  1.00  0.00     0.323 C 
HETATM    3  N   UNL     1     -43.201  55.498 -56.616  1.00  0.00    -0.309 N 
HETATM    4  O   UNL     1     -41.996  57.383 -56.003  1.00  0.00    -0.247 OA
HETATM    5  H   UNL     1     -43.771  54.768 -56.217  1.00  0.00     0.170 HD
ENDROOT
BRANCH   1   6
HETATM    6  C   UNL     1     -42.394  56.942 -53.360  1.00  0.00     0.155 C 
BRANCH   6   7
HETATM    7  C   UNL     1     -43.287  56.834 -52.113  1.00  0.00     0.254 C 
BRANCH   7   8
HETATM    8  N   UNL     1     -42.658  57.547 -50.922  1.00  0.00    -0.077 N 
HETATM    9  C   UNL     1     -42.317  58.985 -51.218  1.00  0.00     0.269 C 
HETATM   10  H   UNL     1     -43.345  57.551 -50.155  1.00  0.00     0.279 HD
HETATM   11  C   UNL     1     -41.458  56.803 -50.400  1.00  0.00     0.269 C 
ENDBRANCH   7   8
ENDBRANCH   6   7
ENDBRANCH   1   6
BRANCH   1  12
HETATM   12  C   UNL     1     -43.082  54.606 -53.939  1.00  0.00     0.166 C 
BRANCH  12  13
HETATM   13  C   UNL     1     -41.906  53.737 -53.557  1.00  0.00    -0.040 A 
HETATM   14  C   UNL     1     -41.407  53.669 -52.246  1.00  0.00     0.009 A 
HETATM   15  C   UNL     1     -40.358  52.804 -51.929  1.00  0.00     0.001 A 
HETATM   16  C   UNL     1     -39.784  52.011 -52.918  1.00  0.00     0.000 A 
HETATM   17  C   UNL     1     -40.250  52.087 -54.227  1.00  0.00     0.001 A 
HETATM   18  C   UNL     1     -41.302  52.947 -54.546  1.00  0.00     0.009 A 
ENDBRANCH  12  13
ENDBRANCH   1  12
BRANCH   3  19
HETATM   19  C   UNL     1     -43.388  55.654 -58.004  1.00  0.00     0.042 A 
HETATM   20  C   UNL     1     -42.701  56.713 -58.599  1.00  0.00     0.087 A 
HETATM   21  C   UNL     1     -42.817  56.908 -59.966  1.00  0.00     0.171 A 
HETATM   22  N   UNL     1     -43.572  56.127 -60.762  1.00  0.00    -0.237 NA
HETATM   23  C   UNL     1     -44.231  55.110 -60.161  1.00  0.00     0.122 A 
HETATM   24  C   UNL     1     -44.171  54.832 -58.800  1.00  0.00     0.049 A 
BRANCH  21  25
HETATM   25  O   UNL     1     -42.076  57.977 -60.462  1.00  0.00    -0.292 OA
BRANCH  25  26
HETATM   26  C   UNL     1     -42.525  59.251 -60.241  1.00  0.00     0.077 A 
HETATM   27  C   UNL     1     -41.917  60.106 -59.323  1.00  0.00     0.037 A 
HETATM   28  C   UNL     1     -42.494  61.347 -59.047  1.00  0.00     0.003 A 
HETATM   29  C   UNL     1     -43.685  61.720 -59.672  1.00  0.00     0.000 A 
HETATM   30  C   UNL     1     -44.303  60.854 -60.574  1.00  0.00     0.003 A 
HETATM   31  C   UNL     1     -43.727  59.615 -60.852  1.00  0.00     0.037 A 
ENDBRANCH  25  26
ENDBRANCH  21  25
ENDBRANCH   3  19
TORSDOF 8
ENDMDL
