MODEL 1
REMARK VINA RESULT:      -8.3      0.000      0.000
REMARK  9 active torsions:
REMARK  status: ('A' for Active; 'I' for Inactive)
REMARK    1  A    between atoms: C_2  and  C_3 
REMARK    2  A    between atoms: C_4  and  N_5 
REMARK    3  A    between atoms: C_6  and  S_7 
REMARK    4  A    between atoms: S_7  and  C_8 
REMARK    5  A    between atoms: C_8  and  C_9 
REMARK       I    between atoms: C_9  and  N_10 
REMARK    6  A    between atoms: N_10  and  C_11 
REMARK    7  A    between atoms: C_12  and  O_13 
REMARK    8  A    between atoms: C_16  and  O_17 
REMARK    9  A    between atoms: C_26  and  N_27 
ROOT
HETATM    1  N   UNL     1     -43.398  58.080 -58.551  1.00  0.00    -0.275 N 
HETATM    2  C   UNL     1     -43.048  58.171 -57.178  1.00  0.00     0.177 A 
HETATM    3  N   UNL     1     -42.305  59.107 -56.637  1.00  0.00    -0.204 NA
HETATM    4  C   UNL     1     -41.939  60.080 -57.503  1.00  0.00     0.162 A 
HETATM    5  C   UNL     1     -42.189  60.184 -58.845  1.00  0.00     0.081 A 
HETATM    6  C   UNL     1     -42.918  59.113 -59.455  1.00  0.00     0.124 A 
HETATM    7  N   UNL     1     -41.291  61.235 -57.172  1.00  0.00    -0.260 N 
HETATM    8  H   UNL     1     -40.982  61.538 -56.255  1.00  0.00     0.191 HD
HETATM    9  N   UNL     1     -41.088  62.049 -58.230  1.00  0.00    -0.177 NA
HETATM   10  C   UNL     1     -41.668  61.417 -59.262  1.00  0.00     0.068 A 
HETATM   11  C   UNL     1     -41.704  62.070 -60.591  1.00  0.00     0.073 C 
ENDROOT
BRANCH   2  12
HETATM   12  S   UNL     1     -43.698  56.974 -56.040  1.00  0.00    -0.082 SA
BRANCH  12  13
HETATM   13  C   UNL     1     -42.395  56.916 -54.788  1.00  0.00     0.185 C 
BRANCH  13  14
HETATM   14  C   UNL     1     -42.305  55.541 -54.143  1.00  0.00     0.232 C 
HETATM   15  N   UNL     1     -41.002  55.145 -53.890  1.00  0.00    -0.324 N 
HETATM   16  H   UNL     1     -40.277  55.718 -54.305  1.00  0.00     0.169 HD
HETATM   17  O   UNL     1     -43.315  54.858 -53.985  1.00  0.00    -0.272 OA
BRANCH  15  18
HETATM   18  C   UNL     1     -40.591  53.937 -53.284  1.00  0.00     0.070 A 
HETATM   19  C   UNL     1     -40.442  53.753 -51.897  1.00  0.00     0.097 A 
HETATM   20  C   UNL     1     -40.093  52.485 -51.402  1.00  0.00     0.077 A 
HETATM   21  C   UNL     1     -39.864  51.414 -52.274  1.00  0.00     0.092 A 
HETATM   22  C   UNL     1     -39.925  51.635 -53.654  1.00  0.00     0.069 A 
HETATM   23 CL   UNL     1     -39.588  50.374 -54.787  1.00  0.00    -0.081 Cl
HETATM   24  C   UNL     1     -40.282  52.887 -54.155  1.00  0.00     0.059 A 
BRANCH  19  25
HETATM   25  O   UNL     1     -40.492  54.872 -51.109  1.00  0.00    -0.354 OA
HETATM   26  C   UNL     1     -41.663  55.081 -50.331  1.00  0.00     0.210 C 
ENDBRANCH  19  25
BRANCH  21  27
HETATM   27  O   UNL     1     -39.504  50.162 -51.848  1.00  0.00    -0.354 OA
HETATM   28  C   UNL     1     -39.840  49.845 -50.500  1.00  0.00     0.210 C 
ENDBRANCH  21  27
ENDBRANCH  15  18
ENDBRANCH  13  14
ENDBRANCH  12  13
ENDBRANCH   2  12
BRANCH   1  29
HETATM   29  C   UNL     1     -44.117  56.959 -59.069  1.00  0.00     0.049 A 
HETATM   30  C   UNL     1     -45.496  57.039 -59.366  1.00  0.00    -0.031 A 
HETATM   31  C   UNL     1     -46.122  55.934 -59.971  1.00  0.00     0.009 A 
HETATM   32  C   UNL     1     -45.407  54.772 -60.266  1.00  0.00     0.001 A 
HETATM   33  C   UNL     1     -44.052  54.694 -59.966  1.00  0.00     0.002 A 
HETATM   34  C   UNL     1     -43.408  55.782 -59.379  1.00  0.00     0.031 A 
BRANCH  30  35
HETATM   35  C   UNL     1     -46.339  58.254 -59.041  1.00  0.00     0.036 C 
HETATM   36  C   UNL     1     -47.048  58.139 -57.699  1.00  0.00     0.010 C 
ENDBRANCH  30  35
ENDBRANCH   1  29
BRANCH   6  37
HETATM   37  N   UNL     1     -43.107  59.067 -60.759  1.00  0.00    -0.384 N 
HETATM   38  H   UNL     1     -43.922  59.471 -61.197  1.00  0.00     0.157 HD
HETATM   39  H   UNL     1     -42.407  58.636 -61.352  1.00  0.00     0.157 HD
ENDBRANCH   6  37
TORSDOF 9
ENDMDL
MODEL 2
REMARK VINA RESULT:      -8.0      3.772      9.434
REMARK  9 active torsions:
REMARK  status: ('A' for Active; 'I' for Inactive)
REMARK    1  A    between atoms: C_2  and  C_3 
REMARK    2  A    between atoms: C_4  and  N_5 
REMARK    3  A    between atoms: C_6  and  S_7 
REMARK    4  A    between atoms: S_7  and  C_8 
REMARK    5  A    between atoms: C_8  and  C_9 
REMARK       I    between atoms: C_9  and  N_10 
REMARK    6  A    between atoms: N_10  and  C_11 
REMARK    7  A    between atoms: C_12  and  O_13 
REMARK    8  A    between atoms: C_16  and  O_17 
REMARK    9  A    between atoms: C_26  and  N_27 
ROOT
HETATM    1  N   UNL     1     -42.645  56.043 -51.988  1.00  0.00    -0.275 N 
HETATM    2  C   UNL     1     -42.741  55.042 -52.992  1.00  0.00     0.177 A 
HETATM    3  N   UNL     1     -42.115  53.889 -52.987  1.00  0.00    -0.204 NA
HETATM    4  C   UNL     1     -41.396  53.665 -51.863  1.00  0.00     0.162 A 
HETATM    5  C   UNL     1     -41.196  54.485 -50.785  1.00  0.00     0.081 A 
HETATM    6  C   UNL     1     -41.800  55.782 -50.834  1.00  0.00     0.124 A 
HETATM    7  N   UNL     1     -40.771  52.495 -51.541  1.00  0.00    -0.260 N 
HETATM    8  H   UNL     1     -40.739  51.635 -52.076  1.00  0.00     0.191 HD
HETATM    9  N   UNL     1     -40.161  52.537 -50.336  1.00  0.00    -0.177 NA
HETATM   10  C   UNL     1     -40.446  53.755 -49.852  1.00  0.00     0.068 A 
HETATM   11  C   UNL     1     -39.992  54.124 -48.491  1.00  0.00     0.073 C 
ENDROOT
BRANCH   2  12
HETATM   12  S   UNL     1     -43.837  55.298 -54.364  1.00  0.00    -0.082 SA
BRANCH  12  13
HETATM   13  C   UNL     1     -42.670  55.504 -55.729  1.00  0.00     0.185 C 
BRANCH  13  14
HETATM   14  C   UNL     1     -43.005  56.730 -56.566  1.00  0.00     0.232 C 
HETATM   15  N   UNL     1     -42.040  57.015 -57.519  1.00  0.00    -0.324 N 
HETATM   16  H   UNL     1     -41.173  56.499 -57.439  1.00  0.00     0.169 HD
HETATM   17  O   UNL     1     -43.992  57.414 -56.305  1.00  0.00    -0.272 OA
BRANCH  15  18
HETATM   18  C   UNL     1     -42.070  58.070 -58.458  1.00  0.00     0.070 A 
HETATM   19  C   UNL     1     -42.434  57.924 -59.809  1.00  0.00     0.097 A 
HETATM   20  C   UNL     1     -42.493  59.059 -60.635  1.00  0.00     0.077 A 
HETATM   21  C   UNL     1     -42.166  60.325 -60.137  1.00  0.00     0.092 A 
HETATM   22  C   UNL     1     -41.717  60.442 -58.818  1.00  0.00     0.069 A 
HETATM   23 CL   UNL     1     -41.233  61.966 -58.158  1.00  0.00    -0.081 Cl
HETATM   24  C   UNL     1     -41.665  59.324 -57.985  1.00  0.00     0.059 A 
BRANCH  19  25
HETATM   25  O   UNL     1     -42.559  56.647 -60.288  1.00  0.00    -0.354 OA
HETATM   26  C   UNL     1     -43.865  56.092 -60.358  1.00  0.00     0.210 C 
ENDBRANCH  19  25
BRANCH  21  27
HETATM   27  O   UNL     1     -42.189  61.463 -60.902  1.00  0.00    -0.354 OA
HETATM   28  C   UNL     1     -42.333  61.263 -62.305  1.00  0.00     0.210 C 
ENDBRANCH  21  27
ENDBRANCH  15  18
ENDBRANCH  13  14
ENDBRANCH  12  13
ENDBRANCH   2  12
BRANCH   1  29
HETATM   29  C   UNL     1     -43.275  57.317 -52.137  1.00  0.00     0.049 A 
HETATM   30  C   UNL     1     -42.700  58.337 -52.929  1.00  0.00    -0.031 A 
HETATM   31  C   UNL     1     -43.420  59.530 -53.120  1.00  0.00     0.009 A 
HETATM   32  C   UNL     1     -44.673  59.718 -52.535  1.00  0.00     0.001 A 
HETATM   33  C   UNL     1     -45.233  58.715 -51.751  1.00  0.00     0.002 A 
HETATM   34  C   UNL     1     -44.543  57.519 -51.560  1.00  0.00     0.031 A 
BRANCH  30  35
HETATM   35  C   UNL     1     -41.330  58.213 -53.563  1.00  0.00     0.036 C 
HETATM   36  C   UNL     1     -40.221  58.772 -52.684  1.00  0.00     0.010 C 
ENDBRANCH  30  35
ENDBRANCH   1  29
BRANCH   6  37
HETATM   37  N   UNL     1     -41.570  56.682 -49.898  1.00  0.00    -0.384 N 
HETATM   38  H   UNL     1     -40.635  56.963 -49.641  1.00  0.00     0.157 HD
HETATM   39  H   UNL     1     -42.352  57.128 -49.431  1.00  0.00     0.157 HD
ENDBRANCH   6  37
TORSDOF 9
ENDMDL
MODEL 3
REMARK VINA RESULT:      -7.9      1.929      2.566
REMARK  9 active torsions:
REMARK  status: ('A' for Active; 'I' for Inactive)
REMARK    1  A    between atoms: C_2  and  C_3 
REMARK    2  A    between atoms: C_4  and  N_5 
REMARK    3  A    between atoms: C_6  and  S_7 
REMARK    4  A    between atoms: S_7  and  C_8 
REMARK    5  A    between atoms: C_8  and  C_9 
REMARK       I    between atoms: C_9  and  N_10 
REMARK    6  A    between atoms: N_10  and  C_11 
REMARK    7  A    between atoms: C_12  and  O_13 
REMARK    8  A    between atoms: C_16  and  O_17 
REMARK    9  A    between atoms: C_26  and  N_27 
ROOT
HETATM    1  N   UNL     1     -42.305  59.633 -59.126  1.00  0.00    -0.275 N 
HETATM    2  C   UNL     1     -42.107  60.058 -57.785  1.00  0.00     0.177 A 
HETATM    3  N   UNL     1     -41.409  61.103 -57.408  1.00  0.00    -0.204 NA
HETATM    4  C   UNL     1     -40.931  61.839 -58.438  1.00  0.00     0.162 A 
HETATM    5  C   UNL     1     -41.030  61.612 -59.784  1.00  0.00     0.081 A 
HETATM    6  C   UNL     1     -41.708  60.419 -60.194  1.00  0.00     0.124 A 
HETATM    7  N   UNL     1     -40.300  63.044 -58.326  1.00  0.00    -0.260 N 
HETATM    8  H   UNL     1     -40.088  63.563 -57.481  1.00  0.00     0.191 HD
HETATM    9  N   UNL     1     -39.966  63.578 -59.521  1.00  0.00    -0.177 NA
HETATM   10  C   UNL     1     -40.442  62.710 -60.427  1.00  0.00     0.068 A 
HETATM   11  C   UNL     1     -40.319  63.020 -61.870  1.00  0.00     0.073 C 
ENDROOT
BRANCH   2  12
HETATM   12  S   UNL     1     -42.901  59.169 -56.471  1.00  0.00    -0.082 SA
BRANCH  12  13
HETATM   13  C   UNL     1     -42.127  59.905 -55.012  1.00  0.00     0.185 C 
BRANCH  13  14
HETATM   14  C   UNL     1     -41.405  58.857 -54.178  1.00  0.00     0.232 C 
HETATM   15  N   UNL     1     -42.111  57.668 -54.073  1.00  0.00    -0.324 N 
HETATM   16  H   UNL     1     -43.067  57.690 -54.405  1.00  0.00     0.169 HD
HETATM   17  O   UNL     1     -40.358  59.132 -53.597  1.00  0.00    -0.272 OA
BRANCH  15  18
HETATM   18  C   UNL     1     -41.702  56.504 -53.385  1.00  0.00     0.070 A 
HETATM   19  C   UNL     1     -41.820  56.317 -51.996  1.00  0.00     0.097 A 
HETATM   20  C   UNL     1     -41.442  55.088 -51.430  1.00  0.00     0.077 A 
HETATM   21  C   UNL     1     -40.924  54.061 -52.227  1.00  0.00     0.092 A 
HETATM   22  C   UNL     1     -40.725  54.294 -53.592  1.00  0.00     0.069 A 
HETATM   23 CL   UNL     1     -40.028  53.094 -54.622  1.00  0.00    -0.081 Cl
HETATM   24  C   UNL     1     -41.108  55.506 -54.166  1.00  0.00     0.059 A 
BRANCH  19  25
HETATM   25  O   UNL     1     -42.154  57.412 -51.244  1.00  0.00    -0.354 OA
HETATM   26  C   UNL     1     -41.134  58.010 -50.456  1.00  0.00     0.210 C 
ENDBRANCH  19  25
BRANCH  21  27
HETATM   27  O   UNL     1     -40.523  52.850 -51.726  1.00  0.00    -0.354 OA
HETATM   28  C   UNL     1     -40.242  52.819 -50.330  1.00  0.00     0.210 C 
ENDBRANCH  21  27
ENDBRANCH  15  18
ENDBRANCH  13  14
ENDBRANCH  12  13
ENDBRANCH   2  12
BRANCH   1  29
HETATM   29  C   UNL     1     -42.985  58.414 -59.433  1.00  0.00     0.049 A 
HETATM   30  C   UNL     1     -44.345  58.403 -59.817  1.00  0.00    -0.031 A 
HETATM   31  C   UNL     1     -44.927  57.184 -60.208  1.00  0.00     0.009 A 
HETATM   32  C   UNL     1     -44.189  56.000 -60.209  1.00  0.00     0.001 A 
HETATM   33  C   UNL     1     -42.853  56.012 -59.824  1.00  0.00     0.002 A 
HETATM   34  C   UNL     1     -42.252  57.212 -59.446  1.00  0.00     0.031 A 
BRANCH  30  35
HETATM   35  C   UNL     1     -45.213  59.644 -59.805  1.00  0.00     0.036 C 
HETATM   36  C   UNL     1     -46.100  59.732 -58.571  1.00  0.00     0.010 C 
ENDBRANCH  30  35
ENDBRANCH   1  29
BRANCH   6  37
HETATM   37  N   UNL     1     -41.754  60.056 -61.461  1.00  0.00    -0.384 N 
HETATM   38  H   UNL     1     -42.315  60.550 -62.140  1.00  0.00     0.157 HD
HETATM   39  H   UNL     1     -41.195  59.273 -61.777  1.00  0.00     0.157 HD
ENDBRANCH   6  37
TORSDOF 9
ENDMDL
MODEL 4
REMARK VINA RESULT:      -7.6      3.772      5.515
REMARK  9 active torsions:
REMARK  status: ('A' for Active; 'I' for Inactive)
REMARK    1  A    between atoms: C_2  and  C_3 
REMARK    2  A    between atoms: C_4  and  N_5 
REMARK    3  A    between atoms: C_6  and  S_7 
REMARK    4  A    between atoms: S_7  and  C_8 
REMARK    5  A    between atoms: C_8  and  C_9 
REMARK       I    between atoms: C_9  and  N_10 
REMARK    6  A    between atoms: N_10  and  C_11 
REMARK    7  A    between atoms: C_12  and  O_13 
REMARK    8  A    between atoms: C_16  and  O_17 
REMARK    9  A    between atoms: C_26  and  N_27 
ROOT
HETATM    1  N   UNL     1     -43.266  60.022 -53.371  1.00  0.00    -0.275 N 
HETATM    2  C   UNL     1     -44.299  59.054 -53.494  1.00  0.00     0.177 A 
HETATM    3  N   UNL     1     -45.369  59.167 -54.244  1.00  0.00    -0.204 NA
HETATM    4  C   UNL     1     -45.390  60.289 -54.999  1.00  0.00     0.162 A 
HETATM    5  C   UNL     1     -44.492  61.323 -55.040  1.00  0.00     0.081 A 
HETATM    6  C   UNL     1     -43.372  61.246 -54.150  1.00  0.00     0.124 A 
HETATM    7  N   UNL     1     -46.310  60.580 -55.964  1.00  0.00    -0.260 N 
HETATM    8  H   UNL     1     -47.104  60.024 -56.258  1.00  0.00     0.191 HD
HETATM    9  N   UNL     1     -46.064  61.751 -56.592  1.00  0.00    -0.177 NA
HETATM   10  C   UNL     1     -44.924  62.199 -56.044  1.00  0.00     0.068 A 
HETATM   11  C   UNL     1     -44.309  63.446 -56.556  1.00  0.00     0.073 C 
ENDROOT
BRANCH   2  12
HETATM   12  S   UNL     1     -44.146  57.514 -52.626  1.00  0.00    -0.082 SA
BRANCH  12  13
HETATM   13  C   UNL     1     -43.191  56.526 -53.800  1.00  0.00     0.185 C 
BRANCH  13  14
HETATM   14  C   UNL     1     -42.833  55.166 -53.221  1.00  0.00     0.232 C 
HETATM   15  N   UNL     1     -41.479  54.882 -53.300  1.00  0.00    -0.324 N 
HETATM   16  H   UNL     1     -40.927  55.512 -53.868  1.00  0.00     0.169 HD
HETATM   17  O   UNL     1     -43.714  54.400 -52.834  1.00  0.00    -0.272 OA
BRANCH  15  18
HETATM   18  C   UNL     1     -40.835  53.714 -52.834  1.00  0.00     0.070 A 
HETATM   19  C   UNL     1     -40.444  53.499 -51.499  1.00  0.00     0.097 A 
HETATM   20  C   UNL     1     -39.871  52.269 -51.137  1.00  0.00     0.077 A 
HETATM   21  C   UNL     1     -39.659  51.268 -52.092  1.00  0.00     0.092 A 
HETATM   22  C   UNL     1     -39.967  51.530 -53.431  1.00  0.00     0.069 A 
HETATM   23 CL   UNL     1     -39.668  50.365 -54.672  1.00  0.00    -0.081 Cl
HETATM   24  C   UNL     1     -40.547  52.744 -53.800  1.00  0.00     0.059 A 
BRANCH  19  25
HETATM   25  O   UNL     1     -40.501  54.574 -50.651  1.00  0.00    -0.354 OA
HETATM   26  C   UNL     1     -41.462  54.541 -49.605  1.00  0.00     0.210 C 
ENDBRANCH  19  25
BRANCH  21  27
HETATM   27  O   UNL     1     -39.088  50.057 -51.798  1.00  0.00    -0.354 OA
HETATM   28  C   UNL     1     -39.535  49.437 -50.596  1.00  0.00     0.210 C 
ENDBRANCH  21  27
ENDBRANCH  15  18
ENDBRANCH  13  14
ENDBRANCH  12  13
ENDBRANCH   2  12
BRANCH   1  29
HETATM   29  C   UNL     1     -42.195  59.861 -52.439  1.00  0.00     0.049 A 
HETATM   30  C   UNL     1     -42.332  60.235 -51.084  1.00  0.00    -0.031 A 
HETATM   31  C   UNL     1     -41.279  59.954 -50.195  1.00  0.00     0.009 A 
HETATM   32  C   UNL     1     -40.111  59.329 -50.636  1.00  0.00     0.001 A 
HETATM   33  C   UNL     1     -39.976  58.968 -51.971  1.00  0.00     0.002 A 
HETATM   34  C   UNL     1     -41.014  59.224 -52.867  1.00  0.00     0.031 A 
BRANCH  30  35
HETATM   35  C   UNL     1     -43.556  60.947 -50.547  1.00  0.00     0.036 C 
HETATM   36  C   UNL     1     -43.339  62.444 -50.375  1.00  0.00     0.010 C 
ENDBRANCH  30  35
ENDBRANCH   1  29
BRANCH   6  37
HETATM   37  N   UNL     1     -42.518  62.243 -54.035  1.00  0.00    -0.384 N 
HETATM   38  H   UNL     1     -41.905  62.336 -53.237  1.00  0.00     0.157 HD
HETATM   39  H   UNL     1     -42.449  62.931 -54.776  1.00  0.00     0.157 HD
ENDBRANCH   6  37
TORSDOF 9
ENDMDL
MODEL 5
REMARK VINA RESULT:      -7.6      1.516      2.296
REMARK  9 active torsions:
REMARK  status: ('A' for Active; 'I' for Inactive)
REMARK    1  A    between atoms: C_2  and  C_3 
REMARK    2  A    between atoms: C_4  and  N_5 
REMARK    3  A    between atoms: C_6  and  S_7 
REMARK    4  A    between atoms: S_7  and  C_8 
REMARK    5  A    between atoms: C_8  and  C_9 
REMARK       I    between atoms: C_9  and  N_10 
REMARK    6  A    between atoms: N_10  and  C_11 
REMARK    7  A    between atoms: C_12  and  O_13 
REMARK    8  A    between atoms: C_16  and  O_17 
REMARK    9  A    between atoms: C_26  and  N_27 
ROOT
HETATM    1  N   UNL     1     -43.920  59.053 -58.889  1.00  0.00    -0.275 N 
HETATM    2  C   UNL     1     -43.857  59.297 -57.491  1.00  0.00     0.177 A 
HETATM    3  N   UNL     1     -43.024  60.116 -56.893  1.00  0.00    -0.204 NA
HETATM    4  C   UNL     1     -42.240  60.814 -57.746  1.00  0.00     0.162 A 
HETATM    5  C   UNL     1     -42.164  60.740 -59.111  1.00  0.00     0.081 A 
HETATM    6  C   UNL     1     -43.004  59.776 -59.757  1.00  0.00     0.124 A 
HETATM    7  N   UNL     1     -41.395  61.828 -57.398  1.00  0.00    -0.260 N 
HETATM    8  H   UNL     1     -41.218  62.205 -56.474  1.00  0.00     0.191 HD
HETATM    9  N   UNL     1     -40.766  62.378 -58.459  1.00  0.00    -0.177 NA
HETATM   10  C   UNL     1     -41.261  61.729 -59.524  1.00  0.00     0.068 A 
HETATM   11  C   UNL     1     -40.841  62.134 -60.886  1.00  0.00     0.073 C 
ENDROOT
BRANCH   2  12
HETATM   12  S   UNL     1     -45.025  58.497 -56.421  1.00  0.00    -0.082 SA
BRANCH  12  13
HETATM   13  C   UNL     1     -44.211  58.649 -54.814  1.00  0.00     0.185 C 
BRANCH  13  14
HETATM   14  C   UNL     1     -43.830  57.288 -54.252  1.00  0.00     0.232 C 
HETATM   15  N   UNL     1     -42.532  57.245 -53.769  1.00  0.00    -0.324 N 
HETATM   16  H   UNL     1     -41.950  58.043 -53.992  1.00  0.00     0.169 HD
HETATM   17  O   UNL     1     -44.602  56.335 -54.344  1.00  0.00    -0.272 OA
BRANCH  15  18
HETATM   18  C   UNL     1     -41.892  56.137 -53.171  1.00  0.00     0.070 A 
HETATM   19  C   UNL     1     -41.770  55.942 -51.782  1.00  0.00     0.097 A 
HETATM   20  C   UNL     1     -41.172  54.766 -51.300  1.00  0.00     0.077 A 
HETATM   21  C   UNL     1     -40.671  53.802 -52.184  1.00  0.00     0.092 A 
HETATM   22  C   UNL     1     -40.717  54.052 -53.559  1.00  0.00     0.069 A 
HETATM   23 CL   UNL     1     -40.057  52.936 -54.703  1.00  0.00    -0.081 Cl
HETATM   24  C   UNL     1     -41.319  55.211 -54.049  1.00  0.00     0.059 A 
BRANCH  19  25
HETATM   25  O   UNL     1     -42.103  56.995 -50.972  1.00  0.00    -0.354 OA
HETATM   26  C   UNL     1     -41.075  57.907 -50.616  1.00  0.00     0.210 C 
ENDBRANCH  19  25
BRANCH  21  27
HETATM   27  O   UNL     1     -40.063  52.646 -51.769  1.00  0.00    -0.354 OA
HETATM   28  C   UNL     1     -40.309  52.266 -50.418  1.00  0.00     0.210 C 
ENDBRANCH  21  27
ENDBRANCH  15  18
ENDBRANCH  13  14
ENDBRANCH  12  13
ENDBRANCH   2  12
BRANCH   1  29
HETATM   29  C   UNL     1     -44.784  58.056 -59.438  1.00  0.00     0.049 A 
HETATM   30  C   UNL     1     -44.411  56.693 -59.473  1.00  0.00    -0.031 A 
HETATM   31  C   UNL     1     -45.347  55.748 -59.929  1.00  0.00     0.009 A 
HETATM   32  C   UNL     1     -46.618  56.138 -60.351  1.00  0.00     0.001 A 
HETATM   33  C   UNL     1     -46.980  57.480 -60.322  1.00  0.00     0.002 A 
HETATM   34  C   UNL     1     -46.073  58.433 -59.860  1.00  0.00     0.031 A 
BRANCH  30  35
HETATM   35  C   UNL     1     -43.037  56.206 -59.063  1.00  0.00     0.036 C 
HETATM   36  C   UNL     1     -43.000  55.678 -57.635  1.00  0.00     0.010 C 
ENDBRANCH  30  35
ENDBRANCH   1  29
BRANCH   6  37
HETATM   37  N   UNL     1     -42.920  59.552 -61.053  1.00  0.00    -0.384 N 
HETATM   38  H   UNL     1     -43.604  59.906 -61.705  1.00  0.00     0.157 HD
HETATM   39  H   UNL     1     -42.134  59.027 -61.420  1.00  0.00     0.157 HD
ENDBRANCH   6  37
TORSDOF 9
ENDMDL
MODEL 6
REMARK VINA RESULT:      -7.6      2.139      3.429
REMARK  9 active torsions:
REMARK  status: ('A' for Active; 'I' for Inactive)
REMARK    1  A    between atoms: C_2  and  C_3 
REMARK    2  A    between atoms: C_4  and  N_5 
REMARK    3  A    between atoms: C_6  and  S_7 
REMARK    4  A    between atoms: S_7  and  C_8 
REMARK    5  A    between atoms: C_8  and  C_9 
REMARK       I    between atoms: C_9  and  N_10 
REMARK    6  A    between atoms: N_10  and  C_11 
REMARK    7  A    between atoms: C_12  and  O_13 
REMARK    8  A    between atoms: C_16  and  O_17 
REMARK    9  A    between atoms: C_26  and  N_27 
ROOT
HETATM    1  N   UNL     1     -43.208  59.981 -58.748  1.00  0.00    -0.275 N 
HETATM    2  C   UNL     1     -42.521  60.098 -57.510  1.00  0.00     0.177 A 
HETATM    3  N   UNL     1     -41.410  60.767 -57.310  1.00  0.00    -0.204 NA
HETATM    4  C   UNL     1     -40.979  61.443 -58.400  1.00  0.00     0.162 A 
HETATM    5  C   UNL     1     -41.504  61.476 -59.664  1.00  0.00     0.081 A 
HETATM    6  C   UNL     1     -42.661  60.668 -59.907  1.00  0.00     0.124 A 
HETATM    7  N   UNL     1     -39.937  62.324 -58.425  1.00  0.00    -0.260 N 
HETATM    8  H   UNL     1     -39.333  62.601 -57.659  1.00  0.00     0.191 HD
HETATM    9  N   UNL     1     -39.752  62.889 -59.638  1.00  0.00    -0.177 NA
HETATM   10  C   UNL     1     -40.738  62.390 -60.400  1.00  0.00     0.068 A 
HETATM   11  C   UNL     1     -40.889  62.858 -61.797  1.00  0.00     0.073 C 
ENDROOT
BRANCH   2  12
HETATM   12  S   UNL     1     -43.217  59.345 -56.062  1.00  0.00    -0.082 SA
BRANCH  12  13
HETATM   13  C   UNL     1     -42.191  60.053 -54.753  1.00  0.00     0.185 C 
BRANCH  13  14
HETATM   14  C   UNL     1     -41.415  58.975 -54.011  1.00  0.00     0.232 C 
HETATM   15  N   UNL     1     -42.110  57.780 -53.910  1.00  0.00    -0.324 N 
HETATM   16  H   UNL     1     -43.085  57.811 -54.180  1.00  0.00     0.169 HD
HETATM   17  O   UNL     1     -40.334  59.232 -53.486  1.00  0.00    -0.272 OA
BRANCH  15  18
HETATM   18  C   UNL     1     -41.655  56.590 -53.300  1.00  0.00     0.070 A 
HETATM   19  C   UNL     1     -41.166  55.472 -54.001  1.00  0.00     0.097 A 
HETATM   20  C   UNL     1     -40.676  54.368 -53.284  1.00  0.00     0.077 A 
HETATM   21  C   UNL     1     -40.696  54.356 -51.885  1.00  0.00     0.092 A 
HETATM   22  C   UNL     1     -41.269  55.434 -51.204  1.00  0.00     0.069 A 
HETATM   23 CL   UNL     1     -41.387  55.455 -49.479  1.00  0.00    -0.081 Cl
HETATM   24  C   UNL     1     -41.748  56.541 -51.904  1.00  0.00     0.059 A 
BRANCH  19  25
HETATM   25  O   UNL     1     -41.343  55.460 -55.359  1.00  0.00    -0.354 OA
HETATM   26  C   UNL     1     -42.480  54.780 -55.872  1.00  0.00     0.210 C 
ENDBRANCH  19  25
BRANCH  21  27
HETATM   27  O   UNL     1     -40.247  53.299 -51.136  1.00  0.00    -0.354 OA
HETATM   28  C   UNL     1     -39.791  52.167 -51.871  1.00  0.00     0.210 C 
ENDBRANCH  21  27
ENDBRANCH  15  18
ENDBRANCH  13  14
ENDBRANCH  12  13
ENDBRANCH   2  12
BRANCH   1  29
HETATM   29  C   UNL     1     -44.350  59.134 -58.895  1.00  0.00     0.049 A 
HETATM   30  C   UNL     1     -44.216  57.754 -59.167  1.00  0.00    -0.031 A 
HETATM   31  C   UNL     1     -45.374  56.956 -59.195  1.00  0.00     0.009 A 
HETATM   32  C   UNL     1     -46.636  57.509 -58.972  1.00  0.00     0.001 A 
HETATM   33  C   UNL     1     -46.765  58.868 -58.711  1.00  0.00     0.002 A 
HETATM   34  C   UNL     1     -45.629  59.675 -58.664  1.00  0.00     0.031 A 
BRANCH  30  35
HETATM   35  C   UNL     1     -42.882  57.097 -59.453  1.00  0.00     0.036 C 
HETATM   36  C   UNL     1     -42.988  55.586 -59.597  1.00  0.00     0.010 C 
ENDBRANCH  30  35
ENDBRANCH   1  29
BRANCH   6  37
HETATM   37  N   UNL     1     -43.170  60.545 -61.117  1.00  0.00    -0.384 N 
HETATM   38  H   UNL     1     -44.030  60.045 -61.290  1.00  0.00     0.157 HD
HETATM   39  H   UNL     1     -42.702  60.983 -61.903  1.00  0.00     0.157 HD
ENDBRANCH   6  37
TORSDOF 9
ENDMDL
MODEL 7
REMARK VINA RESULT:      -7.5      3.636      9.888
REMARK  9 active torsions:
REMARK  status: ('A' for Active; 'I' for Inactive)
REMARK    1  A    between atoms: C_2  and  C_3 
REMARK    2  A    between atoms: C_4  and  N_5 
REMARK    3  A    between atoms: C_6  and  S_7 
REMARK    4  A    between atoms: S_7  and  C_8 
REMARK    5  A    between atoms: C_8  and  C_9 
REMARK       I    between atoms: C_9  and  N_10 
REMARK    6  A    between atoms: N_10  and  C_11 
REMARK    7  A    between atoms: C_12  and  O_13 
REMARK    8  A    between atoms: C_16  and  O_17 
REMARK    9  A    between atoms: C_26  and  N_27 
ROOT
HETATM    1  N   UNL     1     -41.361  53.694 -52.946  1.00  0.00    -0.275 N 
HETATM    2  C   UNL     1     -41.746  53.294 -54.253  1.00  0.00     0.177 A 
HETATM    3  N   UNL     1     -41.384  52.185 -54.853  1.00  0.00    -0.204 NA
HETATM    4  C   UNL     1     -40.647  51.360 -54.074  1.00  0.00     0.162 A 
HETATM    5  C   UNL     1     -40.193  51.551 -52.797  1.00  0.00     0.081 A 
HETATM    6  C   UNL     1     -40.505  52.803 -52.177  1.00  0.00     0.124 A 
HETATM    7  N   UNL     1     -40.265  50.091 -54.401  1.00  0.00    -0.260 N 
HETATM    8  H   UNL     1     -40.461  49.579 -55.254  1.00  0.00     0.191 HD
HETATM    9  N   UNL     1     -39.571  49.479 -53.417  1.00  0.00    -0.177 NA
HETATM   10  C   UNL     1     -39.549  50.367 -52.412  1.00  0.00     0.068 A 
HETATM   11  C   UNL     1     -38.924  49.994 -51.121  1.00  0.00     0.073 C 
ENDROOT
BRANCH   2  12
HETATM   12  S   UNL     1     -42.862  54.319 -55.176  1.00  0.00    -0.082 SA
BRANCH  12  13
HETATM   13  C   UNL     1     -41.717  55.420 -56.040  1.00  0.00     0.185 C 
BRANCH  13  14
HETATM   14  C   UNL     1     -42.454  56.564 -56.720  1.00  0.00     0.232 C 
HETATM   15  N   UNL     1     -42.367  56.518 -58.102  1.00  0.00    -0.324 N 
HETATM   16  H   UNL     1     -41.706  55.852 -58.483  1.00  0.00     0.169 HD
HETATM   17  O   UNL     1     -42.963  57.463 -56.055  1.00  0.00    -0.272 OA
BRANCH  15  18
HETATM   18  C   UNL     1     -42.957  57.422 -59.014  1.00  0.00     0.070 A 
HETATM   19  C   UNL     1     -44.257  57.291 -59.536  1.00  0.00     0.097 A 
HETATM   20  C   UNL     1     -44.764  58.290 -60.384  1.00  0.00     0.077 A 
HETATM   21  C   UNL     1     -43.982  59.396 -60.737  1.00  0.00     0.092 A 
HETATM   22  C   UNL     1     -42.661  59.466 -60.285  1.00  0.00     0.069 A 
HETATM   23 CL   UNL     1     -41.618  60.769 -60.736  1.00  0.00    -0.081 Cl
HETATM   24  C   UNL     1     -42.150  58.486 -59.433  1.00  0.00     0.059 A 
BRANCH  19  25
HETATM   25  O   UNL     1     -44.904  56.105 -59.311  1.00  0.00    -0.354 OA
HETATM   26  C   UNL     1     -44.911  55.146 -60.359  1.00  0.00     0.210 C 
ENDBRANCH  19  25
BRANCH  21  27
HETATM   27  O   UNL     1     -44.420  60.390 -61.573  1.00  0.00    -0.354 OA
HETATM   28  C   UNL     1     -45.832  60.547 -61.664  1.00  0.00     0.210 C 
ENDBRANCH  21  27
ENDBRANCH  15  18
ENDBRANCH  13  14
ENDBRANCH  12  13
ENDBRANCH   2  12
BRANCH   1  29
HETATM   29  C   UNL     1     -41.710  54.975 -52.420  1.00  0.00     0.049 A 
HETATM   30  C   UNL     1     -42.829  55.146 -51.573  1.00  0.00    -0.031 A 
HETATM   31  C   UNL     1     -43.058  56.412 -51.004  1.00  0.00     0.009 A 
HETATM   32  C   UNL     1     -42.211  57.488 -51.274  1.00  0.00     0.001 A 
HETATM   33  C   UNL     1     -41.116  57.319 -52.113  1.00  0.00     0.002 A 
HETATM   34  C   UNL     1     -40.861  56.069 -52.676  1.00  0.00     0.031 A 
BRANCH  30  35
HETATM   35  C   UNL     1     -43.807  54.032 -51.266  1.00  0.00     0.036 C 
HETATM   36  C   UNL     1     -44.670  54.323 -50.047  1.00  0.00     0.010 C 
ENDBRANCH  30  35
ENDBRANCH   1  29
BRANCH   6  37
HETATM   37  N   UNL     1     -40.017  53.125 -50.995  1.00  0.00    -0.384 N 
HETATM   38  H   UNL     1     -39.533  52.456 -50.414  1.00  0.00     0.157 HD
HETATM   39  H   UNL     1     -40.105  54.077 -50.660  1.00  0.00     0.157 HD
ENDBRANCH   6  37
TORSDOF 9
ENDMDL
MODEL 8
REMARK VINA RESULT:      -7.4      4.056      8.814
REMARK  9 active torsions:
REMARK  status: ('A' for Active; 'I' for Inactive)
REMARK    1  A    between atoms: C_2  and  C_3 
REMARK    2  A    between atoms: C_4  and  N_5 
REMARK    3  A    between atoms: C_6  and  S_7 
REMARK    4  A    between atoms: S_7  and  C_8 
REMARK    5  A    between atoms: C_8  and  C_9 
REMARK       I    between atoms: C_9  and  N_10 
REMARK    6  A    between atoms: N_10  and  C_11 
REMARK    7  A    between atoms: C_12  and  O_13 
REMARK    8  A    between atoms: C_16  and  O_17 
REMARK    9  A    between atoms: C_26  and  N_27 
ROOT
HETATM    1  N   UNL     1     -43.585  57.680 -52.289  1.00  0.00    -0.275 N 
HETATM    2  C   UNL     1     -43.495  57.635 -53.706  1.00  0.00     0.177 A 
HETATM    3  N   UNL     1     -44.177  58.382 -54.541  1.00  0.00    -0.204 NA
HETATM    4  C   UNL     1     -44.955  59.307 -53.934  1.00  0.00     0.162 A 
HETATM    5  C   UNL     1     -45.162  59.523 -52.598  1.00  0.00     0.081 A 
HETATM    6  C   UNL     1     -44.492  58.644 -51.687  1.00  0.00     0.124 A 
HETATM    7  N   UNL     1     -45.652  60.297 -54.565  1.00  0.00    -0.260 N 
HETATM    8  H   UNL     1     -45.702  60.490 -55.559  1.00  0.00     0.191 HD
HETATM    9  N   UNL     1     -46.311  61.108 -53.709  1.00  0.00    -0.177 NA
HETATM   10  C   UNL     1     -45.987  60.651 -52.490  1.00  0.00     0.068 A 
HETATM   11  C   UNL     1     -46.481  61.363 -51.288  1.00  0.00     0.073 C 
ENDROOT
BRANCH   2  12
HETATM   12  S   UNL     1     -42.329  56.532 -54.463  1.00  0.00    -0.082 SA
BRANCH  12  13
HETATM   13  C   UNL     1     -42.161  57.254 -56.111  1.00  0.00     0.185 C 
BRANCH  13  14
HETATM   14  C   UNL     1     -43.088  56.579 -57.111  1.00  0.00     0.232 C 
HETATM   15  N   UNL     1     -43.975  57.461 -57.708  1.00  0.00    -0.324 N 
HETATM   16  H   UNL     1     -44.020  58.387 -57.301  1.00  0.00     0.169 HD
HETATM   17  O   UNL     1     -43.075  55.358 -57.251  1.00  0.00    -0.272 OA
BRANCH  15  18
HETATM   18  C   UNL     1     -44.944  57.148 -58.686  1.00  0.00     0.070 A 
HETATM   19  C   UNL     1     -46.234  57.708 -58.737  1.00  0.00     0.097 A 
HETATM   20  C   UNL     1     -47.092  57.372 -59.798  1.00  0.00     0.077 A 
HETATM   21  C   UNL     1     -46.689  56.467 -60.786  1.00  0.00     0.092 A 
HETATM   22  C   UNL     1     -45.440  55.847 -60.672  1.00  0.00     0.069 A 
HETATM   23 CL   UNL     1     -44.906  54.670 -61.820  1.00  0.00    -0.081 Cl
HETATM   24  C   UNL     1     -44.576  56.182 -59.629  1.00  0.00     0.059 A 
BRANCH  19  25
HETATM   25  O   UNL     1     -46.642  58.437 -57.651  1.00  0.00    -0.354 OA
HETATM   26  C   UNL     1     -47.490  59.553 -57.883  1.00  0.00     0.210 C 
ENDBRANCH  19  25
BRANCH  21  27
HETATM   27  O   UNL     1     -47.490  56.090 -61.833  1.00  0.00    -0.354 OA
HETATM   28  C   UNL     1     -48.533  56.998 -62.173  1.00  0.00     0.210 C 
ENDBRANCH  21  27
ENDBRANCH  15  18
ENDBRANCH  13  14
ENDBRANCH  12  13
ENDBRANCH   2  12
BRANCH   1  29
HETATM   29  C   UNL     1     -42.887  56.746 -51.464  1.00  0.00     0.049 A 
HETATM   30  C   UNL     1     -41.627  57.054 -50.901  1.00  0.00    -0.031 A 
HETATM   31  C   UNL     1     -41.041  56.135 -50.013  1.00  0.00     0.009 A 
HETATM   32  C   UNL     1     -41.676  54.933 -49.696  1.00  0.00     0.001 A 
HETATM   33  C   UNL     1     -42.912  54.630 -50.256  1.00  0.00     0.002 A 
HETATM   34  C   UNL     1     -43.518  55.533 -51.128  1.00  0.00     0.031 A 
BRANCH  30  35
HETATM   35  C   UNL     1     -40.868  58.323 -51.230  1.00  0.00     0.036 C 
HETATM   36  C   UNL     1     -40.990  59.382 -50.144  1.00  0.00     0.010 C 
ENDBRANCH  30  35
ENDBRANCH   1  29
BRANCH   6  37
HETATM   37  N   UNL     1     -44.717  58.700 -50.389  1.00  0.00    -0.384 N 
HETATM   38  H   UNL     1     -45.573  59.078 -50.008  1.00  0.00     0.157 HD
HETATM   39  H   UNL     1     -44.025  58.334 -49.745  1.00  0.00     0.157 HD
ENDBRANCH   6  37
TORSDOF 9
ENDMDL
MODEL 9
REMARK VINA RESULT:      -7.4      4.034      9.678
REMARK  9 active torsions:
REMARK  status: ('A' for Active; 'I' for Inactive)
REMARK    1  A    between atoms: C_2  and  C_3 
REMARK    2  A    between atoms: C_4  and  N_5 
REMARK    3  A    between atoms: C_6  and  S_7 
REMARK    4  A    between atoms: S_7  and  C_8 
REMARK    5  A    between atoms: C_8  and  C_9 
REMARK       I    between atoms: C_9  and  N_10 
REMARK    6  A    between atoms: N_10  and  C_11 
REMARK    7  A    between atoms: C_12  and  O_13 
REMARK    8  A    between atoms: C_16  and  O_17 
REMARK    9  A    between atoms: C_26  and  N_27 
ROOT
HETATM    1  N   UNL     1     -42.156  55.802 -53.010  1.00  0.00    -0.275 N 
HETATM    2  C   UNL     1     -42.125  55.580 -54.412  1.00  0.00     0.177 A 
HETATM    3  N   UNL     1     -41.482  54.612 -55.021  1.00  0.00    -0.204 NA
HETATM    4  C   UNL     1     -40.884  53.740 -54.176  1.00  0.00     0.162 A 
HETATM    5  C   UNL     1     -40.816  53.766 -52.809  1.00  0.00     0.081 A 
HETATM    6  C   UNL     1     -41.436  54.877 -52.149  1.00  0.00     0.124 A 
HETATM    7  N   UNL     1     -40.275  52.574 -54.539  1.00  0.00    -0.260 N 
HETATM    8  H   UNL     1     -40.170  52.187 -55.471  1.00  0.00     0.191 HD
HETATM    9  N   UNL     1     -39.800  51.876 -53.485  1.00  0.00    -0.177 NA
HETATM   10  C   UNL     1     -40.158  52.595 -52.411  1.00  0.00     0.068 A 
HETATM   11  C   UNL     1     -39.861  52.079 -51.054  1.00  0.00     0.073 C 
ENDROOT
BRANCH   2  12
HETATM   12  S   UNL     1     -43.071  56.640 -55.475  1.00  0.00    -0.082 SA
BRANCH  12  13
HETATM   13  C   UNL     1     -42.853  55.836 -57.080  1.00  0.00     0.185 C 
BRANCH  13  14
HETATM   14  C   UNL     1     -43.476  56.655 -58.201  1.00  0.00     0.232 C 
HETATM   15  N   UNL     1     -44.825  56.906 -58.003  1.00  0.00    -0.324 N 
HETATM   16  H   UNL     1     -45.265  56.390 -57.251  1.00  0.00     0.169 HD
HETATM   17  O   UNL     1     -42.824  56.943 -59.202  1.00  0.00    -0.272 OA
BRANCH  15  18
HETATM   18  C   UNL     1     -45.676  57.650 -58.849  1.00  0.00     0.070 A 
HETATM   19  C   UNL     1     -45.840  59.047 -58.785  1.00  0.00     0.097 A 
HETATM   20  C   UNL     1     -46.663  59.689 -59.724  1.00  0.00     0.077 A 
HETATM   21  C   UNL     1     -47.344  58.954 -60.702  1.00  0.00     0.092 A 
HETATM   22  C   UNL     1     -47.245  57.559 -60.695  1.00  0.00     0.069 A 
HETATM   23 CL   UNL     1     -48.111  56.586 -61.832  1.00  0.00    -0.081 Cl
HETATM   24  C   UNL     1     -46.421  56.912 -59.775  1.00  0.00     0.059 A 
BRANCH  19  25
HETATM   25  O   UNL     1     -45.304  59.689 -57.700  1.00  0.00    -0.354 OA
HETATM   26  C   UNL     1     -44.124  60.454 -57.900  1.00  0.00     0.210 C 
ENDBRANCH  19  25
BRANCH  21  27
HETATM   27  O   UNL     1     -48.173  59.527 -61.631  1.00  0.00    -0.354 OA
HETATM   28  C   UNL     1     -47.527  60.202 -62.706  1.00  0.00     0.210 C 
ENDBRANCH  21  27
ENDBRANCH  15  18
ENDBRANCH  13  14
ENDBRANCH  12  13
ENDBRANCH   2  12
BRANCH   1  29
HETATM   29  C   UNL     1     -42.790  56.952 -52.446  1.00  0.00     0.049 A 
HETATM   30  C   UNL     1     -42.130  58.200 -52.379  1.00  0.00    -0.031 A 
HETATM   31  C   UNL     1     -42.844  59.317 -51.911  1.00  0.00     0.009 A 
HETATM   32  C   UNL     1     -44.175  59.205 -51.506  1.00  0.00     0.001 A 
HETATM   33  C   UNL     1     -44.819  57.974 -51.567  1.00  0.00     0.002 A 
HETATM   34  C   UNL     1     -44.135  56.856 -52.042  1.00  0.00     0.031 A 
BRANCH  30  35
HETATM   35  C   UNL     1     -40.678  58.385 -52.768  1.00  0.00     0.036 C 
HETATM   36  C   UNL     1     -39.839  58.985 -51.648  1.00  0.00     0.010 C 
ENDBRANCH  30  35
ENDBRANCH   1  29
BRANCH   6  37
HETATM   37  N   UNL     1     -41.325  55.049 -50.847  1.00  0.00    -0.384 N 
HETATM   38  H   UNL     1     -40.712  55.745 -50.448  1.00  0.00     0.157 HD
HETATM   39  H   UNL     1     -41.887  54.487 -50.218  1.00  0.00     0.157 HD
ENDBRANCH   6  37
TORSDOF 9
ENDMDL
MODEL 10
REMARK VINA RESULT:      -7.4      4.379      8.992
REMARK  9 active torsions:
REMARK  status: ('A' for Active; 'I' for Inactive)
REMARK    1  A    between atoms: C_2  and  C_3 
REMARK    2  A    between atoms: C_4  and  N_5 
REMARK    3  A    between atoms: C_6  and  S_7 
REMARK    4  A    between atoms: S_7  and  C_8 
REMARK    5  A    between atoms: C_8  and  C_9 
REMARK       I    between atoms: C_9  and  N_10 
REMARK    6  A    between atoms: N_10  and  C_11 
REMARK    7  A    between atoms: C_12  and  O_13 
REMARK    8  A    between atoms: C_16  and  O_17 
REMARK    9  A    between atoms: C_26  and  N_27 
ROOT
HETATM    1  N   UNL     1     -43.799  57.209 -52.797  1.00  0.00    -0.275 N 
HETATM    2  C   UNL     1     -44.043  57.351 -54.189  1.00  0.00     0.177 A 
HETATM    3  N   UNL     1     -44.794  58.271 -54.746  1.00  0.00    -0.204 NA
HETATM    4  C   UNL     1     -45.286  59.176 -53.869  1.00  0.00     0.162 A 
HETATM    5  C   UNL     1     -45.151  59.225 -52.507  1.00  0.00     0.081 A 
HETATM    6  C   UNL     1     -44.411  58.166 -51.889  1.00  0.00     0.124 A 
HETATM    7  N   UNL     1     -45.973  60.308 -54.198  1.00  0.00    -0.260 N 
HETATM    8  H   UNL     1     -46.224  60.641 -55.123  1.00  0.00     0.191 HD
HETATM    9  N   UNL     1     -46.308  61.055 -53.123  1.00  0.00    -0.177 NA
HETATM   10  C   UNL     1     -45.776  60.404 -52.077  1.00  0.00     0.068 A 
HETATM   11  C   UNL     1     -45.886  60.989 -50.721  1.00  0.00     0.073 C 
ENDROOT
BRANCH   2  12
HETATM   12  S   UNL     1     -43.234  56.252 -55.324  1.00  0.00    -0.082 SA
BRANCH  12  13
HETATM   13  C   UNL     1     -42.314  57.412 -56.362  1.00  0.00     0.185 C 
BRANCH  13  14
HETATM   14  C   UNL     1     -43.015  57.643 -57.692  1.00  0.00     0.232 C 
HETATM   15  N   UNL     1     -44.338  57.228 -57.687  1.00  0.00    -0.324 N 
HETATM   16  H   UNL     1     -44.627  56.682 -56.885  1.00  0.00     0.169 HD
HETATM   17  O   UNL     1     -42.390  58.060 -58.665  1.00  0.00    -0.272 OA
BRANCH  15  18
HETATM   18  C   UNL     1     -45.255  57.325 -58.756  1.00  0.00     0.070 A 
HETATM   19  C   UNL     1     -45.376  56.377 -59.790  1.00  0.00     0.097 A 
HETATM   20  C   UNL     1     -46.372  56.542 -60.766  1.00  0.00     0.077 A 
HETATM   21  C   UNL     1     -47.225  57.652 -60.738  1.00  0.00     0.092 A 
HETATM   22  C   UNL     1     -47.033  58.633 -59.760  1.00  0.00     0.069 A 
HETATM   23 CL   UNL     1     -48.006  60.061 -59.708  1.00  0.00    -0.081 Cl
HETATM   24  C   UNL     1     -46.054  58.473 -58.779  1.00  0.00     0.059 A 
BRANCH  19  25
HETATM   25  O   UNL     1     -44.401  55.418 -59.875  1.00  0.00    -0.354 OA
HETATM   26  C   UNL     1     -44.800  54.058 -59.780  1.00  0.00     0.210 C 
ENDBRANCH  19  25
BRANCH  21  27
HETATM   27  O   UNL     1     -48.202  57.872 -61.674  1.00  0.00    -0.354 OA
HETATM   28  C   UNL     1     -48.680  56.717 -62.356  1.00  0.00     0.210 C 
ENDBRANCH  21  27
ENDBRANCH  15  18
ENDBRANCH  13  14
ENDBRANCH  12  13
ENDBRANCH   2  12
BRANCH   1  29
HETATM   29  C   UNL     1     -43.058  56.104 -52.274  1.00  0.00     0.049 A 
HETATM   30  C   UNL     1     -41.693  56.227 -51.929  1.00  0.00    -0.031 A 
HETATM   31  C   UNL     1     -41.049  55.134 -51.322  1.00  0.00     0.009 A 
HETATM   32  C   UNL     1     -41.732  53.943 -51.072  1.00  0.00     0.001 A 
HETATM   33  C   UNL     1     -43.073  53.823 -51.418  1.00  0.00     0.002 A 
HETATM   34  C   UNL     1     -43.735  54.899 -52.008  1.00  0.00     0.031 A 
BRANCH  30  35
HETATM   35  C   UNL     1     -40.885  57.477 -52.205  1.00  0.00     0.036 C 
HETATM   36  C   UNL     1     -40.711  58.352 -50.971  1.00  0.00     0.010 C 
ENDBRANCH  30  35
ENDBRANCH   1  29
BRANCH   6  37
HETATM   37  N   UNL     1     -44.325  58.064 -50.577  1.00  0.00    -0.384 N 
HETATM   38  H   UNL     1     -43.824  58.740 -50.019  1.00  0.00     0.157 HD
HETATM   39  H   UNL     1     -44.791  57.300 -50.103  1.00  0.00     0.157 HD
ENDBRANCH   6  37
TORSDOF 9
ENDMDL
