MODEL 1
REMARK VINA RESULT:      -7.3      0.000      0.000
REMARK  2 active torsions:
REMARK  status: ('A' for Active; 'I' for Inactive)
REMARK    1  A    between atoms: C_8  and  S_9 
REMARK    2  A    between atoms: S_9  and  C_10 
ROOT
HETATM    1  C   UNL     1     -40.026  50.579 -54.331  1.00  0.00     0.002 A 
HETATM    2  C   UNL     1     -40.416  51.909 -54.172  1.00  0.00     0.034 A 
HETATM    3  C   UNL     1     -40.397  52.522 -52.925  1.00  0.00     0.087 A 
HETATM    4  C   UNL     1     -39.977  51.771 -51.794  1.00  0.00     0.087 A 
HETATM    5  N   UNL     1     -39.949  52.314 -50.562  1.00  0.00    -0.232 NA
HETATM    6  C   UNL     1     -40.391  53.584 -50.451  1.00  0.00     0.164 A 
HETATM    7 CL   UNL     1     -40.320  54.214 -48.858  1.00  0.00    -0.059 Cl
HETATM    8  C   UNL     1     -40.794  54.319 -51.553  1.00  0.00     0.165 A 
HETATM    9  N   UNL     1     -40.770  53.814 -52.812  1.00  0.00    -0.234 NA
HETATM   10  C   UNL     1     -39.583  50.450 -51.969  1.00  0.00     0.034 A 
HETATM   11  C   UNL     1     -39.604  49.849 -53.227  1.00  0.00     0.002 A 
ENDROOT
BRANCH   8  12
HETATM   12  S   UNL     1     -41.376  56.006 -51.468  1.00  0.00     0.078 S 
HETATM   13  O   UNL     1     -42.474  56.034 -50.447  1.00  0.00    -0.251 OA
BRANCH  12  14
HETATM   14  C   UNL     1     -42.207  56.173 -53.078  1.00  0.00     0.112 C 
HETATM   15  C   UNL     1     -41.458  57.114 -54.024  1.00  0.00     0.250 C 
HETATM   16  N   UNL     1     -42.148  57.120 -55.366  1.00  0.00    -0.074 N 
HETATM   17  H   UNL     1     -42.048  56.196 -55.813  1.00  0.00     0.277 HD
HETATM   18  H   UNL     1     -41.643  57.772 -55.985  1.00  0.00     0.277 HD
HETATM   19  C   UNL     1     -43.586  57.516 -55.307  1.00  0.00     0.232 C 
HETATM   20  C   UNL     1     -44.331  56.579 -54.364  1.00  0.00     0.029 C 
HETATM   21  C   UNL     1     -43.688  56.530 -52.973  1.00  0.00     0.021 C 
ENDBRANCH  12  14
ENDBRANCH   8  12
TORSDOF 2
ENDMDL
MODEL 2
REMARK VINA RESULT:      -6.9      3.246      4.146
REMARK  2 active torsions:
REMARK  status: ('A' for Active; 'I' for Inactive)
REMARK    1  A    between atoms: C_8  and  S_9 
REMARK    2  A    between atoms: S_9  and  C_10 
ROOT
HETATM    1  C   UNL     1     -39.487  51.872 -51.742  1.00  0.00     0.002 A 
HETATM    2  C   UNL     1     -40.027  53.158 -51.691  1.00  0.00     0.034 A 
HETATM    3  C   UNL     1     -40.668  53.715 -52.791  1.00  0.00     0.087 A 
HETATM    4  C   UNL     1     -40.765  52.957 -53.990  1.00  0.00     0.087 A 
HETATM    5  N   UNL     1     -41.367  53.454 -55.087  1.00  0.00    -0.232 NA
HETATM    6  C   UNL     1     -41.822  54.722 -55.006  1.00  0.00     0.164 A 
HETATM    7 CL   UNL     1     -42.584  55.285 -56.435  1.00  0.00    -0.059 Cl
HETATM    8  C   UNL     1     -41.734  55.459 -53.837  1.00  0.00     0.165 A 
HETATM    9  N   UNL     1     -41.189  54.957 -52.700  1.00  0.00    -0.234 NA
HETATM   10  C   UNL     1     -40.230  51.676 -54.023  1.00  0.00     0.034 A 
HETATM   11  C   UNL     1     -39.592  51.129 -52.910  1.00  0.00     0.002 A 
ENDROOT
BRANCH   8  12
HETATM   12  S   UNL     1     -42.330  57.135 -53.668  1.00  0.00     0.078 S 
HETATM   13  O   UNL     1     -41.807  57.900 -54.847  1.00  0.00    -0.251 OA
BRANCH  12  14
HETATM   14  C   UNL     1     -41.354  57.712 -52.244  1.00  0.00     0.112 C 
HETATM   15  C   UNL     1     -42.237  58.139 -51.069  1.00  0.00     0.250 C 
HETATM   16  N   UNL     1     -41.359  58.504 -49.897  1.00  0.00    -0.074 N 
HETATM   17  H   UNL     1     -40.878  57.663 -49.547  1.00  0.00     0.277 HD
HETATM   18  H   UNL     1     -41.968  58.806 -49.122  1.00  0.00     0.277 HD
HETATM   19  C   UNL     1     -40.370  59.583 -50.193  1.00  0.00     0.232 C 
HETATM   20  C   UNL     1     -39.493  59.157 -51.365  1.00  0.00     0.029 C 
HETATM   21  C   UNL     1     -40.320  58.780 -52.597  1.00  0.00     0.021 C 
ENDBRANCH  12  14
ENDBRANCH   8  12
TORSDOF 2
ENDMDL
MODEL 3
REMARK VINA RESULT:      -6.7      3.295      4.235
REMARK  2 active torsions:
REMARK  status: ('A' for Active; 'I' for Inactive)
REMARK    1  A    between atoms: C_8  and  S_9 
REMARK    2  A    between atoms: S_9  and  C_10 
ROOT
HETATM    1  C   UNL     1     -39.921  52.563 -54.284  1.00  0.00     0.002 A 
HETATM    2  C   UNL     1     -40.420  53.628 -55.034  1.00  0.00     0.034 A 
HETATM    3  C   UNL     1     -41.222  54.605 -54.456  1.00  0.00     0.087 A 
HETATM    4  C   UNL     1     -41.541  54.506 -53.075  1.00  0.00     0.087 A 
HETATM    5  N   UNL     1     -42.323  55.421 -52.468  1.00  0.00    -0.232 NA
HETATM    6  C   UNL     1     -42.827  56.398 -53.249  1.00  0.00     0.164 A 
HETATM    7 CL   UNL     1     -43.804  57.530 -52.410  1.00  0.00    -0.059 Cl
HETATM    8  C   UNL     1     -42.511  56.499 -54.593  1.00  0.00     0.165 A 
HETATM    9  N   UNL     1     -41.676  55.628 -55.212  1.00  0.00    -0.234 NA
HETATM   10  C   UNL     1     -41.031  53.445 -52.339  1.00  0.00     0.034 A 
HETATM   11  C   UNL     1     -40.225  52.474 -52.931  1.00  0.00     0.002 A 
ENDROOT
BRANCH   8  12
HETATM   12  S   UNL     1     -43.139  57.779 -55.671  1.00  0.00     0.078 S 
HETATM   13  O   UNL     1     -44.632  57.636 -55.688  1.00  0.00    -0.251 OA
BRANCH  12  14
HETATM   14  C   UNL     1     -42.577  57.177 -57.295  1.00  0.00     0.112 C 
HETATM   15  C   UNL     1     -42.026  58.303 -58.173  1.00  0.00     0.250 C 
HETATM   16  N   UNL     1     -41.487  57.714 -59.453  1.00  0.00    -0.074 N 
HETATM   17  H   UNL     1     -40.658  57.136 -59.249  1.00  0.00     0.277 HD
HETATM   18  H   UNL     1     -41.138  58.485 -60.040  1.00  0.00     0.277 HD
HETATM   19  C   UNL     1     -42.492  56.926 -60.228  1.00  0.00     0.232 C 
HETATM   20  C   UNL     1     -43.041  55.806 -59.352  1.00  0.00     0.029 C 
HETATM   21  C   UNL     1     -43.615  56.334 -58.033  1.00  0.00     0.021 C 
ENDBRANCH  12  14
ENDBRANCH   8  12
TORSDOF 2
ENDMDL
MODEL 4
REMARK VINA RESULT:      -6.6      2.219      2.733
REMARK  2 active torsions:
REMARK  status: ('A' for Active; 'I' for Inactive)
REMARK    1  A    between atoms: C_8  and  S_9 
REMARK    2  A    between atoms: S_9  and  C_10 
ROOT
HETATM    1  C   UNL     1     -39.501  49.467 -52.452  1.00  0.00     0.002 A 
HETATM    2  C   UNL     1     -39.749  50.480 -51.525  1.00  0.00     0.034 A 
HETATM    3  C   UNL     1     -40.073  51.768 -51.934  1.00  0.00     0.087 A 
HETATM    4  C   UNL     1     -40.143  52.053 -53.324  1.00  0.00     0.087 A 
HETATM    5  N   UNL     1     -40.442  53.288 -53.773  1.00  0.00    -0.232 NA
HETATM    6  C   UNL     1     -40.617  54.245 -52.839  1.00  0.00     0.164 A 
HETATM    7 CL   UNL     1     -41.004  55.787 -53.481  1.00  0.00    -0.059 Cl
HETATM    8  C   UNL     1     -40.555  53.967 -51.484  1.00  0.00     0.165 A 
HETATM    9  N   UNL     1     -40.318  52.720 -51.007  1.00  0.00    -0.234 NA
HETATM   10  C   UNL     1     -39.901  51.033 -54.235  1.00  0.00     0.034 A 
HETATM   11  C   UNL     1     -39.581  49.744 -53.811  1.00  0.00     0.002 A 
ENDROOT
BRANCH   8  12
HETATM   12  S   UNL     1     -40.790  55.191 -50.204  1.00  0.00     0.078 S 
HETATM   13  O   UNL     1     -41.609  54.540 -49.128  1.00  0.00    -0.251 OA
BRANCH  12  14
HETATM   14  C   UNL     1     -41.918  56.354 -51.034  1.00  0.00     0.112 C 
HETATM   15  C   UNL     1     -41.559  57.814 -50.751  1.00  0.00     0.250 C 
HETATM   16  N   UNL     1     -42.469  58.713 -51.551  1.00  0.00    -0.074 N 
HETATM   17  H   UNL     1     -42.270  58.603 -52.557  1.00  0.00     0.277 HD
HETATM   18  H   UNL     1     -42.227  59.691 -51.335  1.00  0.00     0.277 HD
HETATM   19  C   UNL     1     -43.923  58.498 -51.283  1.00  0.00     0.232 C 
HETATM   20  C   UNL     1     -44.279  57.043 -51.564  1.00  0.00     0.029 C 
HETATM   21  C   UNL     1     -43.397  56.070 -50.774  1.00  0.00     0.021 C 
ENDBRANCH  12  14
ENDBRANCH   8  12
TORSDOF 2
ENDMDL
MODEL 5
REMARK VINA RESULT:      -6.4      2.533      3.126
REMARK  2 active torsions:
REMARK  status: ('A' for Active; 'I' for Inactive)
REMARK    1  A    between atoms: C_8  and  S_9 
REMARK    2  A    between atoms: S_9  and  C_10 
ROOT
HETATM    1  C   UNL     1     -39.307  51.567 -52.409  1.00  0.00     0.002 A 
HETATM    2  C   UNL     1     -39.892  52.578 -51.646  1.00  0.00     0.034 A 
HETATM    3  C   UNL     1     -40.897  53.384 -52.165  1.00  0.00     0.087 A 
HETATM    4  C   UNL     1     -41.328  53.174 -53.503  1.00  0.00     0.087 A 
HETATM    5  N   UNL     1     -42.291  53.934 -54.058  1.00  0.00    -0.232 NA
HETATM    6  C   UNL     1     -42.784  54.934 -53.298  1.00  0.00     0.164 A 
HETATM    7 CL   UNL     1     -44.012  55.855 -54.064  1.00  0.00    -0.059 Cl
HETATM    8  C   UNL     1     -42.370  55.136 -51.993  1.00  0.00     0.165 A 
HETATM    9  N   UNL     1     -41.447  54.345 -51.392  1.00  0.00    -0.234 NA
HETATM   10  C   UNL     1     -40.742  52.158 -54.248  1.00  0.00     0.034 A 
HETATM   11  C   UNL     1     -39.737  51.355 -53.713  1.00  0.00     0.002 A 
ENDROOT
BRANCH   8  12
HETATM   12  S   UNL     1     -42.996  56.436 -50.938  1.00  0.00     0.078 S 
HETATM   13  O   UNL     1     -44.460  56.169 -50.747  1.00  0.00    -0.251 OA
BRANCH  12  14
HETATM   14  C   UNL     1     -42.907  57.869 -52.057  1.00  0.00     0.112 C 
HETATM   15  C   UNL     1     -41.500  58.465 -52.128  1.00  0.00     0.250 C 
HETATM   16  N   UNL     1     -41.483  59.577 -53.148  1.00  0.00    -0.074 N 
HETATM   17  H   UNL     1     -41.630  59.187 -54.090  1.00  0.00     0.277 HD
HETATM   18  H   UNL     1     -40.534  59.979 -53.169  1.00  0.00     0.277 HD
HETATM   19  C   UNL     1     -42.470  60.664 -52.876  1.00  0.00     0.232 C 
HETATM   20  C   UNL     1     -43.871  60.069 -52.805  1.00  0.00     0.029 C 
HETATM   21  C   UNL     1     -43.965  58.935 -51.778  1.00  0.00     0.021 C 
ENDBRANCH  12  14
ENDBRANCH   8  12
TORSDOF 2
ENDMDL
MODEL 6
REMARK VINA RESULT:      -6.4      2.341      2.734
REMARK  2 active torsions:
REMARK  status: ('A' for Active; 'I' for Inactive)
REMARK    1  A    between atoms: C_8  and  S_9 
REMARK    2  A    between atoms: S_9  and  C_10 
ROOT
HETATM    1  C   UNL     1     -39.877  51.192 -53.776  1.00  0.00     0.002 A 
HETATM    2  C   UNL     1     -40.257  52.460 -54.219  1.00  0.00     0.034 A 
HETATM    3  C   UNL     1     -40.463  53.505 -53.327  1.00  0.00     0.087 A 
HETATM    4  C   UNL     1     -40.287  53.268 -51.936  1.00  0.00     0.087 A 
HETATM    5  N   UNL     1     -40.483  54.244 -51.029  1.00  0.00    -0.232 NA
HETATM    6  C   UNL     1     -40.904  55.434 -51.502  1.00  0.00     0.164 A 
HETATM    7 CL   UNL     1     -41.125  56.631 -50.293  1.00  0.00    -0.059 Cl
HETATM    8  C   UNL     1     -41.070  55.668 -52.857  1.00  0.00     0.165 A 
HETATM    9  N   UNL     1     -40.818  54.720 -53.794  1.00  0.00    -0.234 NA
HETATM   10  C   UNL     1     -39.900  52.004 -51.510  1.00  0.00     0.034 A 
HETATM   11  C   UNL     1     -39.695  50.966 -52.418  1.00  0.00     0.002 A 
ENDROOT
BRANCH   8  12
HETATM   12  S   UNL     1     -41.615  57.226 -53.540  1.00  0.00     0.078 S 
HETATM   13  O   UNL     1     -40.479  58.192 -53.373  1.00  0.00    -0.251 OA
BRANCH  12  14
HETATM   14  C   UNL     1     -42.863  57.730 -52.316  1.00  0.00     0.112 C 
HETATM   15  C   UNL     1     -44.177  56.962 -52.475  1.00  0.00     0.250 C 
HETATM   16  N   UNL     1     -45.120  57.358 -51.366  1.00  0.00    -0.074 N 
HETATM   17  H   UNL     1     -44.753  57.027 -50.462  1.00  0.00     0.277 HD
HETATM   18  H   UNL     1     -46.005  56.847 -51.499  1.00  0.00     0.277 HD
HETATM   19  C   UNL     1     -45.405  58.823 -51.306  1.00  0.00     0.232 C 
HETATM   20  C   UNL     1     -44.095  59.587 -51.148  1.00  0.00     0.029 C 
HETATM   21  C   UNL     1     -43.089  59.239 -52.250  1.00  0.00     0.021 C 
ENDBRANCH  12  14
ENDBRANCH   8  12
TORSDOF 2
ENDMDL
MODEL 7
REMARK VINA RESULT:      -6.3      4.294      5.626
REMARK  2 active torsions:
REMARK  status: ('A' for Active; 'I' for Inactive)
REMARK    1  A    between atoms: C_8  and  S_9 
REMARK    2  A    between atoms: S_9  and  C_10 
ROOT
HETATM    1  C   UNL     1     -40.609  53.232 -53.431  1.00  0.00     0.002 A 
HETATM    2  C   UNL     1     -40.698  53.963 -54.616  1.00  0.00     0.034 A 
HETATM    3  C   UNL     1     -41.706  54.900 -54.812  1.00  0.00     0.087 A 
HETATM    4  C   UNL     1     -42.665  55.106 -53.783  1.00  0.00     0.087 A 
HETATM    5  N   UNL     1     -43.667  55.994 -53.927  1.00  0.00    -0.232 NA
HETATM    6  C   UNL     1     -43.743  56.633 -55.112  1.00  0.00     0.164 A 
HETATM    7 CL   UNL     1     -45.037  57.754 -55.221  1.00  0.00    -0.059 Cl
HETATM    8  C   UNL     1     -42.807  56.438 -56.112  1.00  0.00     0.165 A 
HETATM    9  N   UNL     1     -41.753  55.596 -55.967  1.00  0.00    -0.234 NA
HETATM   10  C   UNL     1     -42.558  54.377 -52.606  1.00  0.00     0.034 A 
HETATM   11  C   UNL     1     -41.540  53.443 -52.422  1.00  0.00     0.002 A 
ENDROOT
BRANCH   8  12
HETATM   12  S   UNL     1     -42.851  57.265 -57.695  1.00  0.00     0.078 S 
HETATM   13  O   UNL     1     -43.090  58.720 -57.416  1.00  0.00    -0.251 OA
BRANCH  12  14
HETATM   14  C   UNL     1     -44.419  56.639 -58.375  1.00  0.00     0.112 C 
HETATM   15  C   UNL     1     -44.203  55.532 -59.410  1.00  0.00     0.250 C 
HETATM   16  N   UNL     1     -45.544  54.995 -59.848  1.00  0.00    -0.074 N 
HETATM   17  H   UNL     1     -45.997  54.507 -59.061  1.00  0.00     0.277 HD
HETATM   18  H   UNL     1     -45.381  54.265 -60.557  1.00  0.00     0.277 HD
HETATM   19  C   UNL     1     -46.458  56.032 -60.413  1.00  0.00     0.232 C 
HETATM   20  C   UNL     1     -46.671  57.134 -59.381  1.00  0.00     0.029 C 
HETATM   21  C   UNL     1     -45.347  57.734 -58.897  1.00  0.00     0.021 C 
ENDBRANCH  12  14
ENDBRANCH   8  12
TORSDOF 2
ENDMDL
MODEL 8
REMARK VINA RESULT:      -6.2      3.435      4.508
REMARK  2 active torsions:
REMARK  status: ('A' for Active; 'I' for Inactive)
REMARK    1  A    between atoms: C_8  and  S_9 
REMARK    2  A    between atoms: S_9  and  C_10 
ROOT
HETATM    1  C   UNL     1     -40.313  53.061 -52.098  1.00  0.00     0.002 A 
HETATM    2  C   UNL     1     -40.635  54.418 -52.050  1.00  0.00     0.034 A 
HETATM    3  C   UNL     1     -41.075  55.096 -53.180  1.00  0.00     0.087 A 
HETATM    4  C   UNL     1     -41.190  54.388 -54.408  1.00  0.00     0.087 A 
HETATM    5  N   UNL     1     -41.602  55.001 -55.534  1.00  0.00    -0.232 NA
HETATM    6  C   UNL     1     -41.846  56.325 -55.449  1.00  0.00     0.164 A 
HETATM    7 CL   UNL     1     -42.374  57.036 -56.917  1.00  0.00    -0.059 Cl
HETATM    8  C   UNL     1     -41.740  57.014 -54.253  1.00  0.00     0.165 A 
HETATM    9  N   UNL     1     -41.389  56.406 -53.092  1.00  0.00    -0.234 NA
HETATM   10  C   UNL     1     -40.874  53.036 -54.439  1.00  0.00     0.034 A 
HETATM   11  C   UNL     1     -40.437  52.368 -53.296  1.00  0.00     0.002 A 
ENDROOT
BRANCH   8  12
HETATM   12  S   UNL     1     -42.062  58.763 -54.078  1.00  0.00     0.078 S 
HETATM   13  O   UNL     1     -40.762  59.406 -53.695  1.00  0.00    -0.251 OA
BRANCH  12  14
HETATM   14  C   UNL     1     -43.077  58.784 -52.567  1.00  0.00     0.112 C 
HETATM   15  C   UNL     1     -44.408  58.052 -52.751  1.00  0.00     0.250 C 
HETATM   16  N   UNL     1     -45.143  58.022 -51.434  1.00  0.00    -0.074 N 
HETATM   17  H   UNL     1     -44.631  57.431 -50.762  1.00  0.00     0.277 HD
HETATM   18  H   UNL     1     -46.044  57.544 -51.579  1.00  0.00     0.277 HD
HETATM   19  C   UNL     1     -45.395  59.373 -50.849  1.00  0.00     0.232 C 
HETATM   20  C   UNL     1     -44.068  60.101 -50.668  1.00  0.00     0.029 C 
HETATM   21  C   UNL     1     -43.270  60.177 -51.973  1.00  0.00     0.021 C 
ENDBRANCH  12  14
ENDBRANCH   8  12
TORSDOF 2
ENDMDL
MODEL 9
REMARK VINA RESULT:      -6.1     14.082     15.863
REMARK  2 active torsions:
REMARK  status: ('A' for Active; 'I' for Inactive)
REMARK    1  A    between atoms: C_8  and  S_9 
REMARK    2  A    between atoms: S_9  and  C_10 
ROOT
HETATM    1  C   UNL     1     -37.090  40.270 -59.701  1.00  0.00     0.002 A 
HETATM    2  C   UNL     1     -36.833  39.529 -58.547  1.00  0.00     0.034 A 
HETATM    3  C   UNL     1     -36.709  40.144 -57.307  1.00  0.00     0.087 A 
HETATM    4  C   UNL     1     -36.841  41.556 -57.221  1.00  0.00     0.087 A 
HETATM    5  N   UNL     1     -36.720  42.202 -56.045  1.00  0.00    -0.232 NA
HETATM    6  C   UNL     1     -36.415  41.447 -54.970  1.00  0.00     0.164 A 
HETATM    7 CL   UNL     1     -36.285  42.333 -53.507  1.00  0.00    -0.059 Cl
HETATM    8  C   UNL     1     -36.292  40.071 -55.051  1.00  0.00     0.165 A 
HETATM    9  N   UNL     1     -36.472  39.391 -56.211  1.00  0.00    -0.234 NA
HETATM   10  C   UNL     1     -37.105  42.280 -58.377  1.00  0.00     0.034 A 
HETATM   11  C   UNL     1     -37.230  41.650 -59.614  1.00  0.00     0.002 A 
ENDROOT
BRANCH   8  12
HETATM   12  S   UNL     1     -35.902  39.021 -53.658  1.00  0.00     0.078 S 
HETATM   13  O   UNL     1     -37.054  39.125 -52.703  1.00  0.00    -0.251 OA
BRANCH  12  14
HETATM   14  C   UNL     1     -34.545  39.955 -52.884  1.00  0.00     0.112 C 
HETATM   15  C   UNL     1     -33.234  39.829 -53.664  1.00  0.00     0.250 C 
HETATM   16  N   UNL     1     -32.189  40.709 -53.023  1.00  0.00    -0.074 N 
HETATM   17  H   UNL     1     -32.449  41.700 -53.140  1.00  0.00     0.277 HD
HETATM   18  H   UNL     1     -31.310  40.599 -53.548  1.00  0.00     0.277 HD
HETATM   19  C   UNL     1     -31.941  40.404 -51.582  1.00  0.00     0.232 C 
HETATM   20  C   UNL     1     -33.248  40.528 -50.807  1.00  0.00     0.029 C 
HETATM   21  C   UNL     1     -34.356  39.651 -51.400  1.00  0.00     0.021 C 
ENDBRANCH  12  14
ENDBRANCH   8  12
TORSDOF 2
ENDMDL
MODEL 10
REMARK VINA RESULT:      -6.1      2.764      6.340
REMARK  2 active torsions:
REMARK  status: ('A' for Active; 'I' for Inactive)
REMARK    1  A    between atoms: C_8  and  S_9 
REMARK    2  A    between atoms: S_9  and  C_10 
ROOT
HETATM    1  C   UNL     1     -42.951  56.284 -59.574  1.00  0.00     0.002 A 
HETATM    2  C   UNL     1     -43.236  55.533 -58.433  1.00  0.00     0.034 A 
HETATM    3  C   UNL     1     -42.970  56.024 -57.161  1.00  0.00     0.087 A 
HETATM    4  C   UNL     1     -42.391  57.315 -57.028  1.00  0.00     0.087 A 
HETATM    5  N   UNL     1     -42.104  57.833 -55.818  1.00  0.00    -0.232 NA
HETATM    6  C   UNL     1     -42.345  57.045 -54.750  1.00  0.00     0.164 A 
HETATM    7 CL   UNL     1     -41.965  57.772 -53.244  1.00  0.00    -0.059 Cl
HETATM    8  C   UNL     1     -42.914  55.790 -54.878  1.00  0.00     0.165 A 
HETATM    9  N   UNL     1     -43.270  55.272 -56.080  1.00  0.00    -0.234 NA
HETATM   10  C   UNL     1     -42.121  58.055 -58.172  1.00  0.00     0.034 A 
HETATM   11  C   UNL     1     -42.396  57.550 -59.442  1.00  0.00     0.002 A 
ENDROOT
BRANCH   8  12
HETATM   12  S   UNL     1     -43.266  54.709 -53.499  1.00  0.00     0.078 S 
HETATM   13  O   UNL     1     -43.513  55.591 -52.311  1.00  0.00    -0.251 OA
BRANCH  12  14
HETATM   14  C   UNL     1     -41.631  53.961 -53.214  1.00  0.00     0.112 C 
HETATM   15  C   UNL     1     -41.355  52.790 -54.159  1.00  0.00     0.250 C 
HETATM   16  N   UNL     1     -39.949  52.291 -53.934  1.00  0.00    -0.074 N 
HETATM   17  H   UNL     1     -39.273  53.010 -54.233  1.00  0.00     0.277 HD
HETATM   18  H   UNL     1     -39.786  51.492 -54.564  1.00  0.00     0.277 HD
HETATM   19  C   UNL     1     -39.672  51.871 -52.528  1.00  0.00     0.232 C 
HETATM   20  C   UNL     1     -39.949  53.039 -51.588  1.00  0.00     0.029 C 
HETATM   21  C   UNL     1     -41.368  53.591 -51.756  1.00  0.00     0.021 C 
ENDBRANCH  12  14
ENDBRANCH   8  12
TORSDOF 2
ENDMDL
