MODEL 1
REMARK VINA RESULT:      -9.2      0.000      0.000
REMARK  8 active torsions:
REMARK  status: ('A' for Active; 'I' for Inactive)
REMARK    1  A    between atoms: O_2  and  C_3 
REMARK    2  A    between atoms: C_3  and  C_4 
REMARK    3  A    between atoms: N_7  and  C_8 
REMARK    4  A    between atoms: N_10  and  C_12 
REMARK    5  A    between atoms: C_22  and  C_23 
REMARK       I    between atoms: C_23  and  N_24 
REMARK    6  A    between atoms: N_24  and  C_25 
REMARK    7  A    between atoms: C_25  and  C_26 
REMARK    8  A    between atoms: C_26  and  C_27 
ROOT
HETATM    1  C   UNL     1     -44.239  60.647 -50.954  1.00  0.00     0.134 C 
HETATM    2  C   UNL     1     -44.582  59.253 -51.453  1.00  0.00     0.263 C 
HETATM    3  N   UNL     1     -43.403  58.879 -52.341  1.00  0.00    -0.051 N 
HETATM    4  H   UNL     1     -43.234  57.860 -52.201  1.00  0.00     0.281 HD
HETATM    5  C   UNL     1     -42.180  59.559 -51.647  1.00  0.00     0.281 C 
HETATM    6  C   UNL     1     -42.760  60.535 -50.624  1.00  0.00     0.072 C 
ENDROOT
BRANCH   5   7
HETATM    7  C   UNL     1     -41.336  58.468 -50.964  1.00  0.00     0.248 C 
HETATM    8  N   UNL     1     -41.976  57.302 -50.633  1.00  0.00    -0.359 N 
HETATM    9  H   UNL     1     -42.987  57.230 -50.654  1.00  0.00     0.162 HD
HETATM   10  O   UNL     1     -40.140  58.687 -50.770  1.00  0.00    -0.271 OA
BRANCH   8  11
HETATM   11  C   UNL     1     -41.241  56.214 -49.995  1.00  0.00     0.127 C 
BRANCH  11  12
HETATM   12  C   UNL     1     -42.011  54.893 -50.029  1.00  0.00     0.060 C 
BRANCH  12  13
HETATM   13  C   UNL     1     -41.193  53.777 -50.589  1.00  0.00    -0.029 A 
HETATM   14  C   UNL     1     -41.016  53.455 -51.974  1.00  0.00    -0.002 A 
HETATM   15  C   UNL     1     -40.185  52.337 -52.039  1.00  0.00     0.042 A 
HETATM   16  C   UNL     1     -41.490  54.009 -53.182  1.00  0.00     0.014 A 
HETATM   17  C   UNL     1     -39.804  51.743 -53.248  1.00  0.00     0.030 A 
HETATM   18  N   UNL     1     -39.859  51.996 -50.747  1.00  0.00    -0.365 N 
HETATM   19  C   UNL     1     -40.288  52.310 -54.429  1.00  0.00     0.002 A 
HETATM   20  C   UNL     1     -41.119  53.428 -54.400  1.00  0.00     0.001 A 
HETATM   21  H   UNL     1     -39.259  51.223 -50.494  1.00  0.00     0.165 HD
HETATM   22  C   UNL     1     -40.463  52.855 -49.866  1.00  0.00     0.096 A 
ENDBRANCH  12  13
ENDBRANCH  11  12
ENDBRANCH   8  11
ENDBRANCH   5   7
BRANCH   3  23
HETATM   23  C   UNL     1     -43.559  59.139 -53.834  1.00  0.00     0.197 C 
HETATM   24  C   UNL     1     -42.258  58.817 -54.625  1.00  0.00     0.017 C 
HETATM   25  C   UNL     1     -41.938  57.309 -54.610  1.00  0.00     0.011 C 
HETATM   26  C   UNL     1     -42.467  59.252 -56.092  1.00  0.00     0.011 C 
HETATM   27  C   UNL     1     -43.100  56.513 -55.222  1.00  0.00    -0.013 C 
HETATM   28  C   UNL     1     -44.382  56.789 -54.420  1.00  0.00     0.011 C 
HETATM   29  C   UNL     1     -43.306  56.963 -56.679  1.00  0.00     0.009 C 
HETATM   30  C   UNL     1     -44.713  58.295 -54.446  1.00  0.00     0.017 C 
HETATM   31  C   UNL     1     -44.908  58.728 -55.915  1.00  0.00     0.011 C 
HETATM   32  C   UNL     1     -43.628  58.466 -56.722  1.00  0.00    -0.013 C 
ENDBRANCH   3  23
BRANCH   1  33
HETATM   33  N   UNL     1     -45.034  61.081 -49.836  1.00  0.00    -0.276 N 
HETATM   34  N   UNL     1     -46.084  61.889 -50.032  1.00  0.00     0.005 NA
HETATM   35  N   UNL     1     -46.671  62.067 -48.856  1.00  0.00    -0.152 NA
HETATM   36  C   UNL     1     -45.979  61.348 -47.911  1.00  0.00     0.166 A 
HETATM   37  C   UNL     1     -44.918  60.716 -48.534  1.00  0.00     0.147 A 
BRANCH  36  38
HETATM   38  C   UNL     1     -46.337  61.271 -46.503  1.00  0.00     0.314 C 
HETATM   39  O   UNL     1     -45.769  61.931 -45.640  1.00  0.00    -0.257 OA
BRANCH  38  40
HETATM   40  O   UNL     1     -47.347  60.388 -46.264  1.00  0.00    -0.321 OA
HETATM   41  C   UNL     1     -46.919  59.145 -45.709  1.00  0.00     0.213 C 
ENDBRANCH  38  40
ENDBRANCH  36  38
ENDBRANCH   1  33
TORSDOF 8
ENDMDL
MODEL 2
REMARK VINA RESULT:      -9.0      3.267      7.079
REMARK  8 active torsions:
REMARK  status: ('A' for Active; 'I' for Inactive)
REMARK    1  A    between atoms: O_2  and  C_3 
REMARK    2  A    between atoms: C_3  and  C_4 
REMARK    3  A    between atoms: N_7  and  C_8 
REMARK    4  A    between atoms: N_10  and  C_12 
REMARK    5  A    between atoms: C_22  and  C_23 
REMARK       I    between atoms: C_23  and  N_24 
REMARK    6  A    between atoms: N_24  and  C_25 
REMARK    7  A    between atoms: C_25  and  C_26 
REMARK    8  A    between atoms: C_26  and  C_27 
ROOT
HETATM    1  C   UNL     1     -44.033  57.886 -55.037  1.00  0.00     0.134 C 
HETATM    2  C   UNL     1     -42.923  58.499 -54.199  1.00  0.00     0.263 C 
HETATM    3  N   UNL     1     -43.635  58.982 -52.942  1.00  0.00    -0.051 N 
HETATM    4  H   UNL     1     -42.982  58.820 -52.147  1.00  0.00     0.281 HD
HETATM    5  C   UNL     1     -44.764  57.925 -52.720  1.00  0.00     0.281 C 
HETATM    6  C   UNL     1     -44.845  57.113 -54.012  1.00  0.00     0.072 C 
ENDROOT
BRANCH   5   7
HETATM    7  C   UNL     1     -44.374  57.038 -51.525  1.00  0.00     0.248 C 
HETATM    8  N   UNL     1     -43.194  56.347 -51.620  1.00  0.00    -0.359 N 
HETATM    9  H   UNL     1     -42.701  56.265 -52.502  1.00  0.00     0.162 HD
HETATM   10  O   UNL     1     -45.122  57.010 -50.547  1.00  0.00    -0.271 OA
BRANCH   8  11
HETATM   11  C   UNL     1     -42.748  55.494 -50.523  1.00  0.00     0.127 C 
BRANCH  11  12
HETATM   12  C   UNL     1     -41.224  55.387 -50.451  1.00  0.00     0.060 C 
BRANCH  12  13
HETATM   13  C   UNL     1     -40.733  54.037 -50.854  1.00  0.00    -0.029 A 
HETATM   14  C   UNL     1     -40.543  53.558 -52.191  1.00  0.00    -0.002 A 
HETATM   15  C   UNL     1     -40.082  52.244 -52.102  1.00  0.00     0.042 A 
HETATM   16  C   UNL     1     -40.724  54.119 -53.473  1.00  0.00     0.014 A 
HETATM   17  C   UNL     1     -39.795  51.463 -53.226  1.00  0.00     0.030 A 
HETATM   18  N   UNL     1     -39.985  51.937 -50.765  1.00  0.00    -0.365 N 
HETATM   19  C   UNL     1     -39.984  52.041 -54.484  1.00  0.00     0.002 A 
HETATM   20  C   UNL     1     -40.441  53.351 -54.609  1.00  0.00     0.001 A 
HETATM   21  H   UNL     1     -39.668  51.048 -50.404  1.00  0.00     0.165 HD
HETATM   22  C   UNL     1     -40.377  53.008 -50.005  1.00  0.00     0.096 A 
ENDBRANCH  12  13
ENDBRANCH  11  12
ENDBRANCH   8  11
ENDBRANCH   5   7
BRANCH   3  23
HETATM   23  C   UNL     1     -44.068  60.443 -52.918  1.00  0.00     0.197 C 
HETATM   24  C   UNL     1     -45.247  60.689 -51.934  1.00  0.00     0.017 C 
HETATM   25  C   UNL     1     -44.824  60.472 -50.468  1.00  0.00     0.011 C 
HETATM   26  C   UNL     1     -45.708  62.155 -52.092  1.00  0.00     0.011 C 
HETATM   27  C   UNL     1     -43.670  61.416 -50.103  1.00  0.00    -0.013 C 
HETATM   28  C   UNL     1     -42.481  61.150 -51.040  1.00  0.00     0.011 C 
HETATM   29  C   UNL     1     -44.136  62.871 -50.275  1.00  0.00     0.009 C 
HETATM   30  C   UNL     1     -42.897  61.381 -52.506  1.00  0.00     0.017 C 
HETATM   31  C   UNL     1     -43.369  62.844 -52.656  1.00  0.00     0.011 C 
HETATM   32  C   UNL     1     -44.564  63.116 -51.731  1.00  0.00    -0.013 C 
ENDBRANCH   3  23
BRANCH   1  33
HETATM   33  N   UNL     1     -43.563  57.063 -56.120  1.00  0.00    -0.276 N 
HETATM   34  N   UNL     1     -42.890  55.934 -55.861  1.00  0.00     0.005 NA
HETATM   35  N   UNL     1     -42.645  55.344 -57.024  1.00  0.00    -0.152 NA
HETATM   36  C   UNL     1     -43.186  56.115 -58.025  1.00  0.00     0.166 A 
HETATM   37  C   UNL     1     -43.773  57.229 -57.450  1.00  0.00     0.147 A 
BRANCH  36  38
HETATM   38  C   UNL     1     -43.147  55.781 -59.441  1.00  0.00     0.314 C 
HETATM   39  O   UNL     1     -42.402  56.349 -60.232  1.00  0.00    -0.257 OA
BRANCH  38  40
HETATM   40  O   UNL     1     -44.026  54.795 -59.773  1.00  0.00    -0.321 OA
HETATM   41  C   UNL     1     -44.890  55.122 -60.860  1.00  0.00     0.213 C 
ENDBRANCH  38  40
ENDBRANCH  36  38
ENDBRANCH   1  33
TORSDOF 8
ENDMDL
MODEL 3
REMARK VINA RESULT:      -8.8      2.896      6.167
REMARK  8 active torsions:
REMARK  status: ('A' for Active; 'I' for Inactive)
REMARK    1  A    between atoms: O_2  and  C_3 
REMARK    2  A    between atoms: C_3  and  C_4 
REMARK    3  A    between atoms: N_7  and  C_8 
REMARK    4  A    between atoms: N_10  and  C_12 
REMARK    5  A    between atoms: C_22  and  C_23 
REMARK       I    between atoms: C_23  and  N_24 
REMARK    6  A    between atoms: N_24  and  C_25 
REMARK    7  A    between atoms: C_25  and  C_26 
REMARK    8  A    between atoms: C_26  and  C_27 
ROOT
HETATM    1  C   UNL     1     -44.729  58.450 -52.110  1.00  0.00     0.134 C 
HETATM    2  C   UNL     1     -43.252  58.137 -52.288  1.00  0.00     0.263 C 
HETATM    3  N   UNL     1     -43.168  57.538 -53.686  1.00  0.00    -0.051 N 
HETATM    4  H   UNL     1     -42.273  57.871 -54.101  1.00  0.00     0.281 HD
HETATM    5  C   UNL     1     -44.263  58.308 -54.491  1.00  0.00     0.281 C 
HETATM    6  C   UNL     1     -45.115  59.041 -53.455  1.00  0.00     0.072 C 
ENDROOT
BRANCH   5   7
HETATM    7  C   UNL     1     -43.566  59.296 -55.442  1.00  0.00     0.248 C 
HETATM    8  N   UNL     1     -43.130  58.802 -56.644  1.00  0.00    -0.359 N 
HETATM    9  H   UNL     1     -43.087  57.804 -56.820  1.00  0.00     0.162 HD
HETATM   10  O   UNL     1     -43.456  60.471 -55.090  1.00  0.00    -0.271 OA
BRANCH   8  11
HETATM   11  C   UNL     1     -42.472  59.679 -57.607  1.00  0.00     0.127 C 
BRANCH  11  12
HETATM   12  C   UNL     1     -42.114  58.954 -58.905  1.00  0.00     0.060 C 
BRANCH  12  13
HETATM   13  C   UNL     1     -43.316  58.400 -59.593  1.00  0.00    -0.029 A 
HETATM   14  C   UNL     1     -43.733  57.029 -59.620  1.00  0.00    -0.002 A 
HETATM   15  C   UNL     1     -44.899  56.962 -60.383  1.00  0.00     0.042 A 
HETATM   16  C   UNL     1     -43.223  55.835 -59.068  1.00  0.00     0.014 A 
HETATM   17  C   UNL     1     -45.580  55.764 -60.624  1.00  0.00     0.030 A 
HETATM   18  N   UNL     1     -45.188  58.241 -60.796  1.00  0.00    -0.365 N 
HETATM   19  C   UNL     1     -45.054  54.595 -60.068  1.00  0.00     0.002 A 
HETATM   20  C   UNL     1     -43.893  54.627 -59.300  1.00  0.00     0.001 A 
HETATM   21  H   UNL     1     -45.987  58.492 -61.362  1.00  0.00     0.165 HD
HETATM   22  C   UNL     1     -44.241  59.114 -60.329  1.00  0.00     0.096 A 
ENDBRANCH  12  13
ENDBRANCH  11  12
ENDBRANCH   8  11
ENDBRANCH   5   7
BRANCH   3  23
HETATM   23  C   UNL     1     -43.207  56.018 -53.784  1.00  0.00     0.197 C 
HETATM   24  C   UNL     1     -42.958  55.517 -55.235  1.00  0.00     0.017 C 
HETATM   25  C   UNL     1     -41.520  55.816 -55.705  1.00  0.00     0.011 C 
HETATM   26  C   UNL     1     -43.164  53.986 -55.259  1.00  0.00     0.011 C 
HETATM   27  C   UNL     1     -40.505  55.146 -54.768  1.00  0.00    -0.013 C 
HETATM   28  C   UNL     1     -40.713  55.668 -53.338  1.00  0.00     0.011 C 
HETATM   29  C   UNL     1     -40.728  53.624 -54.791  1.00  0.00     0.009 C 
HETATM   30  C   UNL     1     -42.145  55.356 -52.860  1.00  0.00     0.017 C 
HETATM   31  C   UNL     1     -42.351  53.827 -52.897  1.00  0.00     0.011 C 
HETATM   32  C   UNL     1     -42.156  53.297 -54.325  1.00  0.00    -0.013 C 
ENDBRANCH   3  23
BRANCH   1  33
HETATM   33  N   UNL     1     -45.013  59.328 -51.006  1.00  0.00    -0.276 N 
HETATM   34  N   UNL     1     -45.998  59.032 -50.148  1.00  0.00     0.005 NA
HETATM   35  N   UNL     1     -45.990  59.960 -49.201  1.00  0.00    -0.152 NA
HETATM   36  C   UNL     1     -44.975  60.847 -49.469  1.00  0.00     0.166 A 
HETATM   37  C   UNL     1     -44.345  60.450 -50.636  1.00  0.00     0.147 A 
BRANCH  36  38
HETATM   38  C   UNL     1     -44.633  61.991 -48.638  1.00  0.00     0.314 C 
HETATM   39  O   UNL     1     -44.192  63.037 -49.103  1.00  0.00    -0.257 OA
BRANCH  38  40
HETATM   40  O   UNL     1     -44.844  61.760 -47.312  1.00  0.00    -0.321 OA
HETATM   41  C   UNL     1     -45.287  62.903 -46.581  1.00  0.00     0.213 C 
ENDBRANCH  38  40
ENDBRANCH  36  38
ENDBRANCH   1  33
TORSDOF 8
ENDMDL
MODEL 4
REMARK VINA RESULT:      -8.6      2.919      4.538
REMARK  8 active torsions:
REMARK  status: ('A' for Active; 'I' for Inactive)
REMARK    1  A    between atoms: O_2  and  C_3 
REMARK    2  A    between atoms: C_3  and  C_4 
REMARK    3  A    between atoms: N_7  and  C_8 
REMARK    4  A    between atoms: N_10  and  C_12 
REMARK    5  A    between atoms: C_22  and  C_23 
REMARK       I    between atoms: C_23  and  N_24 
REMARK    6  A    between atoms: N_24  and  C_25 
REMARK    7  A    between atoms: C_25  and  C_26 
REMARK    8  A    between atoms: C_26  and  C_27 
ROOT
HETATM    1  C   UNL     1     -44.380  58.704 -54.549  1.00  0.00     0.134 C 
HETATM    2  C   UNL     1     -45.366  57.893 -55.375  1.00  0.00     0.263 C 
HETATM    3  N   UNL     1     -44.606  57.589 -56.660  1.00  0.00    -0.051 N 
HETATM    4  H   UNL     1     -44.883  56.628 -56.951  1.00  0.00     0.281 HD
HETATM    5  C   UNL     1     -43.125  57.425 -56.191  1.00  0.00     0.281 C 
HETATM    6  C   UNL     1     -43.070  57.964 -54.761  1.00  0.00     0.072 C 
ENDROOT
BRANCH   5   7
HETATM    7  C   UNL     1     -42.759  55.932 -56.239  1.00  0.00     0.248 C 
HETATM    8  N   UNL     1     -42.174  55.397 -55.121  1.00  0.00    -0.359 N 
HETATM    9  H   UNL     1     -41.820  55.987 -54.377  1.00  0.00     0.162 HD
HETATM   10  O   UNL     1     -43.025  55.296 -57.260  1.00  0.00    -0.271 OA
BRANCH   8  11
HETATM   11  C   UNL     1     -41.810  53.984 -55.083  1.00  0.00     0.127 C 
BRANCH  11  12
HETATM   12  C   UNL     1     -40.362  53.767 -54.642  1.00  0.00     0.060 C 
BRANCH  12  13
HETATM   13  C   UNL     1     -40.269  53.204 -53.264  1.00  0.00    -0.029 A 
HETATM   14  C   UNL     1     -40.004  51.841 -52.910  1.00  0.00    -0.002 A 
HETATM   15  C   UNL     1     -40.017  51.760 -51.518  1.00  0.00     0.042 A 
HETATM   16  C   UNL     1     -39.757  50.663 -53.648  1.00  0.00     0.014 A 
HETATM   17  C   UNL     1     -39.799  50.565 -50.825  1.00  0.00     0.030 A 
HETATM   18  N   UNL     1     -40.271  53.024 -51.040  1.00  0.00    -0.365 N 
HETATM   19  C   UNL     1     -39.558  49.413 -51.578  1.00  0.00     0.002 A 
HETATM   20  C   UNL     1     -39.536  49.458 -52.970  1.00  0.00     0.001 A 
HETATM   21  H   UNL     1     -40.330  53.264 -50.060  1.00  0.00     0.165 HD
HETATM   22  C   UNL     1     -40.427  53.901 -52.082  1.00  0.00     0.096 A 
ENDBRANCH  12  13
ENDBRANCH  11  12
ENDBRANCH   8  11
ENDBRANCH   5   7
BRANCH   3  23
HETATM   23  C   UNL     1     -44.838  58.532 -57.834  1.00  0.00     0.197 C 
HETATM   24  C   UNL     1     -44.470  57.875 -59.195  1.00  0.00     0.017 C 
HETATM   25  C   UNL     1     -45.420  56.713 -59.546  1.00  0.00     0.011 C 
HETATM   26  C   UNL     1     -44.595  58.950 -60.298  1.00  0.00     0.011 C 
HETATM   27  C   UNL     1     -46.870  57.214 -59.613  1.00  0.00    -0.013 C 
HETATM   28  C   UNL     1     -47.259  57.824 -58.257  1.00  0.00     0.011 C 
HETATM   29  C   UNL     1     -46.980  58.291 -60.705  1.00  0.00     0.009 C 
HETATM   30  C   UNL     1     -46.320  58.997 -57.912  1.00  0.00     0.017 C 
HETATM   31  C   UNL     1     -46.439  60.063 -59.023  1.00  0.00     0.011 C 
HETATM   32  C   UNL     1     -46.042  59.464 -60.380  1.00  0.00    -0.013 C 
ENDBRANCH   3  23
BRANCH   1  33
HETATM   33  N   UNL     1     -44.741  58.824 -53.161  1.00  0.00    -0.276 N 
HETATM   34  N   UNL     1     -44.735  57.744 -52.370  1.00  0.00     0.005 NA
HETATM   35  N   UNL     1     -45.031  58.150 -51.143  1.00  0.00    -0.152 NA
HETATM   36  C   UNL     1     -45.214  59.513 -51.168  1.00  0.00     0.166 A 
HETATM   37  C   UNL     1     -45.036  59.953 -52.467  1.00  0.00     0.147 A 
BRANCH  36  38
HETATM   38  C   UNL     1     -45.526  60.328 -50.004  1.00  0.00     0.314 C 
HETATM   39  O   UNL     1     -45.955  59.851 -48.959  1.00  0.00    -0.257 OA
BRANCH  38  40
HETATM   40  O   UNL     1     -45.301  61.655 -50.216  1.00  0.00    -0.321 OA
HETATM   41  C   UNL     1     -46.464  62.474 -50.091  1.00  0.00     0.213 C 
ENDBRANCH  38  40
ENDBRANCH  36  38
ENDBRANCH   1  33
TORSDOF 8
ENDMDL
MODEL 5
REMARK VINA RESULT:      -8.5      3.610      7.259
REMARK  8 active torsions:
REMARK  status: ('A' for Active; 'I' for Inactive)
REMARK    1  A    between atoms: O_2  and  C_3 
REMARK    2  A    between atoms: C_3  and  C_4 
REMARK    3  A    between atoms: N_7  and  C_8 
REMARK    4  A    between atoms: N_10  and  C_12 
REMARK    5  A    between atoms: C_22  and  C_23 
REMARK       I    between atoms: C_23  and  N_24 
REMARK    6  A    between atoms: N_24  and  C_25 
REMARK    7  A    between atoms: C_25  and  C_26 
REMARK    8  A    between atoms: C_26  and  C_27 
ROOT
HETATM    1  C   UNL     1     -45.095  58.405 -55.824  1.00  0.00     0.134 C 
HETATM    2  C   UNL     1     -44.112  59.486 -55.404  1.00  0.00     0.263 C 
HETATM    3  N   UNL     1     -44.208  59.500 -53.884  1.00  0.00    -0.051 N 
HETATM    4  H   UNL     1     -43.247  59.682 -53.526  1.00  0.00     0.281 HD
HETATM    5  C   UNL     1     -44.468  58.005 -53.510  1.00  0.00     0.281 C 
HETATM    6  C   UNL     1     -44.834  57.299 -54.815  1.00  0.00     0.072 C 
ENDROOT
BRANCH   5   7
HETATM    7  C   UNL     1     -43.181  57.422 -52.901  1.00  0.00     0.248 C 
HETATM    8  N   UNL     1     -42.502  56.495 -53.649  1.00  0.00    -0.359 N 
HETATM    9  H   UNL     1     -42.921  56.068 -54.467  1.00  0.00     0.162 HD
HETATM   10  O   UNL     1     -42.819  57.827 -51.796  1.00  0.00    -0.271 OA
BRANCH   8  11
HETATM   11  C   UNL     1     -41.265  55.906 -53.147  1.00  0.00     0.127 C 
BRANCH  11  12
HETATM   12  C   UNL     1     -40.920  54.591 -53.847  1.00  0.00     0.060 C 
BRANCH  12  13
HETATM   13  C   UNL     1     -40.474  53.539 -52.887  1.00  0.00    -0.029 A 
HETATM   14  C   UNL     1     -40.205  52.164 -53.186  1.00  0.00    -0.002 A 
HETATM   15  C   UNL     1     -39.826  51.545 -51.995  1.00  0.00     0.042 A 
HETATM   16  C   UNL     1     -40.253  51.385 -54.361  1.00  0.00     0.014 A 
HETATM   17  C   UNL     1     -39.494  50.188 -51.917  1.00  0.00     0.030 A 
HETATM   18  N   UNL     1     -39.852  52.505 -51.011  1.00  0.00    -0.365 N 
HETATM   19  C   UNL     1     -39.551  49.438 -53.094  1.00  0.00     0.002 A 
HETATM   20  C   UNL     1     -39.924  50.025 -54.301  1.00  0.00     0.001 A 
HETATM   21  H   UNL     1     -39.614  52.338 -50.043  1.00  0.00     0.165 HD
HETATM   22  C   UNL     1     -40.243  53.709 -51.536  1.00  0.00     0.096 A 
ENDBRANCH  12  13
ENDBRANCH  11  12
ENDBRANCH   8  11
ENDBRANCH   5   7
BRANCH   3  23
HETATM   23  C   UNL     1     -45.153  60.522 -53.265  1.00  0.00     0.197 C 
HETATM   24  C   UNL     1     -45.204  60.410 -51.715  1.00  0.00     0.017 C 
HETATM   25  C   UNL     1     -43.863  60.806 -51.068  1.00  0.00     0.011 C 
HETATM   26  C   UNL     1     -46.293  61.376 -51.198  1.00  0.00     0.011 C 
HETATM   27  C   UNL     1     -43.493  62.246 -51.449  1.00  0.00    -0.013 C 
HETATM   28  C   UNL     1     -43.395  62.357 -52.978  1.00  0.00     0.011 C 
HETATM   29  C   UNL     1     -44.590  63.198 -50.940  1.00  0.00     0.009 C 
HETATM   30  C   UNL     1     -44.741  61.977 -53.627  1.00  0.00     0.017 C 
HETATM   31  C   UNL     1     -45.828  62.938 -53.098  1.00  0.00     0.011 C 
HETATM   32  C   UNL     1     -45.941  62.825 -51.571  1.00  0.00    -0.013 C 
ENDBRANCH   3  23
BRANCH   1  33
HETATM   33  N   UNL     1     -44.941  57.971 -57.187  1.00  0.00    -0.276 N 
HETATM   34  N   UNL     1     -45.820  58.361 -58.120  1.00  0.00     0.005 NA
HETATM   35  N   UNL     1     -45.401  57.882 -59.283  1.00  0.00    -0.152 NA
HETATM   36  C   UNL     1     -44.233  57.189 -59.074  1.00  0.00     0.166 A 
HETATM   37  C   UNL     1     -43.935  57.235 -57.723  1.00  0.00     0.147 A 
BRANCH  36  38
HETATM   38  C   UNL     1     -43.456  56.541 -60.119  1.00  0.00     0.314 C 
HETATM   39  O   UNL     1     -42.258  56.752 -60.277  1.00  0.00    -0.257 OA
BRANCH  38  40
HETATM   40  O   UNL     1     -44.204  55.702 -60.888  1.00  0.00    -0.321 OA
HETATM   41  C   UNL     1     -44.713  54.565 -60.191  1.00  0.00     0.213 C 
ENDBRANCH  38  40
ENDBRANCH  36  38
ENDBRANCH   1  33
TORSDOF 8
ENDMDL
MODEL 6
REMARK VINA RESULT:      -8.5      2.755      4.424
REMARK  8 active torsions:
REMARK  status: ('A' for Active; 'I' for Inactive)
REMARK    1  A    between atoms: O_2  and  C_3 
REMARK    2  A    between atoms: C_3  and  C_4 
REMARK    3  A    between atoms: N_7  and  C_8 
REMARK    4  A    between atoms: N_10  and  C_12 
REMARK    5  A    between atoms: C_22  and  C_23 
REMARK       I    between atoms: C_23  and  N_24 
REMARK    6  A    between atoms: N_24  and  C_25 
REMARK    7  A    between atoms: C_25  and  C_26 
REMARK    8  A    between atoms: C_26  and  C_27 
ROOT
HETATM    1  C   UNL     1     -44.317  58.726 -54.506  1.00  0.00     0.134 C 
HETATM    2  C   UNL     1     -45.312  57.902 -55.307  1.00  0.00     0.263 C 
HETATM    3  N   UNL     1     -44.532  57.489 -56.549  1.00  0.00    -0.051 N 
HETATM    4  H   UNL     1     -44.839  56.522 -56.787  1.00  0.00     0.281 HD
HETATM    5  C   UNL     1     -43.071  57.300 -56.029  1.00  0.00     0.281 C 
HETATM    6  C   UNL     1     -43.032  57.925 -54.635  1.00  0.00     0.072 C 
ENDROOT
BRANCH   5   7
HETATM    7  C   UNL     1     -42.762  55.794 -55.974  1.00  0.00     0.248 C 
HETATM    8  N   UNL     1     -42.315  55.292 -54.780  1.00  0.00    -0.359 N 
HETATM    9  H   UNL     1     -42.014  55.904 -54.030  1.00  0.00     0.162 HD
HETATM   10  O   UNL     1     -42.950  55.119 -56.988  1.00  0.00    -0.271 OA
BRANCH   8  11
HETATM   11  C   UNL     1     -42.014  53.871 -54.643  1.00  0.00     0.127 C 
BRANCH  11  12
HETATM   12  C   UNL     1     -40.545  53.616 -54.302  1.00  0.00     0.060 C 
BRANCH  12  13
HETATM   13  C   UNL     1     -40.366  53.124 -52.905  1.00  0.00    -0.029 A 
HETATM   14  C   UNL     1     -40.651  53.844 -51.699  1.00  0.00    -0.002 A 
HETATM   15  C   UNL     1     -40.328  53.010 -50.629  1.00  0.00     0.042 A 
HETATM   16  C   UNL     1     -41.152  55.132 -51.417  1.00  0.00     0.014 A 
HETATM   17  C   UNL     1     -40.478  53.397 -49.293  1.00  0.00     0.030 A 
HETATM   18  N   UNL     1     -39.874  51.825 -51.160  1.00  0.00    -0.365 N 
HETATM   19  C   UNL     1     -40.974  54.678 -49.041  1.00  0.00     0.002 A 
HETATM   20  C   UNL     1     -41.308  55.536 -50.086  1.00  0.00     0.001 A 
HETATM   21  H   UNL     1     -39.575  51.030 -50.611  1.00  0.00     0.165 HD
HETATM   22  C   UNL     1     -39.890  51.884 -52.529  1.00  0.00     0.096 A 
ENDBRANCH  12  13
ENDBRANCH  11  12
ENDBRANCH   8  11
ENDBRANCH   5   7
BRANCH   3  23
HETATM   23  C   UNL     1     -44.698  58.363 -57.786  1.00  0.00     0.197 C 
HETATM   24  C   UNL     1     -44.364  57.595 -59.096  1.00  0.00     0.017 C 
HETATM   25  C   UNL     1     -45.384  56.474 -59.378  1.00  0.00     0.011 C 
HETATM   26  C   UNL     1     -44.415  58.599 -60.269  1.00  0.00     0.011 C 
HETATM   27  C   UNL     1     -46.799  57.059 -59.492  1.00  0.00    -0.013 C 
HETATM   28  C   UNL     1     -47.156  57.782 -58.185  1.00  0.00     0.011 C 
HETATM   29  C   UNL     1     -46.834  58.065 -60.655  1.00  0.00     0.009 C 
HETATM   30  C   UNL     1     -46.147  58.915 -57.909  1.00  0.00     0.017 C 
HETATM   31  C   UNL     1     -46.192  59.909 -59.089  1.00  0.00     0.011 C 
HETATM   32  C   UNL     1     -45.825  59.196 -60.400  1.00  0.00    -0.013 C 
ENDBRANCH   3  23
BRANCH   1  33
HETATM   33  N   UNL     1     -44.707  58.947 -53.139  1.00  0.00    -0.276 N 
HETATM   34  N   UNL     1     -44.488  58.001 -52.216  1.00  0.00     0.005 NA
HETATM   35  N   UNL     1     -44.872  58.493 -51.046  1.00  0.00    -0.152 NA
HETATM   36  C   UNL     1     -45.331  59.774 -51.242  1.00  0.00     0.166 A 
HETATM   37  C   UNL     1     -45.235  60.071 -52.590  1.00  0.00     0.147 A 
BRANCH  36  38
HETATM   38  C   UNL     1     -45.815  60.651 -50.187  1.00  0.00     0.314 C 
HETATM   39  O   UNL     1     -46.106  61.825 -50.386  1.00  0.00    -0.257 OA
BRANCH  38  40
HETATM   40  O   UNL     1     -45.889  60.028 -48.977  1.00  0.00    -0.321 OA
HETATM   41  C   UNL     1     -45.555  60.861 -47.867  1.00  0.00     0.213 C 
ENDBRANCH  38  40
ENDBRANCH  36  38
ENDBRANCH   1  33
TORSDOF 8
ENDMDL
MODEL 7
REMARK VINA RESULT:      -8.4      3.137      6.724
REMARK  8 active torsions:
REMARK  status: ('A' for Active; 'I' for Inactive)
REMARK    1  A    between atoms: O_2  and  C_3 
REMARK    2  A    between atoms: C_3  and  C_4 
REMARK    3  A    between atoms: N_7  and  C_8 
REMARK    4  A    between atoms: N_10  and  C_12 
REMARK    5  A    between atoms: C_22  and  C_23 
REMARK       I    between atoms: C_23  and  N_24 
REMARK    6  A    between atoms: N_24  and  C_25 
REMARK    7  A    between atoms: C_25  and  C_26 
REMARK    8  A    between atoms: C_26  and  C_27 
ROOT
HETATM    1  C   UNL     1     -41.619  57.202 -50.179  1.00  0.00     0.134 C 
HETATM    2  C   UNL     1     -42.885  57.376 -51.002  1.00  0.00     0.263 C 
HETATM    3  N   UNL     1     -42.845  58.837 -51.433  1.00  0.00    -0.051 N 
HETATM    4  H   UNL     1     -43.232  58.874 -52.399  1.00  0.00     0.281 HD
HETATM    5  C   UNL     1     -41.323  59.128 -51.630  1.00  0.00     0.281 C 
HETATM    6  C   UNL     1     -40.579  57.955 -50.992  1.00  0.00     0.072 C 
ENDROOT
BRANCH   5   7
HETATM    7  C   UNL     1     -41.033  59.219 -53.138  1.00  0.00     0.248 C 
HETATM    8  N   UNL     1     -42.093  59.501 -53.961  1.00  0.00    -0.359 N 
HETATM    9  H   UNL     1     -43.048  59.458 -53.624  1.00  0.00     0.162 HD
HETATM   10  O   UNL     1     -39.875  59.056 -53.524  1.00  0.00    -0.271 OA
BRANCH   8  11
HETATM   11  C   UNL     1     -41.897  59.618 -55.402  1.00  0.00     0.127 C 
BRANCH  11  12
HETATM   12  C   UNL     1     -42.937  58.827 -56.198  1.00  0.00     0.060 C 
BRANCH  12  13
HETATM   13  C   UNL     1     -43.509  57.696 -55.410  1.00  0.00    -0.029 A 
HETATM   14  C   UNL     1     -42.858  56.462 -55.086  1.00  0.00    -0.002 A 
HETATM   15  C   UNL     1     -43.760  55.695 -54.349  1.00  0.00     0.042 A 
HETATM   16  C   UNL     1     -41.582  55.922 -55.354  1.00  0.00     0.014 A 
HETATM   17  C   UNL     1     -43.455  54.417 -53.868  1.00  0.00     0.030 A 
HETATM   18  N   UNL     1     -44.912  56.435 -54.220  1.00  0.00    -0.365 N 
HETATM   19  C   UNL     1     -42.186  53.905 -54.149  1.00  0.00     0.002 A 
HETATM   20  C   UNL     1     -41.261  54.644 -54.881  1.00  0.00     0.001 A 
HETATM   21  H   UNL     1     -45.737  56.128 -53.723  1.00  0.00     0.165 HD
HETATM   22  C   UNL     1     -44.773  57.640 -54.858  1.00  0.00     0.096 A 
ENDBRANCH  12  13
ENDBRANCH  11  12
ENDBRANCH   8  11
ENDBRANCH   5   7
BRANCH   3  23
HETATM   23  C   UNL     1     -43.613  59.829 -50.569  1.00  0.00     0.197 C 
HETATM   24  C   UNL     1     -43.554  61.274 -51.143  1.00  0.00     0.017 C 
HETATM   25  C   UNL     1     -44.309  61.389 -52.482  1.00  0.00     0.011 C 
HETATM   26  C   UNL     1     -44.228  62.223 -50.127  1.00  0.00     0.011 C 
HETATM   27  C   UNL     1     -45.779  60.987 -52.300  1.00  0.00    -0.013 C 
HETATM   28  C   UNL     1     -45.850  59.544 -51.777  1.00  0.00     0.011 C 
HETATM   29  C   UNL     1     -46.436  61.931 -51.278  1.00  0.00     0.009 C 
HETATM   30  C   UNL     1     -45.109  59.429 -50.429  1.00  0.00     0.017 C 
HETATM   31  C   UNL     1     -45.778  60.388 -49.421  1.00  0.00     0.011 C 
HETATM   32  C   UNL     1     -45.703  61.835 -49.931  1.00  0.00    -0.013 C 
ENDBRANCH   3  23
BRANCH   1  33
HETATM   33  N   UNL     1     -41.260  55.828 -49.941  1.00  0.00    -0.276 N 
HETATM   34  N   UNL     1     -41.357  55.313 -48.709  1.00  0.00     0.005 NA
HETATM   35  N   UNL     1     -41.039  54.028 -48.791  1.00  0.00    -0.152 NA
HETATM   36  C   UNL     1     -40.747  53.735 -50.102  1.00  0.00     0.166 A 
HETATM   37  C   UNL     1     -40.881  54.893 -50.848  1.00  0.00     0.147 A 
BRANCH  36  38
HETATM   38  C   UNL     1     -40.380  52.416 -50.594  1.00  0.00     0.314 C 
HETATM   39  O   UNL     1     -40.399  51.417 -49.883  1.00  0.00    -0.257 OA
BRANCH  38  40
HETATM   40  O   UNL     1     -40.009  52.428 -51.905  1.00  0.00    -0.321 OA
HETATM   41  C   UNL     1     -39.505  51.182 -52.384  1.00  0.00     0.213 C 
ENDBRANCH  38  40
ENDBRANCH  36  38
ENDBRANCH   1  33
TORSDOF 8
ENDMDL
MODEL 8
REMARK VINA RESULT:      -8.3      3.197      7.853
REMARK  8 active torsions:
REMARK  status: ('A' for Active; 'I' for Inactive)
REMARK    1  A    between atoms: O_2  and  C_3 
REMARK    2  A    between atoms: C_3  and  C_4 
REMARK    3  A    between atoms: N_7  and  C_8 
REMARK    4  A    between atoms: N_10  and  C_12 
REMARK    5  A    between atoms: C_22  and  C_23 
REMARK       I    between atoms: C_23  and  N_24 
REMARK    6  A    between atoms: N_24  and  C_25 
REMARK    7  A    between atoms: C_25  and  C_26 
REMARK    8  A    between atoms: C_26  and  C_27 
ROOT
HETATM    1  C   UNL     1     -42.701  55.057 -54.771  1.00  0.00     0.134 C 
HETATM    2  C   UNL     1     -42.159  56.354 -55.349  1.00  0.00     0.263 C 
HETATM    3  N   UNL     1     -43.400  57.080 -55.851  1.00  0.00    -0.051 N 
HETATM    4  H   UNL     1     -43.248  58.094 -55.668  1.00  0.00     0.281 HD
HETATM    5  C   UNL     1     -44.510  56.678 -54.827  1.00  0.00     0.281 C 
HETATM    6  C   UNL     1     -43.941  55.512 -54.020  1.00  0.00     0.072 C 
ENDROOT
BRANCH   5   7
HETATM    7  C   UNL     1     -44.806  57.890 -53.926  1.00  0.00     0.248 C 
HETATM    8  N   UNL     1     -45.191  59.049 -54.548  1.00  0.00    -0.359 N 
HETATM    9  H   UNL     1     -45.097  59.167 -55.550  1.00  0.00     0.162 HD
HETATM   10  O   UNL     1     -44.704  57.752 -52.707  1.00  0.00    -0.271 OA
BRANCH   8  11
HETATM   11  C   UNL     1     -45.504  60.239 -53.762  1.00  0.00     0.127 C 
BRANCH  11  12
HETATM   12  C   UNL     1     -44.321  61.203 -53.669  1.00  0.00     0.060 C 
BRANCH  12  13
HETATM   13  C   UNL     1     -43.516  60.992 -52.430  1.00  0.00    -0.029 A 
HETATM   14  C   UNL     1     -42.309  60.229 -52.312  1.00  0.00    -0.002 A 
HETATM   15  C   UNL     1     -41.904  60.292 -50.978  1.00  0.00     0.042 A 
HETATM   16  C   UNL     1     -41.523  59.484 -53.216  1.00  0.00     0.014 A 
HETATM   17  C   UNL     1     -40.756  59.650 -50.502  1.00  0.00     0.030 A 
HETATM   18  N   UNL     1     -42.821  61.071 -50.312  1.00  0.00    -0.365 N 
HETATM   19  C   UNL     1     -39.996  58.918 -51.417  1.00  0.00     0.002 A 
HETATM   20  C   UNL     1     -40.371  58.834 -52.756  1.00  0.00     0.001 A 
HETATM   21  H   UNL     1     -42.773  61.295 -49.327  1.00  0.00     0.165 HD
HETATM   22  C   UNL     1     -43.797  61.495 -51.175  1.00  0.00     0.096 A 
ENDBRANCH  12  13
ENDBRANCH  11  12
ENDBRANCH   8  11
ENDBRANCH   5   7
BRANCH   3  23
HETATM   23  C   UNL     1     -43.750  56.905 -57.324  1.00  0.00     0.197 C 
HETATM   24  C   UNL     1     -44.782  57.961 -57.811  1.00  0.00     0.017 C 
HETATM   25  C   UNL     1     -44.191  59.385 -57.806  1.00  0.00     0.011 C 
HETATM   26  C   UNL     1     -45.182  57.610 -59.262  1.00  0.00     0.011 C 
HETATM   27  C   UNL     1     -42.952  59.449 -58.710  1.00  0.00    -0.013 C 
HETATM   28  C   UNL     1     -41.906  58.440 -58.210  1.00  0.00     0.011 C 
HETATM   29  C   UNL     1     -43.359  59.086 -60.149  1.00  0.00     0.009 C 
HETATM   30  C   UNL     1     -42.490  57.014 -58.229  1.00  0.00     0.017 C 
HETATM   31  C   UNL     1     -42.899  56.672 -59.678  1.00  0.00     0.011 C 
HETATM   32  C   UNL     1     -43.953  57.668 -60.183  1.00  0.00    -0.013 C 
ENDBRANCH   3  23
BRANCH   1  33
HETATM   33  N   UNL     1     -41.764  54.352 -53.936  1.00  0.00    -0.276 N 
HETATM   34  N   UNL     1     -41.400  54.865 -52.754  1.00  0.00     0.005 NA
HETATM   35  N   UNL     1     -40.597  53.985 -52.171  1.00  0.00    -0.152 NA
HETATM   36  C   UNL     1     -40.467  52.897 -53.002  1.00  0.00     0.166 A 
HETATM   37  C   UNL     1     -41.211  53.130 -54.145  1.00  0.00     0.147 A 
BRANCH  36  38
HETATM   38  C   UNL     1     -39.685  51.709 -52.695  1.00  0.00     0.314 C 
HETATM   39  O   UNL     1     -39.498  51.321 -51.547  1.00  0.00    -0.257 OA
BRANCH  38  40
HETATM   40  O   UNL     1     -39.189  51.104 -53.810  1.00  0.00    -0.321 OA
HETATM   41  C   UNL     1     -39.734  49.810 -54.067  1.00  0.00     0.213 C 
ENDBRANCH  38  40
ENDBRANCH  36  38
ENDBRANCH   1  33
TORSDOF 8
ENDMDL
MODEL 9
REMARK VINA RESULT:      -8.3      4.660      8.516
REMARK  8 active torsions:
REMARK  status: ('A' for Active; 'I' for Inactive)
REMARK    1  A    between atoms: O_2  and  C_3 
REMARK    2  A    between atoms: C_3  and  C_4 
REMARK    3  A    between atoms: N_7  and  C_8 
REMARK    4  A    between atoms: N_10  and  C_12 
REMARK    5  A    between atoms: C_22  and  C_23 
REMARK       I    between atoms: C_23  and  N_24 
REMARK    6  A    between atoms: N_24  and  C_25 
REMARK    7  A    between atoms: C_25  and  C_26 
REMARK    8  A    between atoms: C_26  and  C_27 
ROOT
HETATM    1  C   UNL     1     -41.088  55.502 -52.958  1.00  0.00     0.134 C 
HETATM    2  C   UNL     1     -42.540  55.952 -52.967  1.00  0.00     0.263 C 
HETATM    3  N   UNL     1     -42.663  56.775 -54.243  1.00  0.00    -0.051 N 
HETATM    4  H   UNL     1     -43.610  56.583 -54.632  1.00  0.00     0.281 HD
HETATM    5  C   UNL     1     -41.697  56.062 -55.243  1.00  0.00     0.281 C 
HETATM    6  C   UNL     1     -40.847  55.107 -54.405  1.00  0.00     0.072 C 
ENDROOT
BRANCH   5   7
HETATM    7  C   UNL     1     -42.541  55.297 -56.278  1.00  0.00     0.248 C 
HETATM    8  N   UNL     1     -42.634  55.843 -57.532  1.00  0.00    -0.359 N 
HETATM    9  H   UNL     1     -42.332  56.793 -57.718  1.00  0.00     0.162 HD
HETATM   10  O   UNL     1     -43.066  54.236 -55.938  1.00  0.00    -0.271 OA
BRANCH   8  11
HETATM   11  C   UNL     1     -43.404  55.171 -58.573  1.00  0.00     0.127 C 
BRANCH  11  12
HETATM   12  C   UNL     1     -43.334  55.903 -59.914  1.00  0.00     0.060 C 
BRANCH  12  13
HETATM   13  C   UNL     1     -44.074  57.199 -59.889  1.00  0.00    -0.029 A 
HETATM   14  C   UNL     1     -43.528  58.492 -59.600  1.00  0.00    -0.002 A 
HETATM   15  C   UNL     1     -44.573  59.413 -59.679  1.00  0.00     0.042 A 
HETATM   16  C   UNL     1     -42.240  58.966 -59.275  1.00  0.00     0.014 A 
HETATM   17  C   UNL     1     -44.398  60.782 -59.447  1.00  0.00     0.030 A 
HETATM   18  N   UNL     1     -45.708  58.712 -60.011  1.00  0.00    -0.365 N 
HETATM   19  C   UNL     1     -43.113  61.225 -59.125  1.00  0.00     0.002 A 
HETATM   20  C   UNL     1     -42.047  60.333 -59.040  1.00  0.00     0.001 A 
HETATM   21  H   UNL     1     -46.620  59.129 -60.143  1.00  0.00     0.165 HD
HETATM   22  C   UNL     1     -45.420  57.378 -60.138  1.00  0.00     0.096 A 
ENDBRANCH  12  13
ENDBRANCH  11  12
ENDBRANCH   8  11
ENDBRANCH   5   7
BRANCH   3  23
HETATM   23  C   UNL     1     -42.496  58.283 -54.106  1.00  0.00     0.197 C 
HETATM   24  C   UNL     1     -42.659  59.017 -55.468  1.00  0.00     0.017 C 
HETATM   25  C   UNL     1     -44.101  58.918 -56.003  1.00  0.00     0.011 C 
HETATM   26  C   UNL     1     -42.325  60.510 -55.253  1.00  0.00     0.011 C 
HETATM   27  C   UNL     1     -45.085  59.524 -54.992  1.00  0.00    -0.013 C 
HETATM   28  C   UNL     1     -44.965  58.775 -53.655  1.00  0.00     0.011 C 
HETATM   29  C   UNL     1     -44.736  61.006 -54.777  1.00  0.00     0.009 C 
HETATM   30  C   UNL     1     -43.527  58.886 -53.111  1.00  0.00     0.017 C 
HETATM   31  C   UNL     1     -43.194  60.380 -52.909  1.00  0.00     0.011 C 
HETATM   32  C   UNL     1     -43.301  61.135 -54.243  1.00  0.00    -0.013 C 
ENDBRANCH   3  23
BRANCH   1  33
HETATM   33  N   UNL     1     -40.811  54.437 -52.030  1.00  0.00    -0.276 N 
HETATM   34  N   UNL     1     -41.036  54.612 -50.721  1.00  0.00     0.005 NA
HETATM   35  N   UNL     1     -40.767  53.462 -50.117  1.00  0.00    -0.152 NA
HETATM   36  C   UNL     1     -40.377  52.550 -51.070  1.00  0.00     0.166 A 
HETATM   37  C   UNL     1     -40.396  53.175 -52.304  1.00  0.00     0.147 A 
BRANCH  36  38
HETATM   38  C   UNL     1     -40.027  51.165 -50.796  1.00  0.00     0.314 C 
HETATM   39  O   UNL     1     -40.466  50.552 -49.829  1.00  0.00    -0.257 OA
BRANCH  38  40
HETATM   40  O   UNL     1     -39.163  50.650 -51.715  1.00  0.00    -0.321 OA
HETATM   41  C   UNL     1     -39.689  49.553 -52.463  1.00  0.00     0.213 C 
ENDBRANCH  38  40
ENDBRANCH  36  38
ENDBRANCH   1  33
TORSDOF 8
ENDMDL
MODEL 10
REMARK VINA RESULT:      -8.3      1.620      2.110
REMARK  8 active torsions:
REMARK  status: ('A' for Active; 'I' for Inactive)
REMARK    1  A    between atoms: O_2  and  C_3 
REMARK    2  A    between atoms: C_3  and  C_4 
REMARK    3  A    between atoms: N_7  and  C_8 
REMARK    4  A    between atoms: N_10  and  C_12 
REMARK    5  A    between atoms: C_22  and  C_23 
REMARK       I    between atoms: C_23  and  N_24 
REMARK    6  A    between atoms: N_24  and  C_25 
REMARK    7  A    between atoms: C_25  and  C_26 
REMARK    8  A    between atoms: C_26  and  C_27 
ROOT
HETATM    1  C   UNL     1     -44.240  60.697 -51.601  1.00  0.00     0.134 C 
HETATM    2  C   UNL     1     -44.774  59.549 -52.442  1.00  0.00     0.263 C 
HETATM    3  N   UNL     1     -43.582  59.129 -53.292  1.00  0.00    -0.051 N 
HETATM    4  H   UNL     1     -43.629  58.093 -53.383  1.00  0.00     0.281 HD
HETATM    5  C   UNL     1     -42.353  59.366 -52.357  1.00  0.00     0.281 C 
HETATM    6  C   UNL     1     -42.865  60.202 -51.185  1.00  0.00     0.072 C 
ENDROOT
BRANCH   5   7
HETATM    7  C   UNL     1     -41.828  58.000 -51.883  1.00  0.00     0.248 C 
HETATM    8  N   UNL     1     -42.424  57.454 -50.775  1.00  0.00    -0.359 N 
HETATM    9  H   UNL     1     -43.037  58.001 -50.182  1.00  0.00     0.162 HD
HETATM   10  O   UNL     1     -40.926  57.462 -52.526  1.00  0.00    -0.271 OA
BRANCH   8  11
HETATM   11  C   UNL     1     -41.992  56.154 -50.271  1.00  0.00     0.127 C 
BRANCH  11  12
HETATM   12  C   UNL     1     -42.929  55.023 -50.698  1.00  0.00     0.060 C 
BRANCH  12  13
HETATM   13  C   UNL     1     -42.549  54.443 -52.019  1.00  0.00    -0.029 A 
HETATM   14  C   UNL     1     -41.493  53.508 -52.272  1.00  0.00    -0.002 A 
HETATM   15  C   UNL     1     -41.488  53.245 -53.642  1.00  0.00     0.042 A 
HETATM   16  C   UNL     1     -40.536  52.861 -51.462  1.00  0.00     0.014 A 
HETATM   17  C   UNL     1     -40.576  52.372 -54.244  1.00  0.00     0.030 A 
HETATM   18  N   UNL     1     -42.506  53.982 -54.201  1.00  0.00    -0.365 N 
HETATM   19  C   UNL     1     -39.637  51.745 -53.420  1.00  0.00     0.002 A 
HETATM   20  C   UNL     1     -39.615  51.984 -52.048  1.00  0.00     0.001 A 
HETATM   21  H   UNL     1     -42.739  53.980 -55.185  1.00  0.00     0.165 HD
HETATM   22  C   UNL     1     -43.149  54.709 -53.233  1.00  0.00     0.096 A 
ENDBRANCH  12  13
ENDBRANCH  11  12
ENDBRANCH   8  11
ENDBRANCH   5   7
BRANCH   3  23
HETATM   23  C   UNL     1     -43.490  59.730 -54.689  1.00  0.00     0.197 C 
HETATM   24  C   UNL     1     -42.301  59.143 -55.503  1.00  0.00     0.017 C 
HETATM   25  C   UNL     1     -42.511  57.650 -55.827  1.00  0.00     0.011 C 
HETATM   26  C   UNL     1     -42.202  59.916 -56.836  1.00  0.00     0.011 C 
HETATM   27  C   UNL     1     -43.806  57.458 -56.630  1.00  0.00    -0.013 C 
HETATM   28  C   UNL     1     -44.993  57.994 -55.815  1.00  0.00     0.011 C 
HETATM   29  C   UNL     1     -43.700  58.242 -57.949  1.00  0.00     0.009 C 
HETATM   30  C   UNL     1     -44.793  59.490 -55.504  1.00  0.00     0.017 C 
HETATM   31  C   UNL     1     -44.682  60.258 -56.838  1.00  0.00     0.011 C 
HETATM   32  C   UNL     1     -43.490  59.736 -57.655  1.00  0.00    -0.013 C 
ENDBRANCH   3  23
BRANCH   1  33
HETATM   33  N   UNL     1     -45.077  61.042 -50.482  1.00  0.00    -0.276 N 
HETATM   34  N   UNL     1     -45.472  60.095 -49.622  1.00  0.00     0.005 NA
HETATM   35  N   UNL     1     -46.162  60.695 -48.662  1.00  0.00    -0.152 NA
HETATM   36  C   UNL     1     -46.187  62.045 -48.923  1.00  0.00     0.166 A 
HETATM   37  C   UNL     1     -45.496  62.274 -50.099  1.00  0.00     0.147 A 
BRANCH  36  38
HETATM   38  C   UNL     1     -46.827  63.040 -48.076  1.00  0.00     0.314 C 
HETATM   39  O   UNL     1     -47.164  64.143 -48.494  1.00  0.00    -0.257 OA
BRANCH  38  40
HETATM   40  O   UNL     1     -46.990  62.613 -46.793  1.00  0.00    -0.321 OA
HETATM   41  C   UNL     1     -47.386  63.637 -45.880  1.00  0.00     0.213 C 
ENDBRANCH  38  40
ENDBRANCH  36  38
ENDBRANCH   1  33
TORSDOF 8
ENDMDL
