MODEL 1
REMARK VINA RESULT:      -7.9      0.000      0.000
REMARK  3 active torsions:
REMARK  status: ('A' for Active; 'I' for Inactive)
REMARK    1  A    between atoms: C_6  and  C_7 
REMARK       I    between atoms: C_7  and  N_8 
REMARK    2  A    between atoms: N_8  and  C_9 
REMARK    3  A    between atoms: C_12  and  C_13 
REMARK       I    between atoms: C_13  and  N_14 
ROOT
HETATM    1  C   UNL     1     -35.333  41.694 -53.737  1.00  0.00     0.280 C 
HETATM    2  N   UNL     1     -34.459  40.667 -53.423  1.00  0.00    -0.321 N 
HETATM    3  O   UNL     1     -35.658  42.605 -52.984  1.00  0.00    -0.265 OA
HETATM    4  H   UNL     1     -34.274  40.022 -54.185  1.00  0.00     0.169 HD
ENDROOT
BRANCH   2   5
HETATM    5  C   UNL     1     -33.844  40.393 -52.188  1.00  0.00     0.035 A 
HETATM    6  C   UNL     1     -34.541  40.058 -51.025  1.00  0.00     0.030 A 
HETATM    7  C   UNL     1     -33.855  39.756 -49.841  1.00  0.00     0.019 A 
HETATM    8  C   UNL     1     -32.458  39.783 -49.810  1.00  0.00     0.032 A 
HETATM    9  C   UNL     1     -31.757  40.145 -50.964  1.00  0.00     0.019 A 
HETATM   10  C   UNL     1     -32.445  40.442 -52.145  1.00  0.00     0.030 A 
BRANCH   8  11
HETATM   11  C   UNL     1     -31.682  39.453 -48.585  1.00  0.00     0.249 C 
HETATM   12  N   UNL     1     -32.293  38.682 -47.636  1.00  0.00    -0.366 N 
HETATM   13  H   UNL     1     -33.144  38.169 -47.811  1.00  0.00     0.159 HD
HETATM   14  H   UNL     1     -31.714  38.381 -46.863  1.00  0.00     0.159 HD
HETATM   15  O   UNL     1     -30.524  39.822 -48.439  1.00  0.00    -0.268 OA
ENDBRANCH   8  11
ENDBRANCH   2   5
BRANCH   1  16
HETATM   16  C   UNL     1     -35.863  41.586 -55.084  1.00  0.00     0.144 A 
HETATM   17  O   UNL     1     -36.782  40.607 -55.370  1.00  0.00    -0.304 OA
HETATM   18  C   UNL     1     -37.141  40.765 -56.675  1.00  0.00     0.086 A 
HETATM   19  C   UNL     1     -36.454  41.831 -57.242  1.00  0.00     0.001 A 
HETATM   20  C   UNL     1     -38.070  39.984 -57.357  1.00  0.00     0.038 A 
HETATM   21  C   UNL     1     -36.702  42.153 -58.587  1.00  0.00     0.014 A 
HETATM   22  C   UNL     1     -35.626  42.347 -56.213  1.00  0.00     0.057 A 
HETATM   23  C   UNL     1     -37.637  41.388 -59.300  1.00  0.00     0.001 A 
HETATM   24  C   UNL     1     -38.307  40.323 -58.694  1.00  0.00     0.003 A 
ENDBRANCH   1  16
TORSDOF 3
ENDMDL
MODEL 2
REMARK VINA RESULT:      -7.8     15.645     17.491
REMARK  3 active torsions:
REMARK  status: ('A' for Active; 'I' for Inactive)
REMARK    1  A    between atoms: C_6  and  C_7 
REMARK       I    between atoms: C_7  and  N_8 
REMARK    2  A    between atoms: N_8  and  C_9 
REMARK    3  A    between atoms: C_12  and  C_13 
REMARK       I    between atoms: C_13  and  N_14 
ROOT
HETATM    1  C   UNL     1     -40.991  55.460 -53.325  1.00  0.00     0.280 C 
HETATM    2  N   UNL     1     -41.315  55.901 -52.054  1.00  0.00    -0.321 N 
HETATM    3  O   UNL     1     -41.016  56.144 -54.342  1.00  0.00    -0.265 OA
HETATM    4  H   UNL     1     -41.197  55.206 -51.323  1.00  0.00     0.169 HD
ENDROOT
BRANCH   2   5
HETATM    5  C   UNL     1     -41.819  57.156 -51.668  1.00  0.00     0.035 A 
HETATM    6  C   UNL     1     -43.142  57.560 -51.862  1.00  0.00     0.030 A 
HETATM    7  C   UNL     1     -43.581  58.813 -51.412  1.00  0.00     0.019 A 
HETATM    8  C   UNL     1     -42.697  59.675 -50.757  1.00  0.00     0.032 A 
HETATM    9  C   UNL     1     -41.365  59.287 -50.586  1.00  0.00     0.019 A 
HETATM   10  C   UNL     1     -40.932  58.034 -51.034  1.00  0.00     0.030 A 
BRANCH   8  11
HETATM   11  C   UNL     1     -43.117  61.006 -50.243  1.00  0.00     0.249 C 
HETATM   12  N   UNL     1     -43.921  61.034 -49.138  1.00  0.00    -0.366 N 
HETATM   13  H   UNL     1     -44.072  60.229 -48.549  1.00  0.00     0.159 HD
HETATM   14  H   UNL     1     -44.107  61.947 -48.743  1.00  0.00     0.159 HD
HETATM   15  O   UNL     1     -42.731  62.046 -50.761  1.00  0.00    -0.268 OA
ENDBRANCH   8  11
ENDBRANCH   2   5
BRANCH   1  16
HETATM   16  C   UNL     1     -40.617  54.058 -53.354  1.00  0.00     0.144 A 
HETATM   17  O   UNL     1     -40.260  53.432 -52.185  1.00  0.00    -0.304 OA
HETATM   18  C   UNL     1     -40.009  52.128 -52.491  1.00  0.00     0.086 A 
HETATM   19  C   UNL     1     -40.187  51.905 -53.850  1.00  0.00     0.001 A 
HETATM   20  C   UNL     1     -39.634  51.143 -51.581  1.00  0.00     0.038 A 
HETATM   21  C   UNL     1     -39.981  50.609 -54.353  1.00  0.00     0.014 A 
HETATM   22  C   UNL     1     -40.569  53.156 -54.399  1.00  0.00     0.057 A 
HETATM   23  C   UNL     1     -39.608  49.593 -53.461  1.00  0.00     0.001 A 
HETATM   24  C   UNL     1     -39.437  49.858 -52.100  1.00  0.00     0.003 A 
ENDBRANCH   1  16
TORSDOF 3
ENDMDL
MODEL 3
REMARK VINA RESULT:      -7.7     15.595     17.278
REMARK  3 active torsions:
REMARK  status: ('A' for Active; 'I' for Inactive)
REMARK    1  A    between atoms: C_6  and  C_7 
REMARK       I    between atoms: C_7  and  N_8 
REMARK    2  A    between atoms: N_8  and  C_9 
REMARK    3  A    between atoms: C_12  and  C_13 
REMARK       I    between atoms: C_13  and  N_14 
ROOT
HETATM    1  C   UNL     1     -42.448  55.580 -51.604  1.00  0.00     0.280 C 
HETATM    2  N   UNL     1     -41.237  55.147 -52.115  1.00  0.00    -0.321 N 
HETATM    3  O   UNL     1     -43.410  54.863 -51.349  1.00  0.00    -0.265 OA
HETATM    4  H   UNL     1     -40.540  55.877 -52.225  1.00  0.00     0.169 HD
ENDROOT
BRANCH   2   5
HETATM    5  C   UNL     1     -40.880  53.852 -52.532  1.00  0.00     0.035 A 
HETATM    6  C   UNL     1     -41.071  53.368 -53.828  1.00  0.00     0.030 A 
HETATM    7  C   UNL     1     -40.649  52.078 -54.179  1.00  0.00     0.019 A 
HETATM    8  C   UNL     1     -40.027  51.258 -53.234  1.00  0.00     0.032 A 
HETATM    9  C   UNL     1     -39.860  51.728 -51.927  1.00  0.00     0.019 A 
HETATM   10  C   UNL     1     -40.278  53.017 -51.582  1.00  0.00     0.030 A 
BRANCH   8  11
HETATM   11  C   UNL     1     -39.544  49.890 -53.559  1.00  0.00     0.249 C 
HETATM   12  N   UNL     1     -39.254  49.056 -52.516  1.00  0.00    -0.366 N 
HETATM   13  H   UNL     1     -39.538  49.245 -51.566  1.00  0.00     0.159 HD
HETATM   14  H   UNL     1     -39.030  48.098 -52.757  1.00  0.00     0.159 HD
HETATM   15  O   UNL     1     -39.443  49.502 -54.716  1.00  0.00    -0.268 OA
ENDBRANCH   8  11
ENDBRANCH   2   5
BRANCH   1  16
HETATM   16  C   UNL     1     -42.489  57.017 -51.401  1.00  0.00     0.144 A 
HETATM   17  O   UNL     1     -43.648  57.703 -51.665  1.00  0.00    -0.304 OA
HETATM   18  C   UNL     1     -43.423  59.008 -51.344  1.00  0.00     0.086 A 
HETATM   19  C   UNL     1     -42.123  59.177 -50.886  1.00  0.00     0.001 A 
HETATM   20  C   UNL     1     -44.356  60.036 -51.447  1.00  0.00     0.038 A 
HETATM   21  C   UNL     1     -41.709  60.463 -50.497  1.00  0.00     0.014 A 
HETATM   22  C   UNL     1     -41.526  57.892 -50.935  1.00  0.00     0.057 A 
HETATM   23  C   UNL     1     -42.627  61.520 -50.584  1.00  0.00     0.001 A 
HETATM   24  C   UNL     1     -43.926  61.308 -51.051  1.00  0.00     0.003 A 
ENDBRANCH   1  16
TORSDOF 3
ENDMDL
MODEL 4
REMARK VINA RESULT:      -7.5     15.730     17.621
REMARK  3 active torsions:
REMARK  status: ('A' for Active; 'I' for Inactive)
REMARK    1  A    between atoms: C_6  and  C_7 
REMARK       I    between atoms: C_7  and  N_8 
REMARK    2  A    between atoms: N_8  and  C_9 
REMARK    3  A    between atoms: C_12  and  C_13 
REMARK       I    between atoms: C_13  and  N_14 
ROOT
HETATM    1  C   UNL     1     -40.932  55.032 -51.103  1.00  0.00     0.280 C 
HETATM    2  N   UNL     1     -41.466  55.996 -51.939  1.00  0.00    -0.321 N 
HETATM    3  O   UNL     1     -40.742  55.161 -49.898  1.00  0.00    -0.265 OA
HETATM    4  H   UNL     1     -41.589  55.699 -52.902  1.00  0.00     0.169 HD
ENDROOT
BRANCH   2   5
HETATM    5  C   UNL     1     -41.812  57.324 -51.630  1.00  0.00     0.035 A 
HETATM    6  C   UNL     1     -40.887  58.364 -51.506  1.00  0.00     0.030 A 
HETATM    7  C   UNL     1     -41.312  59.672 -51.237  1.00  0.00     0.019 A 
HETATM    8  C   UNL     1     -42.673  59.954 -51.092  1.00  0.00     0.032 A 
HETATM    9  C   UNL     1     -43.600  58.912 -51.186  1.00  0.00     0.019 A 
HETATM   10  C   UNL     1     -43.172  57.608 -51.458  1.00  0.00     0.030 A 
BRANCH   8  11
HETATM   11  C   UNL     1     -43.178  61.327 -50.824  1.00  0.00     0.249 C 
HETATM   12  N   UNL     1     -43.810  61.548 -49.632  1.00  0.00    -0.366 N 
HETATM   13  H   UNL     1     -43.769  60.899 -48.861  1.00  0.00     0.159 HD
HETATM   14  H   UNL     1     -44.050  62.510 -49.425  1.00  0.00     0.159 HD
HETATM   15  O   UNL     1     -43.007  62.241 -51.620  1.00  0.00    -0.268 OA
ENDBRANCH   8  11
ENDBRANCH   2   5
BRANCH   1  16
HETATM   16  C   UNL     1     -40.587  53.809 -51.805  1.00  0.00     0.144 A 
HETATM   17  O   UNL     1     -40.144  52.724 -51.091  1.00  0.00    -0.304 OA
HETATM   18  C   UNL     1     -39.944  51.713 -51.983  1.00  0.00     0.086 A 
HETATM   19  C   UNL     1     -40.242  52.137 -53.272  1.00  0.00     0.001 A 
HETATM   20  C   UNL     1     -39.512  50.428 -51.664  1.00  0.00     0.038 A 
HETATM   21  C   UNL     1     -40.103  51.223 -54.331  1.00  0.00     0.014 A 
HETATM   22  C   UNL     1     -40.645  53.491 -53.149  1.00  0.00     0.057 A 
HETATM   23  C   UNL     1     -39.675  49.920 -54.041  1.00  0.00     0.001 A 
HETATM   24  C   UNL     1     -39.384  49.531 -52.731  1.00  0.00     0.003 A 
ENDBRANCH   1  16
TORSDOF 3
ENDMDL
MODEL 5
REMARK VINA RESULT:      -7.4     16.125     18.256
REMARK  3 active torsions:
REMARK  status: ('A' for Active; 'I' for Inactive)
REMARK    1  A    between atoms: C_6  and  C_7 
REMARK       I    between atoms: C_7  and  N_8 
REMARK    2  A    between atoms: N_8  and  C_9 
REMARK    3  A    between atoms: C_12  and  C_13 
REMARK       I    between atoms: C_13  and  N_14 
ROOT
HETATM    1  C   UNL     1     -41.637  55.574 -52.021  1.00  0.00     0.280 C 
HETATM    2  N   UNL     1     -42.922  55.816 -52.475  1.00  0.00    -0.321 N 
HETATM    3  O   UNL     1     -40.969  56.341 -51.336  1.00  0.00    -0.265 OA
HETATM    4  H   UNL     1     -43.337  55.049 -52.995  1.00  0.00     0.169 HD
ENDROOT
BRANCH   2   5
HETATM    5  C   UNL     1     -43.688  56.988 -52.342  1.00  0.00     0.035 A 
HETATM    6  C   UNL     1     -43.802  57.963 -53.336  1.00  0.00     0.030 A 
HETATM    7  C   UNL     1     -44.619  59.086 -53.145  1.00  0.00     0.019 A 
HETATM    8  C   UNL     1     -45.335  59.243 -51.955  1.00  0.00     0.032 A 
HETATM    9  C   UNL     1     -45.201  58.284 -50.946  1.00  0.00     0.019 A 
HETATM   10  C   UNL     1     -44.387  57.163 -51.142  1.00  0.00     0.030 A 
BRANCH   8  11
HETATM   11  C   UNL     1     -46.230  60.406 -51.710  1.00  0.00     0.249 C 
HETATM   12  N   UNL     1     -46.879  60.942 -52.787  1.00  0.00    -0.366 N 
HETATM   13  H   UNL     1     -46.943  60.475 -53.679  1.00  0.00     0.159 HD
HETATM   14  H   UNL     1     -47.563  61.661 -52.585  1.00  0.00     0.159 HD
HETATM   15  O   UNL     1     -46.413  60.850 -50.585  1.00  0.00    -0.268 OA
ENDBRANCH   8  11
ENDBRANCH   2   5
BRANCH   1  16
HETATM   16  C   UNL     1     -41.123  54.287 -52.453  1.00  0.00     0.144 A 
HETATM   17  O   UNL     1     -40.584  53.431 -51.525  1.00  0.00    -0.304 OA
HETATM   18  C   UNL     1     -40.230  52.294 -52.188  1.00  0.00     0.086 A 
HETATM   19  C   UNL     1     -40.524  52.410 -53.541  1.00  0.00     0.001 A 
HETATM   20  C   UNL     1     -39.663  51.163 -51.607  1.00  0.00     0.038 A 
HETATM   21  C   UNL     1     -40.236  51.326 -54.389  1.00  0.00     0.014 A 
HETATM   22  C   UNL     1     -41.089  53.701 -53.704  1.00  0.00     0.057 A 
HETATM   23  C   UNL     1     -39.668  50.171 -53.832  1.00  0.00     0.001 A 
HETATM   24  C   UNL     1     -39.387  50.093 -52.465  1.00  0.00     0.003 A 
ENDBRANCH   1  16
TORSDOF 3
ENDMDL
MODEL 6
REMARK VINA RESULT:      -7.3     14.559     17.667
REMARK  3 active torsions:
REMARK  status: ('A' for Active; 'I' for Inactive)
REMARK    1  A    between atoms: C_6  and  C_7 
REMARK       I    between atoms: C_7  and  N_8 
REMARK    2  A    between atoms: N_8  and  C_9 
REMARK    3  A    between atoms: C_12  and  C_13 
REMARK       I    between atoms: C_13  and  N_14 
ROOT
HETATM    1  C   UNL     1     -41.090  54.882 -54.807  1.00  0.00     0.280 C 
HETATM    2  N   UNL     1     -42.268  54.712 -55.513  1.00  0.00    -0.321 N 
HETATM    3  O   UNL     1     -40.383  55.884 -54.835  1.00  0.00    -0.265 OA
HETATM    4  H   UNL     1     -42.742  53.832 -55.337  1.00  0.00     0.169 HD
ENDROOT
BRANCH   2   5
HETATM    5  C   UNL     1     -42.850  55.575 -56.459  1.00  0.00     0.035 A 
HETATM    6  C   UNL     1     -42.900  55.312 -57.830  1.00  0.00     0.030 A 
HETATM    7  C   UNL     1     -43.536  56.202 -58.707  1.00  0.00     0.019 A 
HETATM    8  C   UNL     1     -44.134  57.367 -58.217  1.00  0.00     0.032 A 
HETATM    9  C   UNL     1     -44.062  57.647 -56.849  1.00  0.00     0.019 A 
HETATM   10  C   UNL     1     -43.429  56.755 -55.977  1.00  0.00     0.030 A 
BRANCH   8  11
HETATM   11  C   UNL     1     -44.837  58.334 -59.101  1.00  0.00     0.249 C 
HETATM   12  N   UNL     1     -44.912  58.036 -60.433  1.00  0.00    -0.366 N 
HETATM   13  H   UNL     1     -44.702  57.121 -60.803  1.00  0.00     0.159 HD
HETATM   14  H   UNL     1     -45.484  58.650 -60.998  1.00  0.00     0.159 HD
HETATM   15  O   UNL     1     -45.366  59.344 -58.656  1.00  0.00    -0.268 OA
ENDBRANCH   8  11
ENDBRANCH   2   5
BRANCH   1  16
HETATM   16  C   UNL     1     -40.741  53.721 -54.010  1.00  0.00     0.144 A 
HETATM   17  O   UNL     1     -40.567  52.507 -54.627  1.00  0.00    -0.304 OA
HETATM   18  C   UNL     1     -40.203  51.617 -53.662  1.00  0.00     0.086 A 
HETATM   19  C   UNL     1     -40.151  52.239 -52.422  1.00  0.00     0.001 A 
HETATM   20  C   UNL     1     -39.911  50.271 -53.874  1.00  0.00     0.038 A 
HETATM   21  C   UNL     1     -39.782  51.477 -51.300  1.00  0.00     0.014 A 
HETATM   22  C   UNL     1     -40.509  53.592 -52.654  1.00  0.00     0.057 A 
HETATM   23  C   UNL     1     -39.477  50.120 -51.481  1.00  0.00     0.001 A 
HETATM   24  C   UNL     1     -39.542  49.530 -52.746  1.00  0.00     0.003 A 
ENDBRANCH   1  16
TORSDOF 3
ENDMDL
MODEL 7
REMARK VINA RESULT:      -7.3     14.925     17.709
REMARK  3 active torsions:
REMARK  status: ('A' for Active; 'I' for Inactive)
REMARK    1  A    between atoms: C_6  and  C_7 
REMARK       I    between atoms: C_7  and  N_8 
REMARK    2  A    between atoms: N_8  and  C_9 
REMARK    3  A    between atoms: C_12  and  C_13 
REMARK       I    between atoms: C_13  and  N_14 
ROOT
HETATM    1  C   UNL     1     -41.134  54.869 -54.220  1.00  0.00     0.280 C 
HETATM    2  N   UNL     1     -42.485  54.894 -54.518  1.00  0.00    -0.321 N 
HETATM    3  O   UNL     1     -40.369  55.824 -54.306  1.00  0.00    -0.265 OA
HETATM    4  H   UNL     1     -42.972  54.020 -54.348  1.00  0.00     0.169 HD
ENDROOT
BRANCH   2   5
HETATM    5  C   UNL     1     -43.240  55.952 -55.057  1.00  0.00     0.035 A 
HETATM    6  C   UNL     1     -44.216  56.656 -54.347  1.00  0.00     0.030 A 
HETATM    7  C   UNL     1     -44.897  57.728 -54.940  1.00  0.00     0.019 A 
HETATM    8  C   UNL     1     -44.605  58.110 -56.252  1.00  0.00     0.032 A 
HETATM    9  C   UNL     1     -43.649  57.389 -56.976  1.00  0.00     0.019 A 
HETATM   10  C   UNL     1     -42.969  56.323 -56.380  1.00  0.00     0.030 A 
BRANCH   8  11
HETATM   11  C   UNL     1     -45.285  59.251 -56.921  1.00  0.00     0.249 C 
HETATM   12  N   UNL     1     -46.161  59.991 -56.176  1.00  0.00    -0.366 N 
HETATM   13  H   UNL     1     -46.212  59.932 -55.170  1.00  0.00     0.159 HD
HETATM   14  H   UNL     1     -46.531  60.824 -56.617  1.00  0.00     0.159 HD
HETATM   15  O   UNL     1     -45.049  59.547 -58.085  1.00  0.00    -0.268 OA
ENDBRANCH   8  11
ENDBRANCH   2   5
BRANCH   1  16
HETATM   16  C   UNL     1     -40.679  53.559 -53.793  1.00  0.00     0.144 A 
HETATM   17  O   UNL     1     -40.449  53.327 -52.459  1.00  0.00    -0.304 OA
HETATM   18  C   UNL     1     -40.084  52.020 -52.338  1.00  0.00     0.086 A 
HETATM   19  C   UNL     1     -40.062  51.404 -53.583  1.00  0.00     0.001 A 
HETATM   20  C   UNL     1     -39.781  51.374 -51.142  1.00  0.00     0.038 A 
HETATM   21  C   UNL     1     -39.714  50.044 -53.656  1.00  0.00     0.014 A 
HETATM   22  C   UNL     1     -40.436  52.406 -54.515  1.00  0.00     0.057 A 
HETATM   23  C   UNL     1     -39.408  49.364 -52.469  1.00  0.00     0.001 A 
HETATM   24  C   UNL     1     -39.441  50.019 -51.235  1.00  0.00     0.003 A 
ENDBRANCH   1  16
TORSDOF 3
ENDMDL
MODEL 8
REMARK VINA RESULT:      -7.3     15.467     18.612
REMARK  3 active torsions:
REMARK  status: ('A' for Active; 'I' for Inactive)
REMARK    1  A    between atoms: C_6  and  C_7 
REMARK       I    between atoms: C_7  and  N_8 
REMARK    2  A    between atoms: N_8  and  C_9 
REMARK    3  A    between atoms: C_12  and  C_13 
REMARK       I    between atoms: C_13  and  N_14 
ROOT
HETATM    1  C   UNL     1     -42.766  55.504 -55.152  1.00  0.00     0.280 C 
HETATM    2  N   UNL     1     -42.258  55.668 -56.429  1.00  0.00    -0.321 N 
HETATM    3  O   UNL     1     -43.736  56.095 -54.690  1.00  0.00    -0.265 OA
HETATM    4  H   UNL     1     -41.474  55.064 -56.653  1.00  0.00     0.169 HD
ENDROOT
BRANCH   2   5
HETATM    5  C   UNL     1     -42.664  56.584 -57.417  1.00  0.00     0.035 A 
HETATM    6  C   UNL     1     -42.495  57.967 -57.316  1.00  0.00     0.030 A 
HETATM    7  C   UNL     1     -42.888  58.813 -58.363  1.00  0.00     0.019 A 
HETATM    8  C   UNL     1     -43.451  58.282 -59.526  1.00  0.00     0.032 A 
HETATM    9  C   UNL     1     -43.648  56.900 -59.618  1.00  0.00     0.019 A 
HETATM   10  C   UNL     1     -43.252  56.059 -58.574  1.00  0.00     0.030 A 
BRANCH   8  11
HETATM   11  C   UNL     1     -43.867  59.133 -60.672  1.00  0.00     0.249 C 
HETATM   12  N   UNL     1     -45.187  59.117 -61.026  1.00  0.00    -0.366 N 
HETATM   13  H   UNL     1     -45.909  58.728 -60.438  1.00  0.00     0.159 HD
HETATM   14  H   UNL     1     -45.468  59.781 -61.737  1.00  0.00     0.159 HD
HETATM   15  O   UNL     1     -43.071  59.854 -61.259  1.00  0.00    -0.268 OA
ENDBRANCH   8  11
ENDBRANCH   2   5
BRANCH   1  16
HETATM   16  C   UNL     1     -42.012  54.542 -54.369  1.00  0.00     0.144 A 
HETATM   17  O   UNL     1     -41.624  53.358 -54.948  1.00  0.00    -0.304 OA
HETATM   18  C   UNL     1     -40.900  52.676 -54.016  1.00  0.00     0.086 A 
HETATM   19  C   UNL     1     -40.824  53.402 -52.834  1.00  0.00     0.001 A 
HETATM   20  C   UNL     1     -40.305  51.432 -54.209  1.00  0.00     0.038 A 
HETATM   21  C   UNL     1     -40.105  52.858 -51.756  1.00  0.00     0.014 A 
HETATM   22  C   UNL     1     -41.551  54.596 -53.068  1.00  0.00     0.057 A 
HETATM   23  C   UNL     1     -39.489  51.609 -51.920  1.00  0.00     0.001 A 
HETATM   24  C   UNL     1     -39.590  50.910 -53.125  1.00  0.00     0.003 A 
ENDBRANCH   1  16
TORSDOF 3
ENDMDL
MODEL 9
REMARK VINA RESULT:      -7.2     15.528     17.100
REMARK  3 active torsions:
REMARK  status: ('A' for Active; 'I' for Inactive)
REMARK    1  A    between atoms: C_6  and  C_7 
REMARK       I    between atoms: C_7  and  N_8 
REMARK    2  A    between atoms: N_8  and  C_9 
REMARK    3  A    between atoms: C_12  and  C_13 
REMARK       I    between atoms: C_13  and  N_14 
ROOT
HETATM    1  C   UNL     1     -43.162  55.273 -51.848  1.00  0.00     0.280 C 
HETATM    2  N   UNL     1     -42.143  54.977 -52.737  1.00  0.00    -0.321 N 
HETATM    3  O   UNL     1     -43.566  54.532 -50.958  1.00  0.00    -0.265 OA
HETATM    4  H   UNL     1     -41.914  55.727 -53.381  1.00  0.00     0.169 HD
ENDROOT
BRANCH   2   5
HETATM    5  C   UNL     1     -41.432  53.771 -52.879  1.00  0.00     0.035 A 
HETATM    6  C   UNL     1     -40.563  53.259 -51.914  1.00  0.00     0.030 A 
HETATM    7  C   UNL     1     -39.922  52.027 -52.109  1.00  0.00     0.019 A 
HETATM    8  C   UNL     1     -40.149  51.292 -53.276  1.00  0.00     0.032 A 
HETATM    9  C   UNL     1     -40.997  51.815 -54.258  1.00  0.00     0.019 A 
HETATM   10  C   UNL     1     -41.637  53.043 -54.057  1.00  0.00     0.030 A 
BRANCH   8  11
HETATM   11  C   UNL     1     -39.510  49.973 -53.524  1.00  0.00     0.249 C 
HETATM   12  N   UNL     1     -39.330  49.145 -52.452  1.00  0.00    -0.366 N 
HETATM   13  H   UNL     1     -39.783  49.293 -51.562  1.00  0.00     0.159 HD
HETATM   14  H   UNL     1     -38.992  48.213 -52.657  1.00  0.00     0.159 HD
HETATM   15  O   UNL     1     -39.186  49.617 -54.650  1.00  0.00    -0.268 OA
ENDBRANCH   8  11
ENDBRANCH   2   5
BRANCH   1  16
HETATM   16  C   UNL     1     -43.743  56.583 -52.078  1.00  0.00     0.144 A 
HETATM   17  O   UNL     1     -43.538  57.209 -53.282  1.00  0.00    -0.304 OA
HETATM   18  C   UNL     1     -44.227  58.384 -53.244  1.00  0.00     0.086 A 
HETATM   19  C   UNL     1     -44.867  58.532 -52.020  1.00  0.00     0.001 A 
HETATM   20  C   UNL     1     -44.297  59.313 -54.279  1.00  0.00     0.038 A 
HETATM   21  C   UNL     1     -45.639  59.686 -51.799  1.00  0.00     0.014 A 
HETATM   22  C   UNL     1     -44.542  57.372 -51.273  1.00  0.00     0.057 A 
HETATM   23  C   UNL     1     -45.734  60.637 -52.824  1.00  0.00     0.001 A 
HETATM   24  C   UNL     1     -45.074  60.453 -54.042  1.00  0.00     0.003 A 
ENDBRANCH   1  16
TORSDOF 3
ENDMDL
MODEL 10
REMARK VINA RESULT:      -7.1     14.735     16.281
REMARK  3 active torsions:
REMARK  status: ('A' for Active; 'I' for Inactive)
REMARK    1  A    between atoms: C_6  and  C_7 
REMARK       I    between atoms: C_7  and  N_8 
REMARK    2  A    between atoms: N_8  and  C_9 
REMARK    3  A    between atoms: C_12  and  C_13 
REMARK       I    between atoms: C_13  and  N_14 
ROOT
HETATM    1  C   UNL     1     -42.275  55.891 -55.700  1.00  0.00     0.280 C 
HETATM    2  N   UNL     1     -42.297  54.571 -55.286  1.00  0.00    -0.321 N 
HETATM    3  O   UNL     1     -41.724  56.813 -55.108  1.00  0.00    -0.265 OA
HETATM    4  H   UNL     1     -42.767  53.936 -55.923  1.00  0.00     0.169 HD
ENDROOT
BRANCH   2   5
HETATM    5  C   UNL     1     -41.794  54.023 -54.092  1.00  0.00     0.035 A 
HETATM    6  C   UNL     1     -40.659  53.213 -54.021  1.00  0.00     0.030 A 
HETATM    7  C   UNL     1     -40.194  52.739 -52.786  1.00  0.00     0.019 A 
HETATM    8  C   UNL     1     -40.862  53.075 -51.606  1.00  0.00     0.032 A 
HETATM    9  C   UNL     1     -42.016  53.862 -51.675  1.00  0.00     0.019 A 
HETATM   10  C   UNL     1     -42.475  54.336 -52.908  1.00  0.00     0.030 A 
BRANCH   8  11
HETATM   11  C   UNL     1     -40.401  52.614 -50.270  1.00  0.00     0.249 C 
HETATM   12  N   UNL     1     -40.092  53.569 -49.342  1.00  0.00    -0.366 N 
HETATM   13  H   UNL     1     -40.352  54.539 -49.445  1.00  0.00     0.159 HD
HETATM   14  H   UNL     1     -39.883  53.236 -48.409  1.00  0.00     0.159 HD
HETATM   15  O   UNL     1     -40.331  51.424 -49.989  1.00  0.00    -0.268 OA
ENDBRANCH   8  11
ENDBRANCH   2   5
BRANCH   1  16
HETATM   16  C   UNL     1     -43.002  56.102 -56.938  1.00  0.00     0.144 A 
HETATM   17  O   UNL     1     -43.153  55.059 -57.818  1.00  0.00    -0.304 OA
HETATM   18  C   UNL     1     -43.907  55.516 -58.856  1.00  0.00     0.086 A 
HETATM   19  C   UNL     1     -44.236  56.852 -58.665  1.00  0.00     0.001 A 
HETATM   20  C   UNL     1     -44.308  54.763 -59.957  1.00  0.00     0.038 A 
HETATM   21  C   UNL     1     -45.023  57.498 -59.635  1.00  0.00     0.014 A 
HETATM   22  C   UNL     1     -43.640  57.224 -57.433  1.00  0.00     0.057 A 
HETATM   23  C   UNL     1     -45.447  56.764 -60.753  1.00  0.00     0.001 A 
HETATM   24  C   UNL     1     -45.094  55.421 -60.909  1.00  0.00     0.003 A 
ENDBRANCH   1  16
TORSDOF 3
ENDMDL
