MODEL 1
REMARK VINA RESULT:      -8.0      0.000      0.000
REMARK  7 active torsions:
REMARK  status: ('A' for Active; 'I' for Inactive)
REMARK    1  A    between atoms: C_7  and  C_8 
REMARK    2  A    between atoms: C_8  and  N_9 
REMARK       I    between atoms: N_9  and  C_10 
REMARK       I    between atoms: C_10  and  N_11 
REMARK    3  A    between atoms: N_11  and  C_12 
REMARK    4  A    between atoms: C_12  and  C_13 
REMARK    5  A    between atoms: C_13  and  C_14 
REMARK    6  A    between atoms: C_14  and  O_15 
REMARK    7  A    between atoms: C_14  and  C_16 
ROOT
HETATM    1  N   UNL     1     -44.011  56.170 -54.912  1.00  0.00    -0.337 N 
HETATM    2  C   UNL     1     -43.877  57.314 -55.659  1.00  0.00     0.316 C 
HETATM    3  N   UNL     1     -44.090  57.087 -56.989  1.00  0.00    -0.339 N 
HETATM    4  O   UNL     1     -43.686  58.421 -55.165  1.00  0.00    -0.247 OA
HETATM    5  H   UNL     1     -43.881  55.314 -55.431  1.00  0.00     0.164 HD
HETATM    6  H   UNL     1     -43.892  56.158 -57.334  1.00  0.00     0.164 HD
ENDROOT
BRANCH   1   7
HETATM    7  C   UNL     1     -43.668  56.132 -53.504  1.00  0.00     0.183 C 
BRANCH   7   8
HETATM    8  C   UNL     1     -42.646  55.092 -53.203  1.00  0.00     0.044 A 
HETATM    9  N   UNL     1     -42.229  54.163 -54.144  1.00  0.00    -0.343 N 
HETATM   10  C   UNL     1     -41.340  53.326 -53.635  1.00  0.00     0.112 A 
HETATM   11  H   UNL     1     -42.541  54.192 -55.123  1.00  0.00     0.167 HD
HETATM   12  N   UNL     1     -41.143  53.675 -52.347  1.00  0.00    -0.311 N 
HETATM   13  C   UNL     1     -40.630  52.184 -54.254  1.00  0.00     0.049 A 
HETATM   14  C   UNL     1     -40.258  52.990 -51.515  1.00  0.00     0.014 A 
HETATM   15  C   UNL     1     -41.943  54.777 -52.061  1.00  0.00     0.125 A 
HETATM   16  C   UNL     1     -40.053  53.409 -50.091  1.00  0.00     0.068 C 
HETATM   17  C   UNL     1     -39.607  51.942 -52.069  1.00  0.00     0.025 A 
HETATM   18  C   UNL     1     -39.783  51.517 -53.454  1.00  0.00     0.006 A 
ENDBRANCH   7   8
ENDBRANCH   1   7
BRANCH   3  19
HETATM   19  C   UNL     1     -44.005  58.157 -57.977  1.00  0.00     0.085 C 
HETATM   20  C   UNL     1     -45.378  58.399 -58.597  1.00  0.00     0.032 C 
BRANCH  19  21
HETATM   21  C   UNL     1     -42.867  57.952 -59.002  1.00  0.00     0.063 C 
BRANCH  21  22
HETATM   22  C   UNL     1     -42.435  56.523 -59.349  1.00  0.00     0.177 C 
BRANCH  22  23
HETATM   23  O   UNL     1     -41.407  56.528 -60.335  1.00  0.00    -0.389 OA
HETATM   24  H   UNL     1     -41.183  55.600 -60.519  1.00  0.00     0.210 HD
ENDBRANCH  22  23
BRANCH  22  25
HETATM   25  C   UNL     1     -43.531  55.641 -59.840  1.00  0.00     0.081 A 
HETATM   26  O   UNL     1     -44.132  56.003 -61.015  1.00  0.00    -0.324 OA
HETATM   27  C   UNL     1     -45.138  55.120 -61.238  1.00  0.00     0.142 A 
HETATM   28  C   UNL     1     -45.183  54.176 -60.240  1.00  0.00     0.027 A 
HETATM   29  C   UNL     1     -44.146  54.511 -59.337  1.00  0.00     0.037 A 
ENDBRANCH  22  25
ENDBRANCH  21  22
ENDBRANCH  19  21
ENDBRANCH   3  19
TORSDOF 7
ENDMDL
MODEL 2
REMARK VINA RESULT:      -8.0      2.098      3.737
REMARK  7 active torsions:
REMARK  status: ('A' for Active; 'I' for Inactive)
REMARK    1  A    between atoms: C_7  and  C_8 
REMARK    2  A    between atoms: C_8  and  N_9 
REMARK       I    between atoms: N_9  and  C_10 
REMARK       I    between atoms: C_10  and  N_11 
REMARK    3  A    between atoms: N_11  and  C_12 
REMARK    4  A    between atoms: C_12  and  C_13 
REMARK    5  A    between atoms: C_13  and  C_14 
REMARK    6  A    between atoms: C_14  and  O_15 
REMARK    7  A    between atoms: C_14  and  C_16 
ROOT
HETATM    1  N   UNL     1     -41.316  55.136 -55.886  1.00  0.00    -0.337 N 
HETATM    2  C   UNL     1     -42.453  55.715 -56.393  1.00  0.00     0.316 C 
HETATM    3  N   UNL     1     -42.535  55.586 -57.750  1.00  0.00    -0.339 N 
HETATM    4  O   UNL     1     -43.331  56.200 -55.687  1.00  0.00    -0.247 OA
HETATM    5  H   UNL     1     -40.565  55.036 -56.554  1.00  0.00     0.164 HD
HETATM    6  H   UNL     1     -41.664  55.507 -58.258  1.00  0.00     0.164 HD
ENDROOT
BRANCH   1   7
HETATM    7  C   UNL     1     -40.931  55.292 -54.497  1.00  0.00     0.183 C 
BRANCH   7   8
HETATM    8  C   UNL     1     -40.628  53.988 -53.848  1.00  0.00     0.044 A 
HETATM    9  N   UNL     1     -40.610  53.828 -52.470  1.00  0.00    -0.343 N 
HETATM   10  C   UNL     1     -40.286  52.590 -52.133  1.00  0.00     0.112 A 
HETATM   11  H   UNL     1     -40.884  54.578 -51.825  1.00  0.00     0.167 HD
HETATM   12  N   UNL     1     -40.083  51.897 -53.272  1.00  0.00    -0.311 N 
HETATM   13  C   UNL     1     -40.139  51.965 -50.799  1.00  0.00     0.049 A 
HETATM   14  C   UNL     1     -39.725  50.549 -53.272  1.00  0.00     0.014 A 
HETATM   15  C   UNL     1     -40.297  52.748 -54.351  1.00  0.00     0.125 A 
HETATM   16  C   UNL     1     -39.515  49.804 -54.554  1.00  0.00     0.068 C 
HETATM   17  C   UNL     1     -39.583  49.969 -52.058  1.00  0.00     0.025 A 
HETATM   18  C   UNL     1     -39.786  50.669 -50.794  1.00  0.00     0.006 A 
ENDBRANCH   7   8
ENDBRANCH   1   7
BRANCH   3  19
HETATM   19  C   UNL     1     -43.661  56.121 -58.509  1.00  0.00     0.085 C 
HETATM   20  C   UNL     1     -44.051  55.144 -59.613  1.00  0.00     0.032 C 
BRANCH  19  21
HETATM   21  C   UNL     1     -43.438  57.573 -58.987  1.00  0.00     0.063 C 
BRANCH  21  22
HETATM   22  C   UNL     1     -42.608  57.813 -60.253  1.00  0.00     0.177 C 
BRANCH  22  23
HETATM   23  O   UNL     1     -41.470  56.957 -60.285  1.00  0.00    -0.389 OA
HETATM   24  H   UNL     1     -41.513  56.394 -59.493  1.00  0.00     0.210 HD
ENDBRANCH  22  23
BRANCH  22  25
HETATM   25  C   UNL     1     -42.128  59.212 -60.429  1.00  0.00     0.081 A 
HETATM   26  O   UNL     1     -41.973  59.957 -59.292  1.00  0.00    -0.324 OA
HETATM   27  C   UNL     1     -41.606  61.206 -59.678  1.00  0.00     0.142 A 
HETATM   28  C   UNL     1     -41.496  61.275 -61.046  1.00  0.00     0.027 A 
HETATM   29  C   UNL     1     -41.833  59.990 -61.533  1.00  0.00     0.037 A 
ENDBRANCH  22  25
ENDBRANCH  21  22
ENDBRANCH  19  21
ENDBRANCH   3  19
TORSDOF 7
ENDMDL
MODEL 3
REMARK VINA RESULT:      -7.9      3.643      4.933
REMARK  7 active torsions:
REMARK  status: ('A' for Active; 'I' for Inactive)
REMARK    1  A    between atoms: C_7  and  C_8 
REMARK    2  A    between atoms: C_8  and  N_9 
REMARK       I    between atoms: N_9  and  C_10 
REMARK       I    between atoms: C_10  and  N_11 
REMARK    3  A    between atoms: N_11  and  C_12 
REMARK    4  A    between atoms: C_12  and  C_13 
REMARK    5  A    between atoms: C_13  and  C_14 
REMARK    6  A    between atoms: C_14  and  O_15 
REMARK    7  A    between atoms: C_14  and  C_16 
ROOT
HETATM    1  N   UNL     1     -41.983  55.934 -49.944  1.00  0.00    -0.337 N 
HETATM    2  C   UNL     1     -41.789  57.176 -50.494  1.00  0.00     0.316 C 
HETATM    3  N   UNL     1     -42.949  57.711 -50.979  1.00  0.00    -0.339 N 
HETATM    4  O   UNL     1     -40.714  57.766 -50.458  1.00  0.00    -0.247 OA
HETATM    5  H   UNL     1     -42.804  55.451 -50.281  1.00  0.00     0.164 HD
HETATM    6  H   UNL     1     -43.663  57.063 -51.281  1.00  0.00     0.164 HD
ENDROOT
BRANCH   1   7
HETATM    7  C   UNL     1     -40.873  55.103 -49.520  1.00  0.00     0.183 C 
BRANCH   7   8
HETATM    8  C   UNL     1     -40.570  54.026 -50.501  1.00  0.00     0.044 A 
HETATM    9  N   UNL     1     -40.668  54.217 -51.871  1.00  0.00    -0.343 N 
HETATM   10  C   UNL     1     -40.379  53.110 -52.534  1.00  0.00     0.112 A 
HETATM   11  H   UNL     1     -40.876  55.134 -52.286  1.00  0.00     0.167 HD
HETATM   12  N   UNL     1     -40.081  52.157 -51.628  1.00  0.00    -0.311 N 
HETATM   13  C   UNL     1     -40.356  52.840 -53.990  1.00  0.00     0.049 A 
HETATM   14  C   UNL     1     -39.729  50.859 -51.996  1.00  0.00     0.014 A 
HETATM   15  C   UNL     1     -40.188  52.710 -50.355  1.00  0.00     0.125 A 
HETATM   16  C   UNL     1     -39.394  49.825 -50.965  1.00  0.00     0.068 C 
HETATM   17  C   UNL     1     -39.709  50.600 -53.324  1.00  0.00     0.025 A 
HETATM   18  C   UNL     1     -40.025  51.589 -54.350  1.00  0.00     0.006 A 
ENDBRANCH   7   8
ENDBRANCH   1   7
BRANCH   3  19
HETATM   19  C   UNL     1     -42.987  59.028 -51.605  1.00  0.00     0.085 C 
HETATM   20  C   UNL     1     -44.064  59.884 -50.945  1.00  0.00     0.032 C 
BRANCH  19  21
HETATM   21  C   UNL     1     -43.074  58.968 -53.146  1.00  0.00     0.063 C 
BRANCH  21  22
HETATM   22  C   UNL     1     -42.001  58.187 -53.915  1.00  0.00     0.177 C 
BRANCH  22  23
HETATM   23  O   UNL     1     -41.485  58.961 -54.994  1.00  0.00    -0.389 OA
HETATM   24  H   UNL     1     -42.234  59.445 -55.383  1.00  0.00     0.210 HD
ENDBRANCH  22  23
BRANCH  22  25
HETATM   25  C   UNL     1     -42.456  56.882 -54.470  1.00  0.00     0.081 A 
HETATM   26  O   UNL     1     -43.001  55.993 -53.585  1.00  0.00    -0.324 OA
HETATM   27  C   UNL     1     -43.275  54.857 -54.276  1.00  0.00     0.142 A 
HETATM   28  C   UNL     1     -42.939  55.005 -55.600  1.00  0.00     0.027 A 
HETATM   29  C   UNL     1     -42.410  56.311 -55.728  1.00  0.00     0.037 A 
ENDBRANCH  22  25
ENDBRANCH  21  22
ENDBRANCH  19  21
ENDBRANCH   3  19
TORSDOF 7
ENDMDL
MODEL 4
REMARK VINA RESULT:      -7.5      1.819      3.063
REMARK  7 active torsions:
REMARK  status: ('A' for Active; 'I' for Inactive)
REMARK    1  A    between atoms: C_7  and  C_8 
REMARK    2  A    between atoms: C_8  and  N_9 
REMARK       I    between atoms: N_9  and  C_10 
REMARK       I    between atoms: C_10  and  N_11 
REMARK    3  A    between atoms: N_11  and  C_12 
REMARK    4  A    between atoms: C_12  and  C_13 
REMARK    5  A    between atoms: C_13  and  C_14 
REMARK    6  A    between atoms: C_14  and  O_15 
REMARK    7  A    between atoms: C_14  and  C_16 
ROOT
HETATM    1  N   UNL     1     -46.071  57.877 -56.005  1.00  0.00    -0.337 N 
HETATM    2  C   UNL     1     -45.711  57.989 -57.324  1.00  0.00     0.316 C 
HETATM    3  N   UNL     1     -46.647  57.451 -58.161  1.00  0.00    -0.339 N 
HETATM    4  O   UNL     1     -44.711  58.594 -57.699  1.00  0.00    -0.247 OA
HETATM    5  H   UNL     1     -46.732  57.139 -55.814  1.00  0.00     0.164 HD
HETATM    6  H   UNL     1     -47.218  56.703 -57.790  1.00  0.00     0.164 HD
ENDROOT
BRANCH   1   7
HETATM    7  C   UNL     1     -45.161  58.226 -54.931  1.00  0.00     0.183 C 
BRANCH   7   8
HETATM    8  C   UNL     1     -44.239  57.108 -54.592  1.00  0.00     0.044 A 
HETATM    9  N   UNL     1     -43.244  56.675 -55.456  1.00  0.00    -0.343 N 
HETATM   10  C   UNL     1     -42.576  55.652 -54.947  1.00  0.00     0.112 A 
HETATM   11  H   UNL     1     -43.036  57.153 -56.341  1.00  0.00     0.167 HD
HETATM   12  N   UNL     1     -43.105  55.381 -53.737  1.00  0.00    -0.311 N 
HETATM   13  C   UNL     1     -41.448  54.870 -55.503  1.00  0.00     0.049 A 
HETATM   14  C   UNL     1     -42.627  54.351 -52.927  1.00  0.00     0.014 A 
HETATM   15  C   UNL     1     -44.138  56.280 -53.495  1.00  0.00     0.125 A 
HETATM   16  C   UNL     1     -43.230  54.080 -51.583  1.00  0.00     0.068 C 
HETATM   17  C   UNL     1     -41.600  53.626 -53.427  1.00  0.00     0.025 A 
HETATM   18  C   UNL     1     -40.990  53.872 -54.730  1.00  0.00     0.006 A 
ENDBRANCH   7   8
ENDBRANCH   1   7
BRANCH   3  19
HETATM   19  C   UNL     1     -46.481  57.459 -59.610  1.00  0.00     0.085 C 
HETATM   20  C   UNL     1     -47.377  58.528 -60.227  1.00  0.00     0.032 C 
BRANCH  19  21
HETATM   21  C   UNL     1     -46.623  56.058 -60.247  1.00  0.00     0.063 C 
BRANCH  21  22
HETATM   22  C   UNL     1     -45.354  55.248 -60.538  1.00  0.00     0.177 C 
BRANCH  22  23
HETATM   23  O   UNL     1     -45.463  53.928 -60.014  1.00  0.00    -0.389 OA
HETATM   24  H   UNL     1     -44.735  53.812 -59.379  1.00  0.00     0.210 HD
ENDBRANCH  22  23
BRANCH  22  25
HETATM   25  C   UNL     1     -44.097  55.845 -60.008  1.00  0.00     0.081 A 
HETATM   26  O   UNL     1     -43.476  56.774 -60.797  1.00  0.00    -0.324 OA
HETATM   27  C   UNL     1     -42.326  57.129 -60.169  1.00  0.00     0.142 A 
HETATM   28  C   UNL     1     -42.204  56.462 -58.973  1.00  0.00     0.027 A 
HETATM   29  C   UNL     1     -43.345  55.633 -58.868  1.00  0.00     0.037 A 
ENDBRANCH  22  25
ENDBRANCH  21  22
ENDBRANCH  19  21
ENDBRANCH   3  19
TORSDOF 7
ENDMDL
MODEL 5
REMARK VINA RESULT:      -7.4      1.758      2.565
REMARK  7 active torsions:
REMARK  status: ('A' for Active; 'I' for Inactive)
REMARK    1  A    between atoms: C_7  and  C_8 
REMARK    2  A    between atoms: C_8  and  N_9 
REMARK       I    between atoms: N_9  and  C_10 
REMARK       I    between atoms: C_10  and  N_11 
REMARK    3  A    between atoms: N_11  and  C_12 
REMARK    4  A    between atoms: C_12  and  C_13 
REMARK    5  A    between atoms: C_13  and  C_14 
REMARK    6  A    between atoms: C_14  and  O_15 
REMARK    7  A    between atoms: C_14  and  C_16 
ROOT
HETATM    1  N   UNL     1     -41.870  54.633 -55.582  1.00  0.00    -0.337 N 
HETATM    2  C   UNL     1     -42.268  55.937 -55.419  1.00  0.00     0.316 C 
HETATM    3  N   UNL     1     -43.569  56.127 -55.788  1.00  0.00    -0.339 N 
HETATM    4  O   UNL     1     -41.558  56.797 -54.908  1.00  0.00    -0.247 OA
HETATM    5  H   UNL     1     -42.415  54.111 -56.253  1.00  0.00     0.164 HD
HETATM    6  H   UNL     1     -43.944  55.504 -56.490  1.00  0.00     0.164 HD
ENDROOT
BRANCH   1   7
HETATM    7  C   UNL     1     -40.488  54.228 -55.416  1.00  0.00     0.183 C 
BRANCH   7   8
HETATM    8  C   UNL     1     -40.311  53.288 -54.277  1.00  0.00     0.044 A 
HETATM    9  N   UNL     1     -40.026  51.943 -54.458  1.00  0.00    -0.343 N 
HETATM   10  C   UNL     1     -39.945  51.307 -53.301  1.00  0.00     0.112 A 
HETATM   11  H   UNL     1     -39.840  51.539 -55.384  1.00  0.00     0.167 HD
HETATM   12  N   UNL     1     -40.172  52.208 -52.323  1.00  0.00    -0.311 N 
HETATM   13  C   UNL     1     -39.668  49.883 -53.004  1.00  0.00     0.049 A 
HETATM   14  C   UNL     1     -40.159  51.863 -50.972  1.00  0.00     0.014 A 
HETATM   15  C   UNL     1     -40.396  53.449 -52.911  1.00  0.00     0.125 A 
HETATM   16  C   UNL     1     -40.406  52.890 -49.909  1.00  0.00     0.068 C 
HETATM   17  C   UNL     1     -39.912  50.564 -50.690  1.00  0.00     0.025 A 
HETATM   18  C   UNL     1     -39.663  49.545 -51.704  1.00  0.00     0.006 A 
ENDBRANCH   7   8
ENDBRANCH   1   7
BRANCH   3  19
HETATM   19  C   UNL     1     -44.213  57.434 -55.697  1.00  0.00     0.085 C 
HETATM   20  C   UNL     1     -45.107  57.485 -54.462  1.00  0.00     0.032 C 
BRANCH  19  21
HETATM   21  C   UNL     1     -44.907  57.863 -57.009  1.00  0.00     0.063 C 
BRANCH  21  22
HETATM   22  C   UNL     1     -44.117  57.790 -58.320  1.00  0.00     0.177 C 
BRANCH  22  23
HETATM   23  O   UNL     1     -44.307  58.971 -59.095  1.00  0.00    -0.389 OA
HETATM   24  H   UNL     1     -45.205  58.928 -59.466  1.00  0.00     0.210 HD
ENDBRANCH  22  23
BRANCH  22  25
HETATM   25  C   UNL     1     -44.447  56.623 -59.185  1.00  0.00     0.081 A 
HETATM   26  O   UNL     1     -43.851  55.434 -58.867  1.00  0.00    -0.324 OA
HETATM   27  C   UNL     1     -44.224  54.533 -59.812  1.00  0.00     0.142 A 
HETATM   28  C   UNL     1     -45.073  55.115 -60.723  1.00  0.00     0.027 A 
HETATM   29  C   UNL     1     -45.218  56.463 -60.320  1.00  0.00     0.037 A 
ENDBRANCH  22  25
ENDBRANCH  21  22
ENDBRANCH  19  21
ENDBRANCH   3  19
TORSDOF 7
ENDMDL
MODEL 6
REMARK VINA RESULT:      -7.3      3.175      7.955
REMARK  7 active torsions:
REMARK  status: ('A' for Active; 'I' for Inactive)
REMARK    1  A    between atoms: C_7  and  C_8 
REMARK    2  A    between atoms: C_8  and  N_9 
REMARK       I    between atoms: N_9  and  C_10 
REMARK       I    between atoms: C_10  and  N_11 
REMARK    3  A    between atoms: N_11  and  C_12 
REMARK    4  A    between atoms: C_12  and  C_13 
REMARK    5  A    between atoms: C_13  and  C_14 
REMARK    6  A    between atoms: C_14  and  O_15 
REMARK    7  A    between atoms: C_14  and  C_16 
ROOT
HETATM    1  N   UNL     1     -42.516  55.350 -53.421  1.00  0.00    -0.337 N 
HETATM    2  C   UNL     1     -42.480  54.569 -52.293  1.00  0.00     0.316 C 
HETATM    3  N   UNL     1     -41.316  54.727 -51.595  1.00  0.00    -0.339 N 
HETATM    4  O   UNL     1     -43.429  53.889 -51.915  1.00  0.00    -0.247 OA
HETATM    5  H   UNL     1     -41.609  55.625 -53.768  1.00  0.00     0.164 HD
HETATM    6  H   UNL     1     -40.498  55.001 -52.122  1.00  0.00     0.164 HD
ENDROOT
BRANCH   1   7
HETATM    7  C   UNL     1     -43.575  55.225 -54.404  1.00  0.00     0.183 C 
BRANCH   7   8
HETATM    8  C   UNL     1     -43.240  55.914 -55.680  1.00  0.00     0.044 A 
HETATM    9  N   UNL     1     -43.319  55.281 -56.912  1.00  0.00    -0.343 N 
HETATM   10  C   UNL     1     -42.944  56.085 -57.892  1.00  0.00     0.112 A 
HETATM   11  H   UNL     1     -43.691  54.329 -57.019  1.00  0.00     0.167 HD
HETATM   12  N   UNL     1     -42.608  57.269 -57.342  1.00  0.00    -0.311 N 
HETATM   13  C   UNL     1     -42.861  55.847 -59.352  1.00  0.00     0.049 A 
HETATM   14  C   UNL     1     -42.165  58.349 -58.106  1.00  0.00     0.014 A 
HETATM   15  C   UNL     1     -42.791  57.185 -55.966  1.00  0.00     0.125 A 
HETATM   16  C   UNL     1     -41.808  59.656 -57.466  1.00  0.00     0.068 C 
HETATM   17  C   UNL     1     -42.081  58.141 -59.440  1.00  0.00     0.025 A 
HETATM   18  C   UNL     1     -42.427  56.881 -60.090  1.00  0.00     0.006 A 
ENDBRANCH   7   8
ENDBRANCH   1   7
BRANCH   3  19
HETATM   19  C   UNL     1     -41.055  54.001 -50.357  1.00  0.00     0.085 C 
HETATM   20  C   UNL     1     -40.799  54.989 -49.222  1.00  0.00     0.032 C 
BRANCH  19  21
HETATM   21  C   UNL     1     -39.975  52.906 -50.509  1.00  0.00     0.063 C 
BRANCH  21  22
HETATM   22  C   UNL     1     -40.405  51.503 -50.950  1.00  0.00     0.177 C 
BRANCH  22  23
HETATM   23  O   UNL     1     -39.826  50.507 -50.111  1.00  0.00    -0.389 OA
HETATM   24  H   UNL     1     -39.982  50.781 -49.191  1.00  0.00     0.210 HD
ENDBRANCH  22  23
BRANCH  22  25
HETATM   25  C   UNL     1     -40.068  51.160 -52.360  1.00  0.00     0.081 A 
HETATM   26  O   UNL     1     -40.122  52.179 -53.270  1.00  0.00    -0.324 OA
HETATM   27  C   UNL     1     -39.857  51.642 -54.489  1.00  0.00     0.142 A 
HETATM   28  C   UNL     1     -39.608  50.295 -54.378  1.00  0.00     0.027 A 
HETATM   29  C   UNL     1     -39.744  49.982 -53.005  1.00  0.00     0.037 A 
ENDBRANCH  22  25
ENDBRANCH  21  22
ENDBRANCH  19  21
ENDBRANCH   3  19
TORSDOF 7
ENDMDL
MODEL 7
REMARK VINA RESULT:      -7.3      4.960      8.178
REMARK  7 active torsions:
REMARK  status: ('A' for Active; 'I' for Inactive)
REMARK    1  A    between atoms: C_7  and  C_8 
REMARK    2  A    between atoms: C_8  and  N_9 
REMARK       I    between atoms: N_9  and  C_10 
REMARK       I    between atoms: C_10  and  N_11 
REMARK    3  A    between atoms: N_11  and  C_12 
REMARK    4  A    between atoms: C_12  and  C_13 
REMARK    5  A    between atoms: C_13  and  C_14 
REMARK    6  A    between atoms: C_14  and  O_15 
REMARK    7  A    between atoms: C_14  and  C_16 
ROOT
HETATM    1  N   UNL     1     -42.513  57.298 -50.978  1.00  0.00    -0.337 N 
HETATM    2  C   UNL     1     -43.830  57.669 -51.073  1.00  0.00     0.316 C 
HETATM    3  N   UNL     1     -43.980  58.892 -51.663  1.00  0.00    -0.339 N 
HETATM    4  O   UNL     1     -44.760  56.935 -50.753  1.00  0.00    -0.247 OA
HETATM    5  H   UNL     1     -41.859  58.068 -51.000  1.00  0.00     0.164 HD
HETATM    6  H   UNL     1     -43.213  59.544 -51.569  1.00  0.00     0.164 HD
ENDROOT
BRANCH   1   7
HETATM    7  C   UNL     1     -42.100  56.120 -50.239  1.00  0.00     0.183 C 
BRANCH   7   8
HETATM    8  C   UNL     1     -41.528  55.073 -51.127  1.00  0.00     0.044 A 
HETATM    9  N   UNL     1     -40.993  53.891 -50.637  1.00  0.00    -0.343 N 
HETATM   10  C   UNL     1     -40.520  53.133 -51.613  1.00  0.00     0.112 A 
HETATM   11  H   UNL     1     -41.036  53.638 -49.642  1.00  0.00     0.167 HD
HETATM   12  N   UNL     1     -40.728  53.788 -52.774  1.00  0.00    -0.311 N 
HETATM   13  C   UNL     1     -39.863  51.807 -51.568  1.00  0.00     0.049 A 
HETATM   14  C   UNL     1     -40.343  53.261 -54.007  1.00  0.00     0.014 A 
HETATM   15  C   UNL     1     -41.360  54.995 -52.493  1.00  0.00     0.125 A 
HETATM   16  C   UNL     1     -40.597  54.009 -55.280  1.00  0.00     0.068 C 
HETATM   17  C   UNL     1     -39.738  52.052 -53.977  1.00  0.00     0.025 A 
HETATM   18  C   UNL     1     -39.484  51.300 -52.753  1.00  0.00     0.006 A 
ENDBRANCH   7   8
ENDBRANCH   1   7
BRANCH   3  19
HETATM   19  C   UNL     1     -45.293  59.491 -51.875  1.00  0.00     0.085 C 
HETATM   20  C   UNL     1     -45.467  59.848 -53.348  1.00  0.00     0.032 C 
BRANCH  19  21
HETATM   21  C   UNL     1     -45.603  60.644 -50.895  1.00  0.00     0.063 C 
BRANCH  21  22
HETATM   22  C   UNL     1     -45.325  60.438 -49.402  1.00  0.00     0.177 C 
BRANCH  22  23
HETATM   23  O   UNL     1     -45.880  59.208 -48.947  1.00  0.00    -0.389 OA
HETATM   24  H   UNL     1     -45.210  58.783 -48.383  1.00  0.00     0.210 HD
ENDBRANCH  22  23
BRANCH  22  25
HETATM   25  C   UNL     1     -45.837  61.522 -48.516  1.00  0.00     0.081 A 
HETATM   26  O   UNL     1     -46.951  62.190 -48.943  1.00  0.00    -0.324 OA
HETATM   27  C   UNL     1     -47.200  63.172 -48.038  1.00  0.00     0.142 A 
HETATM   28  C   UNL     1     -46.278  63.133 -47.019  1.00  0.00     0.027 A 
HETATM   29  C   UNL     1     -45.398  62.069 -47.326  1.00  0.00     0.037 A 
ENDBRANCH  22  25
ENDBRANCH  21  22
ENDBRANCH  19  21
ENDBRANCH   3  19
TORSDOF 7
ENDMDL
MODEL 8
REMARK VINA RESULT:      -7.3      2.815      7.586
REMARK  7 active torsions:
REMARK  status: ('A' for Active; 'I' for Inactive)
REMARK    1  A    between atoms: C_7  and  C_8 
REMARK    2  A    between atoms: C_8  and  N_9 
REMARK       I    between atoms: N_9  and  C_10 
REMARK       I    between atoms: C_10  and  N_11 
REMARK    3  A    between atoms: N_11  and  C_12 
REMARK    4  A    between atoms: C_12  and  C_13 
REMARK    5  A    between atoms: C_13  and  C_14 
REMARK    6  A    between atoms: C_14  and  O_15 
REMARK    7  A    between atoms: C_14  and  C_16 
ROOT
HETATM    1  N   UNL     1     -41.513  58.117 -53.432  1.00  0.00    -0.337 N 
HETATM    2  C   UNL     1     -42.109  57.092 -52.740  1.00  0.00     0.316 C 
HETATM    3  N   UNL     1     -41.193  56.268 -52.151  1.00  0.00    -0.339 N 
HETATM    4  O   UNL     1     -43.324  56.998 -52.593  1.00  0.00    -0.247 OA
HETATM    5  H   UNL     1     -40.562  57.931 -53.716  1.00  0.00     0.164 HD
HETATM    6  H   UNL     1     -40.285  56.203 -52.590  1.00  0.00     0.164 HD
ENDROOT
BRANCH   1   7
HETATM    7  C   UNL     1     -42.276  59.017 -54.275  1.00  0.00     0.183 C 
BRANCH   7   8
HETATM    8  C   UNL     1     -42.411  58.505 -55.666  1.00  0.00     0.044 A 
HETATM    9  N   UNL     1     -42.740  57.187 -55.946  1.00  0.00    -0.343 N 
HETATM   10  C   UNL     1     -42.770  56.965 -57.250  1.00  0.00     0.112 A 
HETATM   11  H   UNL     1     -42.988  56.513 -55.212  1.00  0.00     0.167 HD
HETATM   12  N   UNL     1     -42.465  58.123 -57.868  1.00  0.00    -0.311 N 
HETATM   13  C   UNL     1     -43.065  55.726 -58.007  1.00  0.00     0.049 A 
HETATM   14  C   UNL     1     -42.409  58.236 -59.257  1.00  0.00     0.014 A 
HETATM   15  C   UNL     1     -42.244  59.096 -56.899  1.00  0.00     0.125 A 
HETATM   16  C   UNL     1     -42.077  59.541 -59.915  1.00  0.00     0.068 C 
HETATM   17  C   UNL     1     -42.672  57.110 -59.959  1.00  0.00     0.025 A 
HETATM   18  C   UNL     1     -43.004  55.829 -59.345  1.00  0.00     0.006 A 
ENDBRANCH   7   8
ENDBRANCH   1   7
BRANCH   3  19
HETATM   19  C   UNL     1     -41.594  55.111 -51.358  1.00  0.00     0.085 C 
HETATM   20  C   UNL     1     -40.806  55.080 -50.052  1.00  0.00     0.032 C 
BRANCH  19  21
HETATM   21  C   UNL     1     -41.567  53.787 -52.154  1.00  0.00     0.063 C 
BRANCH  21  22
HETATM   22  C   UNL     1     -40.308  53.432 -52.953  1.00  0.00     0.177 C 
BRANCH  22  23
HETATM   23  O   UNL     1     -40.284  54.125 -54.197  1.00  0.00    -0.389 OA
HETATM   24  H   UNL     1     -40.709  54.988 -54.052  1.00  0.00     0.210 HD
ENDBRANCH  22  23
BRANCH  22  25
HETATM   25  C   UNL     1     -40.139  51.980 -53.239  1.00  0.00     0.081 A 
HETATM   26  O   UNL     1     -39.746  51.189 -52.195  1.00  0.00    -0.324 OA
HETATM   27  C   UNL     1     -39.581  49.933 -52.684  1.00  0.00     0.142 A 
HETATM   28  C   UNL     1     -39.884  49.894 -54.024  1.00  0.00     0.027 A 
HETATM   29  C   UNL     1     -40.244  51.214 -54.384  1.00  0.00     0.037 A 
ENDBRANCH  22  25
ENDBRANCH  21  22
ENDBRANCH  19  21
ENDBRANCH   3  19
TORSDOF 7
ENDMDL
MODEL 9
REMARK VINA RESULT:      -7.2      2.476      7.872
REMARK  7 active torsions:
REMARK  status: ('A' for Active; 'I' for Inactive)
REMARK    1  A    between atoms: C_7  and  C_8 
REMARK    2  A    between atoms: C_8  and  N_9 
REMARK       I    between atoms: N_9  and  C_10 
REMARK       I    between atoms: C_10  and  N_11 
REMARK    3  A    between atoms: N_11  and  C_12 
REMARK    4  A    between atoms: C_12  and  C_13 
REMARK    5  A    between atoms: C_13  and  C_14 
REMARK    6  A    between atoms: C_14  and  O_15 
REMARK    7  A    between atoms: C_14  and  C_16 
ROOT
HETATM    1  N   UNL     1     -42.866  57.752 -55.358  1.00  0.00    -0.337 N 
HETATM    2  C   UNL     1     -43.154  57.008 -54.241  1.00  0.00     0.316 C 
HETATM    3  N   UNL     1     -42.085  56.264 -53.830  1.00  0.00    -0.339 N 
HETATM    4  O   UNL     1     -44.218  57.089 -53.636  1.00  0.00    -0.247 OA
HETATM    5  H   UNL     1     -42.099  57.398 -55.910  1.00  0.00     0.164 HD
HETATM    6  H   UNL     1     -41.417  55.990 -54.537  1.00  0.00     0.164 HD
ENDROOT
BRANCH   1   7
HETATM    7  C   UNL     1     -43.891  58.489 -56.072  1.00  0.00     0.183 C 
BRANCH   7   8
HETATM    8  C   UNL     1     -44.366  57.763 -57.281  1.00  0.00     0.044 A 
HETATM    9  N   UNL     1     -43.801  56.568 -57.702  1.00  0.00    -0.343 N 
HETATM   10  C   UNL     1     -44.369  56.131 -58.814  1.00  0.00     0.112 A 
HETATM   11  H   UNL     1     -43.080  56.077 -57.158  1.00  0.00     0.167 HD
HETATM   12  N   UNL     1     -45.323  57.019 -59.160  1.00  0.00    -0.311 N 
HETATM   13  C   UNL     1     -44.097  54.920 -59.620  1.00  0.00     0.049 A 
HETATM   14  C   UNL     1     -46.118  56.856 -60.294  1.00  0.00     0.014 A 
HETATM   15  C   UNL     1     -45.341  58.039 -58.214  1.00  0.00     0.125 A 
HETATM   16  C   UNL     1     -47.177  57.856 -60.647  1.00  0.00     0.068 C 
HETATM   17  C   UNL     1     -45.875  55.755 -61.041  1.00  0.00     0.025 A 
HETATM   18  C   UNL     1     -44.854  54.763 -60.718  1.00  0.00     0.006 A 
ENDBRANCH   7   8
ENDBRANCH   1   7
BRANCH   3  19
HETATM   19  C   UNL     1     -42.155  55.397 -52.658  1.00  0.00     0.085 C 
HETATM   20  C   UNL     1     -41.278  55.960 -51.545  1.00  0.00     0.032 C 
BRANCH  19  21
HETATM   21  C   UNL     1     -41.897  53.909 -52.986  1.00  0.00     0.063 C 
BRANCH  21  22
HETATM   22  C   UNL     1     -40.543  53.509 -53.582  1.00  0.00     0.177 C 
BRANCH  22  23
HETATM   23  O   UNL     1     -40.468  53.867 -54.959  1.00  0.00    -0.389 OA
HETATM   24  H   UNL     1     -40.983  54.684 -55.070  1.00  0.00     0.210 HD
ENDBRANCH  22  23
BRANCH  22  25
HETATM   25  C   UNL     1     -40.216  52.059 -53.472  1.00  0.00     0.081 A 
HETATM   26  O   UNL     1     -39.801  51.613 -52.248  1.00  0.00    -0.324 OA
HETATM   27  C   UNL     1     -39.487  50.300 -52.385  1.00  0.00     0.142 A 
HETATM   28  C   UNL     1     -39.716  49.881 -53.674  1.00  0.00     0.027 A 
HETATM   29  C   UNL     1     -40.186  51.016 -54.377  1.00  0.00     0.037 A 
ENDBRANCH  22  25
ENDBRANCH  21  22
ENDBRANCH  19  21
ENDBRANCH   3  19
TORSDOF 7
ENDMDL
MODEL 10
REMARK VINA RESULT:      -7.1      3.631      7.496
REMARK  7 active torsions:
REMARK  status: ('A' for Active; 'I' for Inactive)
REMARK    1  A    between atoms: C_7  and  C_8 
REMARK    2  A    between atoms: C_8  and  N_9 
REMARK       I    between atoms: N_9  and  C_10 
REMARK       I    between atoms: C_10  and  N_11 
REMARK    3  A    between atoms: N_11  and  C_12 
REMARK    4  A    between atoms: C_12  and  C_13 
REMARK    5  A    between atoms: C_13  and  C_14 
REMARK    6  A    between atoms: C_14  and  O_15 
REMARK    7  A    between atoms: C_14  and  C_16 
ROOT
HETATM    1  N   UNL     1     -42.205  54.949 -55.350  1.00  0.00    -0.337 N 
HETATM    2  C   UNL     1     -41.067  54.408 -54.806  1.00  0.00     0.316 C 
HETATM    3  N   UNL     1     -41.271  53.139 -54.343  1.00  0.00    -0.339 N 
HETATM    4  O   UNL     1     -39.978  54.972 -54.829  1.00  0.00    -0.247 OA
HETATM    5  H   UNL     1     -43.064  54.531 -55.023  1.00  0.00     0.164 HD
HETATM    6  H   UNL     1     -42.209  52.903 -54.048  1.00  0.00     0.164 HD
ENDROOT
BRANCH   1   7
HETATM    7  C   UNL     1     -42.275  56.341 -55.752  1.00  0.00     0.183 C 
BRANCH   7   8
HETATM    8  C   UNL     1     -42.410  57.256 -54.586  1.00  0.00     0.044 A 
HETATM    9  N   UNL     1     -41.314  57.736 -53.885  1.00  0.00    -0.343 N 
HETATM   10  C   UNL     1     -41.687  58.505 -52.875  1.00  0.00     0.112 A 
HETATM   11  H   UNL     1     -40.348  57.553 -54.181  1.00  0.00     0.167 HD
HETATM   12  N   UNL     1     -43.035  58.556 -52.878  1.00  0.00    -0.311 N 
HETATM   13  C   UNL     1     -40.878  59.222 -51.863  1.00  0.00     0.049 A 
HETATM   14  C   UNL     1     -43.756  59.288 -51.935  1.00  0.00     0.014 A 
HETATM   15  C   UNL     1     -43.504  57.790 -53.939  1.00  0.00     0.125 A 
HETATM   16  C   UNL     1     -45.253  59.334 -51.970  1.00  0.00     0.068 C 
HETATM   17  C   UNL     1     -43.027  59.944 -51.003  1.00  0.00     0.025 A 
HETATM   18  C   UNL     1     -41.569  59.922 -50.949  1.00  0.00     0.006 A 
ENDBRANCH   7   8
ENDBRANCH   1   7
BRANCH   3  19
HETATM   19  C   UNL     1     -40.201  52.362 -53.727  1.00  0.00     0.085 C 
HETATM   20  C   UNL     1     -40.159  50.965 -54.337  1.00  0.00     0.032 C 
BRANCH  19  21
HETATM   21  C   UNL     1     -40.244  52.385 -52.183  1.00  0.00     0.063 C 
BRANCH  21  22
HETATM   22  C   UNL     1     -40.133  53.734 -51.462  1.00  0.00     0.177 C 
BRANCH  22  23
HETATM   23  O   UNL     1     -39.454  53.590 -50.218  1.00  0.00    -0.389 OA
HETATM   24  H   UNL     1     -38.854  54.351 -50.130  1.00  0.00     0.210 HD
ENDBRANCH  22  23
BRANCH  22  25
HETATM   25  C   UNL     1     -41.434  54.407 -51.192  1.00  0.00     0.081 A 
HETATM   26  O   UNL     1     -42.565  53.731 -51.561  1.00  0.00    -0.324 OA
HETATM   27  C   UNL     1     -43.620  54.543 -51.300  1.00  0.00     0.142 A 
HETATM   28  C   UNL     1     -43.193  55.725 -50.745  1.00  0.00     0.027 A 
HETATM   29  C   UNL     1     -41.783  55.640 -50.675  1.00  0.00     0.037 A 
ENDBRANCH  22  25
ENDBRANCH  21  22
ENDBRANCH  19  21
ENDBRANCH   3  19
TORSDOF 7
ENDMDL
