MODEL 1
REMARK VINA RESULT:      -8.5      0.000      0.000
REMARK  6 active torsions:
REMARK  status: ('A' for Active; 'I' for Inactive)
REMARK    1  A    between atoms: C_2  and  N_3 
REMARK    2  A    between atoms: C_2  and  C_12 
REMARK       I    between atoms: N_3  and  C_4 
REMARK    3  A    between atoms: C_4  and  C_5 
REMARK    4  A    between atoms: C_12  and  C_13 
REMARK       I    between atoms: C_13  and  N_14 
REMARK    5  A    between atoms: N_14  and  C_15 
REMARK    6  A    between atoms: C_17  and  C_18 
ROOT
HETATM    1  C   UNL     1     -43.593  56.548 -53.546  1.00  0.00     0.224 C 
HETATM    2  N   UNL     1     -42.688  56.311 -54.563  1.00  0.00    -0.327 N 
HETATM    3  O   UNL     1     -44.663  57.142 -53.642  1.00  0.00    -0.273 OA
HETATM    4  H   UNL     1     -41.893  55.724 -54.342  1.00  0.00     0.169 HD
ENDROOT
BRANCH   1   5
HETATM    5  C   UNL     1     -43.181  55.944 -52.220  1.00  0.00     0.128 C 
BRANCH   5   6
HETATM    6  C   UNL     1     -41.665  55.723 -52.179  1.00  0.00     0.089 C 
HETATM    7  C   UNL     1     -41.018  56.365 -50.949  1.00  0.00     0.032 C 
BRANCH   6   8
HETATM    8  N   UNL     1     -41.327  54.304 -52.281  1.00  0.00    -0.352 N 
HETATM    9  C   UNL     1     -40.626  53.761 -53.339  1.00  0.00     0.252 C 
HETATM   10  O   UNL     1     -40.279  54.407 -54.321  1.00  0.00    -0.268 OA
HETATM   11  H   UNL     1     -41.383  53.770 -51.424  1.00  0.00     0.163 HD
BRANCH   9  12
HETATM   12  C   UNL     1     -40.240  52.327 -53.203  1.00  0.00     0.032 A 
HETATM   13  C   UNL     1     -40.269  51.442 -54.290  1.00  0.00     0.017 A 
HETATM   14  C   UNL     1     -39.924  50.100 -54.107  1.00  0.00     0.001 A 
HETATM   15  C   UNL     1     -39.538  49.642 -52.847  1.00  0.00     0.000 A 
HETATM   16  C   UNL     1     -39.488  50.523 -51.768  1.00  0.00     0.001 A 
HETATM   17  C   UNL     1     -39.834  51.865 -51.947  1.00  0.00     0.017 A 
ENDBRANCH   9  12
ENDBRANCH   6   8
ENDBRANCH   5   6
ENDBRANCH   1   5
BRANCH   2  18
HETATM   18  C   UNL     1     -42.753  56.788 -55.890  1.00  0.00     0.035 A 
HETATM   19  C   UNL     1     -43.265  56.048 -56.961  1.00  0.00     0.042 A 
HETATM   20  C   UNL     1     -43.329  56.588 -58.257  1.00  0.00    -0.021 A 
HETATM   21  C   UNL     1     -42.856  57.888 -58.470  1.00  0.00     0.012 A 
HETATM   22  C   UNL     1     -42.339  58.635 -57.409  1.00  0.00     0.003 A 
HETATM   23  C   UNL     1     -42.294  58.088 -56.126  1.00  0.00     0.029 A 
BRANCH  20  24
HETATM   24  C   UNL     1     -43.903  55.806 -59.344  1.00  0.00     0.010 A 
HETATM   25  C   UNL     1     -44.289  56.187 -60.652  1.00  0.00     0.152 A 
HETATM   26  N   UNL     1     -44.781  55.171 -61.366  1.00  0.00    -0.187 NA
HETATM   27  N   UNL     1     -44.726  54.137 -60.514  1.00  0.00    -0.289 N 
HETATM   28  H   UNL     1     -45.061  53.234 -60.834  1.00  0.00     0.188 HD
HETATM   29  C   UNL     1     -44.208  54.462 -59.294  1.00  0.00     0.123 A 
ENDBRANCH  20  24
ENDBRANCH   2  18
TORSDOF 6
ENDMDL
MODEL 2
REMARK VINA RESULT:      -8.2      2.830      7.966
REMARK  6 active torsions:
REMARK  status: ('A' for Active; 'I' for Inactive)
REMARK    1  A    between atoms: C_2  and  N_3 
REMARK    2  A    between atoms: C_2  and  C_12 
REMARK       I    between atoms: N_3  and  C_4 
REMARK    3  A    between atoms: C_4  and  C_5 
REMARK    4  A    between atoms: C_12  and  C_13 
REMARK       I    between atoms: C_13  and  N_14 
REMARK    5  A    between atoms: N_14  and  C_15 
REMARK    6  A    between atoms: C_17  and  C_18 
ROOT
HETATM    1  C   UNL     1     -42.554  55.238 -55.373  1.00  0.00     0.224 C 
HETATM    2  N   UNL     1     -41.264  54.802 -55.140  1.00  0.00    -0.327 N 
HETATM    3  O   UNL     1     -43.530  55.053 -54.651  1.00  0.00    -0.273 OA
HETATM    4  H   UNL     1     -40.550  55.116 -55.787  1.00  0.00     0.169 HD
ENDROOT
BRANCH   1   5
HETATM    5  C   UNL     1     -42.694  56.058 -56.637  1.00  0.00     0.128 C 
BRANCH   5   6
HETATM    6  C   UNL     1     -42.900  57.539 -56.297  1.00  0.00     0.089 C 
HETATM    7  C   UNL     1     -44.362  57.969 -56.439  1.00  0.00     0.032 C 
BRANCH   6   8
HETATM    8  N   UNL     1     -42.373  57.863 -54.972  1.00  0.00    -0.352 N 
HETATM    9  C   UNL     1     -41.776  59.069 -54.663  1.00  0.00     0.252 C 
HETATM   10  O   UNL     1     -41.575  59.954 -55.486  1.00  0.00    -0.268 OA
HETATM   11  H   UNL     1     -42.698  57.283 -54.209  1.00  0.00     0.163 HD
BRANCH   9  12
HETATM   12  C   UNL     1     -41.435  59.282 -53.227  1.00  0.00     0.032 A 
HETATM   13  C   UNL     1     -40.267  58.761 -52.653  1.00  0.00     0.017 A 
HETATM   14  C   UNL     1     -40.004  58.965 -51.296  1.00  0.00     0.001 A 
HETATM   15  C   UNL     1     -40.896  59.697 -50.512  1.00  0.00     0.000 A 
HETATM   16  C   UNL     1     -42.049  60.235 -51.083  1.00  0.00     0.001 A 
HETATM   17  C   UNL     1     -42.316  60.031 -52.439  1.00  0.00     0.017 A 
ENDBRANCH   9  12
ENDBRANCH   6   8
ENDBRANCH   5   6
ENDBRANCH   1   5
BRANCH   2  18
HETATM   18  C   UNL     1     -40.820  53.972 -54.087  1.00  0.00     0.035 A 
HETATM   19  C   UNL     1     -40.906  54.315 -52.734  1.00  0.00     0.042 A 
HETATM   20  C   UNL     1     -40.473  53.434 -51.728  1.00  0.00    -0.021 A 
HETATM   21  C   UNL     1     -39.936  52.196 -52.103  1.00  0.00     0.012 A 
HETATM   22  C   UNL     1     -39.841  51.845 -53.450  1.00  0.00     0.003 A 
HETATM   23  C   UNL     1     -40.287  52.726 -54.436  1.00  0.00     0.029 A 
BRANCH  20  24
HETATM   24  C   UNL     1     -40.611  53.805 -50.327  1.00  0.00     0.010 A 
HETATM   25  C   UNL     1     -41.004  55.028 -49.730  1.00  0.00     0.152 A 
HETATM   26  N   UNL     1     -41.010  54.977 -48.395  1.00  0.00    -0.187 NA
HETATM   27  N   UNL     1     -40.608  53.725 -48.130  1.00  0.00    -0.289 N 
HETATM   28  H   UNL     1     -40.525  53.444 -47.158  1.00  0.00     0.188 HD
HETATM   29  C   UNL     1     -40.359  52.983 -49.248  1.00  0.00     0.123 A 
ENDBRANCH  20  24
ENDBRANCH   2  18
TORSDOF 6
ENDMDL
MODEL 3
REMARK VINA RESULT:      -8.0      1.141      1.478
REMARK  6 active torsions:
REMARK  status: ('A' for Active; 'I' for Inactive)
REMARK    1  A    between atoms: C_2  and  N_3 
REMARK    2  A    between atoms: C_2  and  C_12 
REMARK       I    between atoms: N_3  and  C_4 
REMARK    3  A    between atoms: C_4  and  C_5 
REMARK    4  A    between atoms: C_12  and  C_13 
REMARK       I    between atoms: C_13  and  N_14 
REMARK    5  A    between atoms: N_14  and  C_15 
REMARK    6  A    between atoms: C_17  and  C_18 
ROOT
HETATM    1  C   UNL     1     -43.373  56.569 -52.415  1.00  0.00     0.224 C 
HETATM    2  N   UNL     1     -42.417  56.532 -53.412  1.00  0.00    -0.327 N 
HETATM    3  O   UNL     1     -44.406  57.234 -52.417  1.00  0.00    -0.273 OA
HETATM    4  H   UNL     1     -41.666  55.861 -53.301  1.00  0.00     0.169 HD
ENDROOT
BRANCH   1   5
HETATM    5  C   UNL     1     -43.077  55.637 -51.260  1.00  0.00     0.128 C 
BRANCH   5   6
HETATM    6  C   UNL     1     -41.574  55.349 -51.174  1.00  0.00     0.089 C 
HETATM    7  C   UNL     1     -41.003  55.657 -49.788  1.00  0.00     0.032 C 
BRANCH   6   8
HETATM    8  N   UNL     1     -41.265  53.981 -51.587  1.00  0.00    -0.352 N 
HETATM    9  C   UNL     1     -40.636  53.667 -52.775  1.00  0.00     0.252 C 
HETATM   10  O   UNL     1     -40.336  54.501 -53.621  1.00  0.00    -0.268 OA
HETATM   11  H   UNL     1     -41.281  53.281 -50.857  1.00  0.00     0.163 HD
BRANCH   9  12
HETATM   12  C   UNL     1     -40.266  52.234 -52.962  1.00  0.00     0.032 A 
HETATM   13  C   UNL     1     -40.326  51.606 -54.213  1.00  0.00     0.017 A 
HETATM   14  C   UNL     1     -39.995  50.254 -54.333  1.00  0.00     0.001 A 
HETATM   15  C   UNL     1     -39.591  49.530 -53.211  1.00  0.00     0.000 A 
HETATM   16  C   UNL     1     -39.509  50.156 -51.968  1.00  0.00     0.001 A 
HETATM   17  C   UNL     1     -39.842  51.507 -51.844  1.00  0.00     0.017 A 
ENDBRANCH   9  12
ENDBRANCH   6   8
ENDBRANCH   5   6
ENDBRANCH   1   5
BRANCH   2  18
HETATM   18  C   UNL     1     -42.372  57.321 -54.582  1.00  0.00     0.035 A 
HETATM   19  C   UNL     1     -42.529  56.809 -55.875  1.00  0.00     0.042 A 
HETATM   20  C   UNL     1     -42.503  57.650 -57.000  1.00  0.00    -0.021 A 
HETATM   21  C   UNL     1     -42.304  59.023 -56.812  1.00  0.00     0.012 A 
HETATM   22  C   UNL     1     -42.142  59.544 -55.527  1.00  0.00     0.003 A 
HETATM   23  C   UNL     1     -42.183  58.698 -54.419  1.00  0.00     0.029 A 
BRANCH  20  24
HETATM   24  C   UNL     1     -42.707  57.092 -58.330  1.00  0.00     0.010 A 
HETATM   25  C   UNL     1     -42.394  57.615 -59.609  1.00  0.00     0.152 A 
HETATM   26  N   UNL     1     -42.738  56.793 -60.604  1.00  0.00    -0.187 NA
HETATM   27  N   UNL     1     -43.286  55.746 -59.970  1.00  0.00    -0.289 N 
HETATM   28  H   UNL     1     -43.638  54.977 -60.530  1.00  0.00     0.188 HD
HETATM   29  C   UNL     1     -43.289  55.874 -58.610  1.00  0.00     0.123 A 
ENDBRANCH  20  24
ENDBRANCH   2  18
TORSDOF 6
ENDMDL
MODEL 4
REMARK VINA RESULT:      -7.9      2.316      3.205
REMARK  6 active torsions:
REMARK  status: ('A' for Active; 'I' for Inactive)
REMARK    1  A    between atoms: C_2  and  N_3 
REMARK    2  A    between atoms: C_2  and  C_12 
REMARK       I    between atoms: N_3  and  C_4 
REMARK    3  A    between atoms: C_4  and  C_5 
REMARK    4  A    between atoms: C_12  and  C_13 
REMARK       I    between atoms: C_13  and  N_14 
REMARK    5  A    between atoms: N_14  and  C_15 
REMARK    6  A    between atoms: C_17  and  C_18 
ROOT
HETATM    1  C   UNL     1     -43.629  56.650 -54.799  1.00  0.00     0.224 C 
HETATM    2  N   UNL     1     -42.695  56.296 -55.754  1.00  0.00    -0.327 N 
HETATM    3  O   UNL     1     -44.695  57.226 -54.996  1.00  0.00    -0.273 OA
HETATM    4  H   UNL     1     -41.907  55.742 -55.441  1.00  0.00     0.169 HD
ENDROOT
BRANCH   1   5
HETATM    5  C   UNL     1     -43.257  56.209 -53.399  1.00  0.00     0.128 C 
BRANCH   5   6
HETATM    6  C   UNL     1     -41.738  56.048 -53.273  1.00  0.00     0.089 C 
HETATM    7  C   UNL     1     -41.138  56.999 -52.236  1.00  0.00     0.032 C 
BRANCH   6   8
HETATM    8  N   UNL     1     -41.366  54.659 -53.003  1.00  0.00    -0.352 N 
HETATM    9  C   UNL     1     -40.865  53.803 -53.964  1.00  0.00     0.252 C 
HETATM   10  O   UNL     1     -40.747  54.109 -55.145  1.00  0.00    -0.268 OA
HETATM   11  H   UNL     1     -41.229  54.416 -52.031  1.00  0.00     0.163 HD
BRANCH   9  12
HETATM   12  C   UNL     1     -40.399  52.473 -53.477  1.00  0.00     0.032 A 
HETATM   13  C   UNL     1     -39.968  52.271 -52.159  1.00  0.00     0.017 A 
HETATM   14  C   UNL     1     -39.515  51.011 -51.757  1.00  0.00     0.001 A 
HETATM   15  C   UNL     1     -39.502  49.950 -52.664  1.00  0.00     0.000 A 
HETATM   16  C   UNL     1     -39.950  50.142 -53.970  1.00  0.00     0.001 A 
HETATM   17  C   UNL     1     -40.401  51.400 -54.375  1.00  0.00     0.017 A 
ENDBRANCH   9  12
ENDBRANCH   6   8
ENDBRANCH   5   6
ENDBRANCH   1   5
BRANCH   2  18
HETATM   18  C   UNL     1     -42.720  56.612 -57.130  1.00  0.00     0.035 A 
HETATM   19  C   UNL     1     -42.415  57.876 -57.646  1.00  0.00     0.042 A 
HETATM   20  C   UNL     1     -42.430  58.123 -59.030  1.00  0.00    -0.021 A 
HETATM   21  C   UNL     1     -42.770  57.078 -59.897  1.00  0.00     0.012 A 
HETATM   22  C   UNL     1     -43.081  55.813 -59.393  1.00  0.00     0.003 A 
HETATM   23  C   UNL     1     -43.049  55.582 -58.017  1.00  0.00     0.029 A 
BRANCH  20  24
HETATM   24  C   UNL     1     -42.071  59.439 -59.538  1.00  0.00     0.010 A 
HETATM   25  C   UNL     1     -41.747  60.636 -58.853  1.00  0.00     0.152 A 
HETATM   26  N   UNL     1     -41.469  61.649 -59.679  1.00  0.00    -0.187 NA
HETATM   27  N   UNL     1     -41.627  61.110 -60.897  1.00  0.00    -0.289 N 
HETATM   28  H   UNL     1     -41.474  61.702 -61.706  1.00  0.00     0.188 HD
HETATM   29  C   UNL     1     -41.984  59.792 -60.868  1.00  0.00     0.123 A 
ENDBRANCH  20  24
ENDBRANCH   2  18
TORSDOF 6
ENDMDL
MODEL 5
REMARK VINA RESULT:      -7.5      1.715      2.433
REMARK  6 active torsions:
REMARK  status: ('A' for Active; 'I' for Inactive)
REMARK    1  A    between atoms: C_2  and  N_3 
REMARK    2  A    between atoms: C_2  and  C_12 
REMARK       I    between atoms: N_3  and  C_4 
REMARK    3  A    between atoms: C_4  and  C_5 
REMARK    4  A    between atoms: C_12  and  C_13 
REMARK       I    between atoms: C_13  and  N_14 
REMARK    5  A    between atoms: N_14  and  C_15 
REMARK    6  A    between atoms: C_17  and  C_18 
ROOT
HETATM    1  C   UNL     1     -41.425  57.731 -52.997  1.00  0.00     0.224 C 
HETATM    2  N   UNL     1     -42.206  58.677 -53.634  1.00  0.00    -0.327 N 
HETATM    3  O   UNL     1     -40.563  57.026 -53.516  1.00  0.00    -0.273 OA
HETATM    4  H   UNL     1     -42.808  59.243 -53.047  1.00  0.00     0.169 HD
ENDROOT
BRANCH   1   5
HETATM    5  C   UNL     1     -41.676  57.644 -51.507  1.00  0.00     0.128 C 
BRANCH   5   6
HETATM    6  C   UNL     1     -42.393  56.336 -51.158  1.00  0.00     0.089 C 
HETATM    7  C   UNL     1     -43.906  56.429 -51.368  1.00  0.00     0.032 C 
BRANCH   6   8
HETATM    8  N   UNL     1     -41.822  55.201 -51.883  1.00  0.00    -0.352 N 
HETATM    9  C   UNL     1     -40.868  54.358 -51.351  1.00  0.00     0.252 C 
HETATM   10  O   UNL     1     -40.364  54.521 -50.245  1.00  0.00    -0.268 OA
HETATM   11  H   UNL     1     -42.341  54.883 -52.692  1.00  0.00     0.163 HD
BRANCH   9  12
HETATM   12  C   UNL     1     -40.512  53.167 -52.175  1.00  0.00     0.032 A 
HETATM   13  C   UNL     1     -39.824  52.069 -51.639  1.00  0.00     0.017 A 
HETATM   14  C   UNL     1     -39.489  50.987 -52.458  1.00  0.00     0.001 A 
HETATM   15  C   UNL     1     -39.849  50.992 -53.806  1.00  0.00     0.000 A 
HETATM   16  C   UNL     1     -40.552  52.073 -54.338  1.00  0.00     0.001 A 
HETATM   17  C   UNL     1     -40.886  53.156 -53.523  1.00  0.00     0.017 A 
ENDBRANCH   9  12
ENDBRANCH   6   8
ENDBRANCH   5   6
ENDBRANCH   1   5
BRANCH   2  18
HETATM   18  C   UNL     1     -42.252  58.955 -55.017  1.00  0.00     0.035 A 
HETATM   19  C   UNL     1     -42.454  57.983 -56.002  1.00  0.00     0.042 A 
HETATM   20  C   UNL     1     -42.518  58.326 -57.364  1.00  0.00    -0.021 A 
HETATM   21  C   UNL     1     -42.365  59.669 -57.728  1.00  0.00     0.012 A 
HETATM   22  C   UNL     1     -42.159  60.648 -56.754  1.00  0.00     0.003 A 
HETATM   23  C   UNL     1     -42.109  60.292 -55.406  1.00  0.00     0.029 A 
BRANCH  20  24
HETATM   24  C   UNL     1     -42.767  57.296 -58.362  1.00  0.00     0.010 A 
HETATM   25  C   UNL     1     -42.472  57.262 -59.747  1.00  0.00     0.152 A 
HETATM   26  N   UNL     1     -42.859  56.127 -60.334  1.00  0.00    -0.187 NA
HETATM   27  N   UNL     1     -43.417  55.433 -59.331  1.00  0.00    -0.289 N 
HETATM   28  H   UNL     1     -43.801  54.516 -59.538  1.00  0.00     0.188 HD
HETATM   29  C   UNL     1     -43.385  56.085 -58.133  1.00  0.00     0.123 A 
ENDBRANCH  20  24
ENDBRANCH   2  18
TORSDOF 6
ENDMDL
MODEL 6
REMARK VINA RESULT:      -7.4      4.567      8.911
REMARK  6 active torsions:
REMARK  status: ('A' for Active; 'I' for Inactive)
REMARK    1  A    between atoms: C_2  and  N_3 
REMARK    2  A    between atoms: C_2  and  C_12 
REMARK       I    between atoms: N_3  and  C_4 
REMARK    3  A    between atoms: C_4  and  C_5 
REMARK    4  A    between atoms: C_12  and  C_13 
REMARK       I    between atoms: C_13  and  N_14 
REMARK    5  A    between atoms: N_14  and  C_15 
REMARK    6  A    between atoms: C_17  and  C_18 
ROOT
HETATM    1  C   UNL     1     -42.527  56.520 -51.757  1.00  0.00     0.224 C 
HETATM    2  N   UNL     1     -42.785  55.491 -52.643  1.00  0.00    -0.327 N 
HETATM    3  O   UNL     1     -41.422  56.927 -51.412  1.00  0.00    -0.273 OA
HETATM    4  H   UNL     1     -43.754  55.336 -52.896  1.00  0.00     0.169 HD
ENDROOT
BRANCH   1   5
HETATM    5  C   UNL     1     -43.778  57.197 -51.239  1.00  0.00     0.128 C 
BRANCH   5   6
HETATM    6  C   UNL     1     -43.840  58.651 -51.719  1.00  0.00     0.089 C 
HETATM    7  C   UNL     1     -44.769  58.826 -52.922  1.00  0.00     0.032 C 
BRANCH   6   8
HETATM    8  N   UNL     1     -44.196  59.561 -50.631  1.00  0.00    -0.352 N 
HETATM    9  C   UNL     1     -43.483  60.703 -50.327  1.00  0.00     0.252 C 
HETATM   10  O   UNL     1     -42.449  61.026 -50.899  1.00  0.00    -0.268 OA
HETATM   11  H   UNL     1     -45.139  59.479 -50.273  1.00  0.00     0.163 HD
BRANCH   9  12
HETATM   12  C   UNL     1     -44.078  61.589 -49.285  1.00  0.00     0.032 A 
HETATM   13  C   UNL     1     -44.707  61.077 -48.141  1.00  0.00     0.017 A 
HETATM   14  C   UNL     1     -45.272  61.947 -47.206  1.00  0.00     0.001 A 
HETATM   15  C   UNL     1     -45.202  63.327 -47.402  1.00  0.00     0.000 A 
HETATM   16  C   UNL     1     -44.560  63.841 -48.527  1.00  0.00     0.001 A 
HETATM   17  C   UNL     1     -43.995  62.974 -49.465  1.00  0.00     0.017 A 
ENDBRANCH   9  12
ENDBRANCH   6   8
ENDBRANCH   5   6
ENDBRANCH   1   5
BRANCH   2  18
HETATM   18  C   UNL     1     -41.845  54.631 -53.250  1.00  0.00     0.035 A 
HETATM   19  C   UNL     1     -41.370  53.454 -52.663  1.00  0.00     0.042 A 
HETATM   20  C   UNL     1     -40.453  52.623 -53.329  1.00  0.00    -0.021 A 
HETATM   21  C   UNL     1     -40.005  52.999 -54.602  1.00  0.00     0.012 A 
HETATM   22  C   UNL     1     -40.469  54.173 -55.197  1.00  0.00     0.003 A 
HETATM   23  C   UNL     1     -41.388  54.981 -54.526  1.00  0.00     0.029 A 
BRANCH  20  24
HETATM   24  C   UNL     1     -40.006  51.385 -52.706  1.00  0.00     0.010 A 
HETATM   25  C   UNL     1     -39.663  51.100 -51.362  1.00  0.00     0.152 A 
HETATM   26  N   UNL     1     -39.297  49.828 -51.178  1.00  0.00    -0.187 NA
HETATM   27  N   UNL     1     -39.390  49.296 -52.405  1.00  0.00    -0.289 N 
HETATM   28  H   UNL     1     -39.150  48.317 -52.523  1.00  0.00     0.188 HD
HETATM   29  C   UNL     1     -39.812  50.183 -53.353  1.00  0.00     0.123 A 
ENDBRANCH  20  24
ENDBRANCH   2  18
TORSDOF 6
ENDMDL
MODEL 7
REMARK VINA RESULT:      -7.2      2.265      7.603
REMARK  6 active torsions:
REMARK  status: ('A' for Active; 'I' for Inactive)
REMARK    1  A    between atoms: C_2  and  N_3 
REMARK    2  A    between atoms: C_2  and  C_12 
REMARK       I    between atoms: N_3  and  C_4 
REMARK    3  A    between atoms: C_4  and  C_5 
REMARK    4  A    between atoms: C_12  and  C_13 
REMARK       I    between atoms: C_13  and  N_14 
REMARK    5  A    between atoms: N_14  and  C_15 
REMARK    6  A    between atoms: C_17  and  C_18 
ROOT
HETATM    1  C   UNL     1     -41.544  57.269 -53.972  1.00  0.00     0.224 C 
HETATM    2  N   UNL     1     -42.035  56.002 -53.722  1.00  0.00    -0.327 N 
HETATM    3  O   UNL     1     -40.460  57.717 -53.611  1.00  0.00    -0.273 OA
HETATM    4  H   UNL     1     -42.910  55.753 -54.169  1.00  0.00     0.169 HD
ENDROOT
BRANCH   1   5
HETATM    5  C   UNL     1     -42.466  58.116 -54.822  1.00  0.00     0.128 C 
BRANCH   5   6
HETATM    6  C   UNL     1     -43.897  57.570 -54.771  1.00  0.00     0.089 C 
HETATM    7  C   UNL     1     -44.902  58.620 -54.291  1.00  0.00     0.032 C 
BRANCH   6   8
HETATM    8  N   UNL     1     -44.298  56.993 -56.054  1.00  0.00    -0.352 N 
HETATM    9  C   UNL     1     -44.211  57.669 -57.255  1.00  0.00     0.252 C 
HETATM   10  O   UNL     1     -43.851  58.837 -57.348  1.00  0.00    -0.268 OA
HETATM   11  H   UNL     1     -44.389  55.986 -56.081  1.00  0.00     0.163 HD
BRANCH   9  12
HETATM   12  C   UNL     1     -44.520  56.875 -58.478  1.00  0.00     0.032 A 
HETATM   13  C   UNL     1     -45.672  57.104 -59.244  1.00  0.00     0.017 A 
HETATM   14  C   UNL     1     -45.932  56.316 -60.368  1.00  0.00     0.001 A 
HETATM   15  C   UNL     1     -45.041  55.307 -60.737  1.00  0.00     0.000 A 
HETATM   16  C   UNL     1     -43.884  55.090 -59.990  1.00  0.00     0.001 A 
HETATM   17  C   UNL     1     -43.622  55.874 -58.865  1.00  0.00     0.017 A 
ENDBRANCH   9  12
ENDBRANCH   6   8
ENDBRANCH   5   6
ENDBRANCH   1   5
BRANCH   2  18
HETATM   18  C   UNL     1     -41.447  55.002 -52.918  1.00  0.00     0.035 A 
HETATM   19  C   UNL     1     -41.098  53.730 -53.385  1.00  0.00     0.042 A 
HETATM   20  C   UNL     1     -40.488  52.785 -52.542  1.00  0.00    -0.021 A 
HETATM   21  C   UNL     1     -40.242  53.131 -51.208  1.00  0.00     0.012 A 
HETATM   22  C   UNL     1     -40.589  54.396 -50.730  1.00  0.00     0.003 A 
HETATM   23  C   UNL     1     -41.183  55.327 -51.583  1.00  0.00     0.029 A 
BRANCH  20  24
HETATM   24  C   UNL     1     -40.102  51.483 -53.068  1.00  0.00     0.010 A 
HETATM   25  C   UNL     1     -39.602  50.332 -52.410  1.00  0.00     0.152 A 
HETATM   26  N   UNL     1     -39.364  49.318 -53.246  1.00  0.00    -0.187 NA
HETATM   27  N   UNL     1     -39.696  49.818 -54.445  1.00  0.00    -0.289 N 
HETATM   28  H   UNL     1     -39.591  49.221 -55.259  1.00  0.00     0.188 HD
HETATM   29  C   UNL     1     -40.145  51.106 -54.394  1.00  0.00     0.123 A 
ENDBRANCH  20  24
ENDBRANCH   2  18
TORSDOF 6
ENDMDL
MODEL 8
REMARK VINA RESULT:      -7.2     14.343     17.777
REMARK  6 active torsions:
REMARK  status: ('A' for Active; 'I' for Inactive)
REMARK    1  A    between atoms: C_2  and  N_3 
REMARK    2  A    between atoms: C_2  and  C_12 
REMARK       I    between atoms: N_3  and  C_4 
REMARK    3  A    between atoms: C_4  and  C_5 
REMARK    4  A    between atoms: C_12  and  C_13 
REMARK       I    between atoms: C_13  and  N_14 
REMARK    5  A    between atoms: N_14  and  C_15 
REMARK    6  A    between atoms: C_17  and  C_18 
ROOT
HETATM    1  C   UNL     1     -36.938  41.359 -55.057  1.00  0.00     0.224 C 
HETATM    2  N   UNL     1     -36.558  41.903 -53.845  1.00  0.00    -0.327 N 
HETATM    3  O   UNL     1     -37.154  40.173 -55.291  1.00  0.00    -0.273 OA
HETATM    4  H   UNL     1     -36.510  42.913 -53.791  1.00  0.00     0.169 HD
ENDROOT
BRANCH   1   5
HETATM    5  C   UNL     1     -37.134  42.392 -56.146  1.00  0.00     0.128 C 
BRANCH   5   6
HETATM    6  C   UNL     1     -36.305  42.032 -57.384  1.00  0.00     0.089 C 
HETATM    7  C   UNL     1     -34.849  41.716 -57.034  1.00  0.00     0.032 C 
BRANCH   6   8
HETATM    8  N   UNL     1     -36.920  40.946 -58.146  1.00  0.00    -0.352 N 
HETATM    9  C   UNL     1     -37.379  41.086 -59.440  1.00  0.00     0.252 C 
HETATM   10  O   UNL     1     -37.372  42.151 -60.047  1.00  0.00    -0.268 OA
HETATM   11  H   UNL     1     -36.757  40.010 -57.797  1.00  0.00     0.163 HD
BRANCH   9  12
HETATM   12  C   UNL     1     -37.837  39.836 -60.112  1.00  0.00     0.032 A 
HETATM   13  C   UNL     1     -38.770  38.972 -59.522  1.00  0.00     0.017 A 
HETATM   14  C   UNL     1     -39.149  37.799 -60.180  1.00  0.00     0.001 A 
HETATM   15  C   UNL     1     -38.610  37.491 -61.429  1.00  0.00     0.000 A 
HETATM   16  C   UNL     1     -37.697  38.359 -62.029  1.00  0.00     0.001 A 
HETATM   17  C   UNL     1     -37.315  39.531 -61.374  1.00  0.00     0.017 A 
ENDBRANCH   9  12
ENDBRANCH   6   8
ENDBRANCH   5   6
ENDBRANCH   1   5
BRANCH   2  18
HETATM   18  C   UNL     1     -36.241  41.206 -52.659  1.00  0.00     0.035 A 
HETATM   19  C   UNL     1     -34.935  40.985 -52.209  1.00  0.00     0.042 A 
HETATM   20  C   UNL     1     -34.682  40.307 -51.004  1.00  0.00    -0.021 A 
HETATM   21  C   UNL     1     -35.767  39.839 -50.254  1.00  0.00     0.012 A 
HETATM   22  C   UNL     1     -37.075  40.050 -50.695  1.00  0.00     0.003 A 
HETATM   23  C   UNL     1     -37.309  40.735 -51.887  1.00  0.00     0.029 A 
BRANCH  20  24
HETATM   24  C   UNL     1     -33.312  40.127 -50.545  1.00  0.00     0.010 A 
HETATM   25  C   UNL     1     -32.807  39.707 -49.290  1.00  0.00     0.152 A 
HETATM   26  N   UNL     1     -31.472  39.664 -49.255  1.00  0.00    -0.187 NA
HETATM   27  N   UNL     1     -31.115  40.068 -50.483  1.00  0.00    -0.289 N 
HETATM   28  H   UNL     1     -30.125  40.125 -50.700  1.00  0.00     0.188 HD
HETATM   29  C   UNL     1     -32.176  40.355 -51.293  1.00  0.00     0.123 A 
ENDBRANCH  20  24
ENDBRANCH   2  18
TORSDOF 6
ENDMDL
MODEL 9
REMARK VINA RESULT:      -7.0      2.295      3.236
REMARK  6 active torsions:
REMARK  status: ('A' for Active; 'I' for Inactive)
REMARK    1  A    between atoms: C_2  and  N_3 
REMARK    2  A    between atoms: C_2  and  C_12 
REMARK       I    between atoms: N_3  and  C_4 
REMARK    3  A    between atoms: C_4  and  C_5 
REMARK    4  A    between atoms: C_12  and  C_13 
REMARK       I    between atoms: C_13  and  N_14 
REMARK    5  A    between atoms: N_14  and  C_15 
REMARK    6  A    between atoms: C_17  and  C_18 
ROOT
HETATM    1  C   UNL     1     -42.874  58.978 -55.259  1.00  0.00     0.224 C 
HETATM    2  N   UNL     1     -43.960  58.258 -55.721  1.00  0.00    -0.327 N 
HETATM    3  O   UNL     1     -41.818  59.171 -55.854  1.00  0.00    -0.273 OA
HETATM    4  H   UNL     1     -44.795  58.269 -55.147  1.00  0.00     0.169 HD
ENDROOT
BRANCH   1   5
HETATM    5  C   UNL     1     -43.099  59.600 -53.898  1.00  0.00     0.128 C 
BRANCH   5   6
HETATM    6  C   UNL     1     -42.796  58.589 -52.787  1.00  0.00     0.089 C 
HETATM    7  C   UNL     1     -44.033  58.260 -51.948  1.00  0.00     0.032 C 
BRANCH   6   8
HETATM    8  N   UNL     1     -42.173  57.378 -53.319  1.00  0.00    -0.352 N 
HETATM    9  C   UNL     1     -41.392  56.526 -52.564  1.00  0.00     0.252 C 
HETATM   10  O   UNL     1     -41.096  56.741 -51.395  1.00  0.00    -0.268 OA
HETATM   11  H   UNL     1     -42.549  57.030 -54.192  1.00  0.00     0.163 HD
BRANCH   9  12
HETATM   12  C   UNL     1     -40.965  55.263 -53.232  1.00  0.00     0.032 A 
HETATM   13  C   UNL     1     -40.600  55.222 -54.584  1.00  0.00     0.017 A 
HETATM   14  C   UNL     1     -40.232  54.009 -55.173  1.00  0.00     0.001 A 
HETATM   15  C   UNL     1     -40.215  52.839 -54.412  1.00  0.00     0.000 A 
HETATM   16  C   UNL     1     -40.556  52.879 -53.061  1.00  0.00     0.001 A 
HETATM   17  C   UNL     1     -40.927  54.090 -52.471  1.00  0.00     0.017 A 
ENDBRANCH   9  12
ENDBRANCH   6   8
ENDBRANCH   5   6
ENDBRANCH   1   5
BRANCH   2  18
HETATM   18  C   UNL     1     -44.043  57.514 -56.918  1.00  0.00     0.035 A 
HETATM   19  C   UNL     1     -45.040  57.695 -57.882  1.00  0.00     0.042 A 
HETATM   20  C   UNL     1     -45.054  56.941 -59.068  1.00  0.00    -0.021 A 
HETATM   21  C   UNL     1     -44.051  55.986 -59.271  1.00  0.00     0.012 A 
HETATM   22  C   UNL     1     -43.053  55.793 -58.315  1.00  0.00     0.003 A 
HETATM   23  C   UNL     1     -43.047  56.558 -57.148  1.00  0.00     0.029 A 
BRANCH  20  24
HETATM   24  C   UNL     1     -46.085  57.180 -60.069  1.00  0.00     0.010 A 
HETATM   25  C   UNL     1     -46.752  58.373 -60.441  1.00  0.00     0.152 A 
HETATM   26  N   UNL     1     -47.646  58.186 -61.416  1.00  0.00    -0.187 NA
HETATM   27  N   UNL     1     -47.566  56.871 -61.664  1.00  0.00    -0.289 N 
HETATM   28  H   UNL     1     -48.170  56.480 -62.380  1.00  0.00     0.188 HD
HETATM   29  C   UNL     1     -46.647  56.224 -60.889  1.00  0.00     0.123 A 
ENDBRANCH  20  24
ENDBRANCH   2  18
TORSDOF 6
ENDMDL
MODEL 10
REMARK VINA RESULT:      -6.9      3.127      7.731
REMARK  6 active torsions:
REMARK  status: ('A' for Active; 'I' for Inactive)
REMARK    1  A    between atoms: C_2  and  N_3 
REMARK    2  A    between atoms: C_2  and  C_12 
REMARK       I    between atoms: N_3  and  C_4 
REMARK    3  A    between atoms: C_4  and  C_5 
REMARK    4  A    between atoms: C_12  and  C_13 
REMARK       I    between atoms: C_13  and  N_14 
REMARK    5  A    between atoms: N_14  and  C_15 
REMARK    6  A    between atoms: C_17  and  C_18 
ROOT
HETATM    1  C   UNL     1     -42.595  57.049 -55.090  1.00  0.00     0.224 C 
HETATM    2  N   UNL     1     -41.402  56.696 -54.488  1.00  0.00    -0.327 N 
HETATM    3  O   UNL     1     -43.709  56.611 -54.817  1.00  0.00    -0.273 OA
HETATM    4  H   UNL     1     -40.578  57.217 -54.764  1.00  0.00     0.169 HD
ENDROOT
BRANCH   1   5
HETATM    5  C   UNL     1     -42.443  58.121 -56.148  1.00  0.00     0.128 C 
BRANCH   5   6
HETATM    6  C   UNL     1     -42.070  59.461 -55.504  1.00  0.00     0.089 C 
HETATM    7  C   UNL     1     -42.242  60.636 -56.470  1.00  0.00     0.032 C 
BRANCH   6   8
HETATM    8  N   UNL     1     -42.805  59.681 -54.258  1.00  0.00    -0.352 N 
HETATM    9  C   UNL     1     -42.197  59.784 -53.023  1.00  0.00     0.252 C 
HETATM   10  O   UNL     1     -40.993  59.637 -52.848  1.00  0.00    -0.268 OA
HETATM   11  H   UNL     1     -43.750  60.028 -54.354  1.00  0.00     0.163 HD
BRANCH   9  12
HETATM   12  C   UNL     1     -43.086  60.159 -51.885  1.00  0.00     0.032 A 
HETATM   13  C   UNL     1     -42.746  61.171 -50.977  1.00  0.00     0.017 A 
HETATM   14  C   UNL     1     -43.599  61.468 -49.910  1.00  0.00     0.001 A 
HETATM   15  C   UNL     1     -44.795  60.766 -49.755  1.00  0.00     0.000 A 
HETATM   16  C   UNL     1     -45.147  59.773 -50.668  1.00  0.00     0.001 A 
HETATM   17  C   UNL     1     -44.296  59.473 -51.734  1.00  0.00     0.017 A 
ENDBRANCH   9  12
ENDBRANCH   6   8
ENDBRANCH   5   6
ENDBRANCH   1   5
BRANCH   2  18
HETATM   18  C   UNL     1     -41.200  55.692 -53.516  1.00  0.00     0.035 A 
HETATM   19  C   UNL     1     -40.841  54.375 -53.818  1.00  0.00     0.042 A 
HETATM   20  C   UNL     1     -40.627  53.426 -52.803  1.00  0.00    -0.021 A 
HETATM   21  C   UNL     1     -40.791  53.817 -51.469  1.00  0.00     0.012 A 
HETATM   22  C   UNL     1     -41.154  55.128 -51.156  1.00  0.00     0.003 A 
HETATM   23  C   UNL     1     -41.351  56.062 -52.175  1.00  0.00     0.029 A 
BRANCH  20  24
HETATM   24  C   UNL     1     -40.216  52.072 -53.149  1.00  0.00     0.010 A 
HETATM   25  C   UNL     1     -40.360  51.343 -54.355  1.00  0.00     0.152 A 
HETATM   26  N   UNL     1     -39.847  50.112 -54.282  1.00  0.00    -0.187 NA
HETATM   27  N   UNL     1     -39.384  50.041 -53.025  1.00  0.00    -0.289 N 
HETATM   28  H   UNL     1     -38.946  49.176 -52.724  1.00  0.00     0.188 HD
HETATM   29  C   UNL     1     -39.578  51.186 -52.307  1.00  0.00     0.123 A 
ENDBRANCH  20  24
ENDBRANCH   2  18
TORSDOF 6
ENDMDL
