MODEL 1
REMARK VINA RESULT:      -9.0      0.000      0.000
REMARK  5 active torsions:
REMARK  status: ('A' for Active; 'I' for Inactive)
REMARK    1  A    between atoms: C_2  and  C_3 
REMARK    2  A    between atoms: C_8  and  N_9 
REMARK       I    between atoms: N_9  and  C_10 
REMARK       I    between atoms: C_10  and  N_11 
REMARK    3  A    between atoms: N_11  and  C_12 
REMARK    4  A    between atoms: C_12  and  C_13 
REMARK    5  A    between atoms: C_13  and  C_14 
ROOT
HETATM    1  N   UNL     1     -42.449  55.720 -57.760  1.00  0.00    -0.305 N 
HETATM    2  C   UNL     1     -42.851  56.181 -56.530  1.00  0.00     0.320 C 
HETATM    3  N   UNL     1     -42.080  55.627 -55.527  1.00  0.00    -0.343 N 
HETATM    4  O   UNL     1     -43.735  56.995 -56.305  1.00  0.00    -0.247 OA
HETATM    5  H   UNL     1     -41.509  55.354 -57.796  1.00  0.00     0.171 HD
HETATM    6  H   UNL     1     -41.758  54.686 -55.700  1.00  0.00     0.164 HD
ENDROOT
BRANCH   3   7
HETATM    7  C   UNL     1     -42.332  55.988 -54.142  1.00  0.00     0.129 C 
BRANCH   7   8
HETATM    8  C   UNL     1     -41.107  55.794 -53.242  1.00  0.00     0.058 C 
BRANCH   8   9
HETATM    9  C   UNL     1     -40.749  54.380 -52.836  1.00  0.00    -0.056 A 
HETATM   10  C   UNL     1     -40.530  53.346 -53.757  1.00  0.00     0.019 A 
HETATM   11  C   UNL     1     -40.169  52.051 -53.337  1.00  0.00    -0.025 A 
HETATM   12  C   UNL     1     -40.007  51.790 -51.959  1.00  0.00    -0.026 A 
HETATM   13  C   UNL     1     -39.962  51.012 -54.259  1.00  0.00     0.012 A 
HETATM   14  C   UNL     1     -40.209  52.826 -51.038  1.00  0.00     0.013 A 
HETATM   15  C   UNL     1     -39.641  50.499 -51.540  1.00  0.00     0.012 A 
HETATM   16  C   UNL     1     -40.570  54.104 -51.473  1.00  0.00     0.008 A 
HETATM   17  C   UNL     1     -39.440  49.479 -52.470  1.00  0.00     0.001 A 
HETATM   18  C   UNL     1     -39.600  49.735 -53.828  1.00  0.00     0.001 A 
ENDBRANCH   8   9
ENDBRANCH   7   8
ENDBRANCH   3   7
BRANCH   1  19
HETATM   19  C   UNL     1     -43.052  56.005 -58.976  1.00  0.00     0.095 A 
HETATM   20  C   UNL     1     -42.750  57.128 -59.719  1.00  0.00     0.107 A 
HETATM   21  O   UNL     1     -43.494  57.137 -60.853  1.00  0.00    -0.215 OA
HETATM   22  N   UNL     1     -44.288  56.013 -60.894  1.00  0.00    -0.131 NA
HETATM   23  C   UNL     1     -44.019  55.326 -59.773  1.00  0.00     0.087 A 
HETATM   24  C   UNL     1     -44.696  54.022 -59.572  1.00  0.00     0.075 C 
BRANCH  20  25
HETATM   25  C   UNL     1     -41.833  58.280 -59.543  1.00  0.00     0.065 C 
HETATM   26  C   UNL     1     -42.553  59.495 -58.979  1.00  0.00     0.012 C 
ENDBRANCH  20  25
ENDBRANCH   1  19
TORSDOF 5
ENDMDL
MODEL 2
REMARK VINA RESULT:      -8.7      0.800      2.159
REMARK  5 active torsions:
REMARK  status: ('A' for Active; 'I' for Inactive)
REMARK    1  A    between atoms: C_2  and  C_3 
REMARK    2  A    between atoms: C_8  and  N_9 
REMARK       I    between atoms: N_9  and  C_10 
REMARK       I    between atoms: C_10  and  N_11 
REMARK    3  A    between atoms: N_11  and  C_12 
REMARK    4  A    between atoms: C_12  and  C_13 
REMARK    5  A    between atoms: C_13  and  C_14 
ROOT
HETATM    1  N   UNL     1     -42.123  56.921 -57.521  1.00  0.00    -0.305 N 
HETATM    2  C   UNL     1     -42.751  56.822 -56.303  1.00  0.00     0.320 C 
HETATM    3  N   UNL     1     -41.904  56.267 -55.364  1.00  0.00    -0.343 N 
HETATM    4  O   UNL     1     -43.882  57.194 -56.029  1.00  0.00    -0.247 OA
HETATM    5  H   UNL     1     -41.114  56.909 -57.488  1.00  0.00     0.171 HD
HETATM    6  H   UNL     1     -41.253  55.583 -55.721  1.00  0.00     0.164 HD
ENDROOT
BRANCH   3   7
HETATM    7  C   UNL     1     -42.367  56.079 -53.999  1.00  0.00     0.129 C 
BRANCH   7   8
HETATM    8  C   UNL     1     -41.221  55.854 -53.006  1.00  0.00     0.058 C 
BRANCH   8   9
HETATM    9  C   UNL     1     -40.813  54.426 -52.714  1.00  0.00    -0.056 A 
HETATM   10  C   UNL     1     -40.699  53.439 -53.704  1.00  0.00     0.019 A 
HETATM   11  C   UNL     1     -40.287  52.129 -53.392  1.00  0.00    -0.025 A 
HETATM   12  C   UNL     1     -39.965  51.803 -52.057  1.00  0.00    -0.026 A 
HETATM   13  C   UNL     1     -40.185  51.138 -54.382  1.00  0.00     0.012 A 
HETATM   14  C   UNL     1     -40.061  52.792 -51.070  1.00  0.00     0.013 A 
HETATM   15  C   UNL     1     -39.548  50.497 -51.747  1.00  0.00     0.012 A 
HETATM   16  C   UNL     1     -40.476  54.086 -51.396  1.00  0.00     0.008 A 
HETATM   17  C   UNL     1     -39.452  49.525 -52.743  1.00  0.00     0.001 A 
HETATM   18  C   UNL     1     -39.771  49.844 -54.059  1.00  0.00     0.001 A 
ENDBRANCH   8   9
ENDBRANCH   7   8
ENDBRANCH   3   7
BRANCH   1  19
HETATM   19  C   UNL     1     -42.701  57.357 -58.704  1.00  0.00     0.095 A 
HETATM   20  C   UNL     1     -43.438  56.532 -59.529  1.00  0.00     0.107 A 
HETATM   21  O   UNL     1     -43.873  57.235 -60.604  1.00  0.00    -0.215 OA
HETATM   22  N   UNL     1     -43.451  58.541 -60.505  1.00  0.00    -0.131 NA
HETATM   23  C   UNL     1     -42.754  58.622 -59.361  1.00  0.00     0.087 A 
HETATM   24  C   UNL     1     -42.219  59.944 -58.959  1.00  0.00     0.075 C 
BRANCH  20  25
HETATM   25  C   UNL     1     -43.830  55.102 -59.495  1.00  0.00     0.065 C 
HETATM   26  C   UNL     1     -45.007  54.816 -60.413  1.00  0.00     0.012 C 
ENDBRANCH  20  25
ENDBRANCH   1  19
TORSDOF 5
ENDMDL
MODEL 3
REMARK VINA RESULT:      -8.4      1.632      1.811
REMARK  5 active torsions:
REMARK  status: ('A' for Active; 'I' for Inactive)
REMARK    1  A    between atoms: C_2  and  C_3 
REMARK    2  A    between atoms: C_8  and  N_9 
REMARK       I    between atoms: N_9  and  C_10 
REMARK       I    between atoms: C_10  and  N_11 
REMARK    3  A    between atoms: N_11  and  C_12 
REMARK    4  A    between atoms: C_12  and  C_13 
REMARK    5  A    between atoms: C_13  and  C_14 
ROOT
HETATM    1  N   UNL     1     -43.237  56.832 -58.712  1.00  0.00    -0.305 N 
HETATM    2  C   UNL     1     -43.222  56.722 -57.342  1.00  0.00     0.320 C 
HETATM    3  N   UNL     1     -42.460  55.640 -56.950  1.00  0.00    -0.343 N 
HETATM    4  O   UNL     1     -43.758  57.473 -56.541  1.00  0.00    -0.247 OA
HETATM    5  H   UNL     1     -42.476  56.371 -59.189  1.00  0.00     0.171 HD
HETATM    6  H   UNL     1     -42.474  54.851 -57.580  1.00  0.00     0.164 HD
ENDROOT
BRANCH   3   7
HETATM    7  C   UNL     1     -42.302  55.345 -55.536  1.00  0.00     0.129 C 
BRANCH   7   8
HETATM    8  C   UNL     1     -40.849  55.053 -55.145  1.00  0.00     0.058 C 
BRANCH   8   9
HETATM    9  C   UNL     1     -40.602  53.982 -54.104  1.00  0.00    -0.056 A 
HETATM   10  C   UNL     1     -40.312  52.648 -54.425  1.00  0.00     0.019 A 
HETATM   11  C   UNL     1     -40.059  51.689 -53.425  1.00  0.00    -0.025 A 
HETATM   12  C   UNL     1     -40.081  52.080 -52.068  1.00  0.00    -0.026 A 
HETATM   13  C   UNL     1     -39.780  50.350 -53.747  1.00  0.00     0.012 A 
HETATM   14  C   UNL     1     -40.354  53.416 -51.747  1.00  0.00     0.013 A 
HETATM   15  C   UNL     1     -39.823  51.125 -51.071  1.00  0.00     0.012 A 
HETATM   16  C   UNL     1     -40.606  54.353 -52.752  1.00  0.00     0.008 A 
HETATM   17  C   UNL     1     -39.548  49.799 -51.408  1.00  0.00     0.001 A 
HETATM   18  C   UNL     1     -39.527  49.412 -52.745  1.00  0.00     0.001 A 
ENDBRANCH   8   9
ENDBRANCH   7   8
ENDBRANCH   3   7
BRANCH   1  19
HETATM   19  C   UNL     1     -43.966  57.753 -59.449  1.00  0.00     0.095 A 
HETATM   20  C   UNL     1     -43.378  58.677 -60.288  1.00  0.00     0.107 A 
HETATM   21  O   UNL     1     -44.338  59.439 -60.870  1.00  0.00    -0.215 OA
HETATM   22  N   UNL     1     -45.579  59.023 -60.445  1.00  0.00    -0.131 NA
HETATM   23  C   UNL     1     -45.362  58.005 -59.598  1.00  0.00     0.087 A 
HETATM   24  C   UNL     1     -46.537  57.312 -59.020  1.00  0.00     0.075 C 
BRANCH  20  25
HETATM   25  C   UNL     1     -41.982  59.007 -60.663  1.00  0.00     0.065 C 
HETATM   26  C   UNL     1     -41.884  60.359 -61.351  1.00  0.00     0.012 C 
ENDBRANCH  20  25
ENDBRANCH   1  19
TORSDOF 5
ENDMDL
MODEL 4
REMARK VINA RESULT:      -8.3      1.846      2.176
REMARK  5 active torsions:
REMARK  status: ('A' for Active; 'I' for Inactive)
REMARK    1  A    between atoms: C_2  and  C_3 
REMARK    2  A    between atoms: C_8  and  N_9 
REMARK       I    between atoms: N_9  and  C_10 
REMARK       I    between atoms: C_10  and  N_11 
REMARK    3  A    between atoms: N_11  and  C_12 
REMARK    4  A    between atoms: C_12  and  C_13 
REMARK    5  A    between atoms: C_13  and  C_14 
ROOT
HETATM    1  N   UNL     1     -44.050  56.479 -57.327  1.00  0.00    -0.305 N 
HETATM    2  C   UNL     1     -43.501  56.907 -56.142  1.00  0.00     0.320 C 
HETATM    3  N   UNL     1     -43.461  55.877 -55.224  1.00  0.00    -0.343 N 
HETATM    4  O   UNL     1     -43.059  58.021 -55.900  1.00  0.00    -0.247 OA
HETATM    5  H   UNL     1     -44.024  55.481 -57.477  1.00  0.00     0.171 HD
HETATM    6  H   UNL     1     -44.219  55.213 -55.288  1.00  0.00     0.164 HD
ENDROOT
BRANCH   3   7
HETATM    7  C   UNL     1     -42.908  56.112 -53.901  1.00  0.00     0.129 C 
BRANCH   7   8
HETATM    8  C   UNL     1     -41.403  55.833 -53.825  1.00  0.00     0.058 C 
BRANCH   8   9
HETATM    9  C   UNL     1     -40.963  54.477 -53.316  1.00  0.00    -0.056 A 
HETATM   10  C   UNL     1     -40.784  53.362 -54.148  1.00  0.00     0.019 A 
HETATM   11  C   UNL     1     -40.345  52.125 -53.638  1.00  0.00    -0.025 A 
HETATM   12  C   UNL     1     -40.062  52.006 -52.259  1.00  0.00    -0.026 A 
HETATM   13  C   UNL     1     -40.177  51.007 -54.470  1.00  0.00     0.012 A 
HETATM   14  C   UNL     1     -40.225  53.123 -51.429  1.00  0.00     0.013 A 
HETATM   15  C   UNL     1     -39.619  50.774 -51.750  1.00  0.00     0.012 A 
HETATM   16  C   UNL     1     -40.665  54.342 -51.953  1.00  0.00     0.008 A 
HETATM   17  C   UNL     1     -39.458  49.672 -52.591  1.00  0.00     0.001 A 
HETATM   18  C   UNL     1     -39.737  49.788 -53.949  1.00  0.00     0.001 A 
ENDBRANCH   8   9
ENDBRANCH   7   8
ENDBRANCH   3   7
BRANCH   1  19
HETATM   19  C   UNL     1     -44.314  57.268 -58.436  1.00  0.00     0.095 A 
HETATM   20  C   UNL     1     -45.527  57.893 -58.641  1.00  0.00     0.107 A 
HETATM   21  O   UNL     1     -45.488  58.590 -59.805  1.00  0.00    -0.215 OA
HETATM   22  N   UNL     1     -44.246  58.457 -60.383  1.00  0.00    -0.131 NA
HETATM   23  C   UNL     1     -43.535  57.671 -59.560  1.00  0.00     0.087 A 
HETATM   24  C   UNL     1     -42.119  57.397 -59.904  1.00  0.00     0.075 C 
BRANCH  20  25
HETATM   25  C   UNL     1     -46.809  57.954 -57.898  1.00  0.00     0.065 C 
HETATM   26  C   UNL     1     -47.477  59.313 -58.033  1.00  0.00     0.012 C 
ENDBRANCH  20  25
ENDBRANCH   1  19
TORSDOF 5
ENDMDL
MODEL 5
REMARK VINA RESULT:      -8.2      1.930      2.827
REMARK  5 active torsions:
REMARK  status: ('A' for Active; 'I' for Inactive)
REMARK    1  A    between atoms: C_2  and  C_3 
REMARK    2  A    between atoms: C_8  and  N_9 
REMARK       I    between atoms: N_9  and  C_10 
REMARK       I    between atoms: C_10  and  N_11 
REMARK    3  A    between atoms: N_11  and  C_12 
REMARK    4  A    between atoms: C_12  and  C_13 
REMARK    5  A    between atoms: C_13  and  C_14 
ROOT
HETATM    1  N   UNL     1     -44.735  56.966 -57.769  1.00  0.00    -0.305 N 
HETATM    2  C   UNL     1     -43.445  56.497 -57.704  1.00  0.00     0.320 C 
HETATM    3  N   UNL     1     -43.260  55.739 -56.566  1.00  0.00    -0.343 N 
HETATM    4  O   UNL     1     -42.561  56.667 -58.531  1.00  0.00    -0.247 OA
HETATM    5  H   UNL     1     -45.408  56.451 -57.219  1.00  0.00     0.171 HD
HETATM    6  H   UNL     1     -43.796  56.030 -55.761  1.00  0.00     0.164 HD
ENDROOT
BRANCH   3   7
HETATM    7  C   UNL     1     -41.963  55.137 -56.304  1.00  0.00     0.129 C 
BRANCH   7   8
HETATM    8  C   UNL     1     -41.425  55.462 -54.906  1.00  0.00     0.058 C 
BRANCH   8   9
HETATM    9  C   UNL     1     -41.007  54.304 -54.026  1.00  0.00    -0.056 A 
HETATM   10  C   UNL     1     -40.697  53.030 -54.523  1.00  0.00     0.019 A 
HETATM   11  C   UNL     1     -40.283  51.987 -53.671  1.00  0.00    -0.025 A 
HETATM   12  C   UNL     1     -40.162  52.232 -52.286  1.00  0.00    -0.026 A 
HETATM   13  C   UNL     1     -39.984  50.709 -54.169  1.00  0.00     0.012 A 
HETATM   14  C   UNL     1     -40.455  53.509 -51.790  1.00  0.00     0.013 A 
HETATM   15  C   UNL     1     -39.743  51.194 -51.437  1.00  0.00     0.012 A 
HETATM   16  C   UNL     1     -40.868  54.530 -52.649  1.00  0.00     0.008 A 
HETATM   17  C   UNL     1     -39.450  49.930 -51.948  1.00  0.00     0.001 A 
HETATM   18  C   UNL     1     -39.571  49.687 -53.313  1.00  0.00     0.001 A 
ENDBRANCH   8   9
ENDBRANCH   7   8
ENDBRANCH   3   7
BRANCH   1  19
HETATM   19  C   UNL     1     -45.245  57.822 -58.733  1.00  0.00     0.095 A 
HETATM   20  C   UNL     1     -45.958  57.381 -59.829  1.00  0.00     0.107 A 
HETATM   21  O   UNL     1     -46.325  58.441 -60.591  1.00  0.00    -0.215 OA
HETATM   22  N   UNL     1     -45.881  59.606 -60.006  1.00  0.00    -0.131 NA
HETATM   23  C   UNL     1     -45.240  59.240 -58.886  1.00  0.00     0.087 A 
HETATM   24  C   UNL     1     -44.697  60.305 -58.010  1.00  0.00     0.075 C 
BRANCH  20  25
HETATM   25  C   UNL     1     -46.380  56.051 -60.333  1.00  0.00     0.065 C 
HETATM   26  C   UNL     1     -45.215  55.275 -60.925  1.00  0.00     0.012 C 
ENDBRANCH  20  25
ENDBRANCH   1  19
TORSDOF 5
ENDMDL
MODEL 6
REMARK VINA RESULT:      -8.1      1.459      2.330
REMARK  5 active torsions:
REMARK  status: ('A' for Active; 'I' for Inactive)
REMARK    1  A    between atoms: C_2  and  C_3 
REMARK    2  A    between atoms: C_8  and  N_9 
REMARK       I    between atoms: N_9  and  C_10 
REMARK       I    between atoms: C_10  and  N_11 
REMARK    3  A    between atoms: N_11  and  C_12 
REMARK    4  A    between atoms: C_12  and  C_13 
REMARK    5  A    between atoms: C_13  and  C_14 
ROOT
HETATM    1  N   UNL     1     -41.937  57.880 -57.779  1.00  0.00    -0.305 N 
HETATM    2  C   UNL     1     -42.567  57.223 -56.750  1.00  0.00     0.320 C 
HETATM    3  N   UNL     1     -41.642  56.629 -55.914  1.00  0.00    -0.343 N 
HETATM    4  O   UNL     1     -43.769  57.175 -56.538  1.00  0.00    -0.247 OA
HETATM    5  H   UNL     1     -40.972  58.121 -57.609  1.00  0.00     0.171 HD
HETATM    6  H   UNL     1     -40.802  56.297 -56.366  1.00  0.00     0.164 HD
ENDROOT
BRANCH   3   7
HETATM    7  C   UNL     1     -42.095  55.886 -54.750  1.00  0.00     0.129 C 
BRANCH   7   8
HETATM    8  C   UNL     1     -40.961  55.559 -53.772  1.00  0.00     0.058 C 
BRANCH   8   9
HETATM    9  C   UNL     1     -40.603  54.102 -53.572  1.00  0.00    -0.056 A 
HETATM   10  C   UNL     1     -40.483  53.503 -52.309  1.00  0.00     0.019 A 
HETATM   11  C   UNL     1     -40.177  52.136 -52.168  1.00  0.00    -0.025 A 
HETATM   12  C   UNL     1     -40.002  51.343 -53.323  1.00  0.00    -0.026 A 
HETATM   13  C   UNL     1     -40.046  51.541 -50.903  1.00  0.00     0.012 A 
HETATM   14  C   UNL     1     -40.138  51.935 -54.586  1.00  0.00     0.013 A 
HETATM   15  C   UNL     1     -39.702  49.978 -53.183  1.00  0.00     0.012 A 
HETATM   16  C   UNL     1     -40.438  53.294 -54.706  1.00  0.00     0.008 A 
HETATM   17  C   UNL     1     -39.575  49.402 -51.918  1.00  0.00     0.001 A 
HETATM   18  C   UNL     1     -39.746  50.183 -50.779  1.00  0.00     0.001 A 
ENDBRANCH   8   9
ENDBRANCH   7   8
ENDBRANCH   3   7
BRANCH   1  19
HETATM   19  C   UNL     1     -42.559  58.516 -58.843  1.00  0.00     0.095 A 
HETATM   20  C   UNL     1     -42.378  59.854 -59.127  1.00  0.00     0.107 A 
HETATM   21  O   UNL     1     -43.110  60.191 -60.218  1.00  0.00    -0.215 OA
HETATM   22  N   UNL     1     -43.774  59.081 -60.690  1.00  0.00    -0.131 NA
HETATM   23  C   UNL     1     -43.439  58.071 -59.872  1.00  0.00     0.087 A 
HETATM   24  C   UNL     1     -43.969  56.720 -60.176  1.00  0.00     0.075 C 
BRANCH  20  25
HETATM   25  C   UNL     1     -41.596  60.955 -58.514  1.00  0.00     0.065 C 
HETATM   26  C   UNL     1     -41.027  61.898 -59.562  1.00  0.00     0.012 C 
ENDBRANCH  20  25
ENDBRANCH   1  19
TORSDOF 5
ENDMDL
MODEL 7
REMARK VINA RESULT:      -8.0      4.705      6.108
REMARK  5 active torsions:
REMARK  status: ('A' for Active; 'I' for Inactive)
REMARK    1  A    between atoms: C_2  and  C_3 
REMARK    2  A    between atoms: C_8  and  N_9 
REMARK       I    between atoms: N_9  and  C_10 
REMARK       I    between atoms: C_10  and  N_11 
REMARK    3  A    between atoms: N_11  and  C_12 
REMARK    4  A    between atoms: C_12  and  C_13 
REMARK    5  A    between atoms: C_13  and  C_14 
ROOT
HETATM    1  N   UNL     1     -44.268  58.357 -51.306  1.00  0.00    -0.305 N 
HETATM    2  C   UNL     1     -42.908  58.200 -51.411  1.00  0.00     0.320 C 
HETATM    3  N   UNL     1     -42.491  57.085 -50.712  1.00  0.00    -0.343 N 
HETATM    4  O   UNL     1     -42.137  58.899 -52.053  1.00  0.00    -0.247 OA
HETATM    5  H   UNL     1     -44.780  57.523 -51.056  1.00  0.00     0.171 HD
HETATM    6  H   UNL     1     -43.021  56.875 -49.878  1.00  0.00     0.164 HD
ENDROOT
BRANCH   3   7
HETATM    7  C   UNL     1     -41.082  56.728 -50.699  1.00  0.00     0.129 C 
BRANCH   7   8
HETATM    8  C   UNL     1     -40.834  55.292 -50.223  1.00  0.00     0.058 C 
BRANCH   8   9
HETATM    9  C   UNL     1     -40.627  54.227 -51.278  1.00  0.00    -0.056 A 
HETATM   10  C   UNL     1     -40.196  52.925 -50.985  1.00  0.00     0.019 A 
HETATM   11  C   UNL     1     -40.043  51.955 -51.995  1.00  0.00    -0.025 A 
HETATM   12  C   UNL     1     -40.347  52.294 -53.332  1.00  0.00    -0.026 A 
HETATM   13  C   UNL     1     -39.600  50.655 -51.702  1.00  0.00     0.012 A 
HETATM   14  C   UNL     1     -40.794  53.589 -53.624  1.00  0.00     0.013 A 
HETATM   15  C   UNL     1     -40.201  51.325 -54.338  1.00  0.00     0.012 A 
HETATM   16  C   UNL     1     -40.936  54.540 -52.610  1.00  0.00     0.008 A 
HETATM   17  C   UNL     1     -39.759  50.038 -54.030  1.00  0.00     0.001 A 
HETATM   18  C   UNL     1     -39.459  49.703 -52.713  1.00  0.00     0.001 A 
ENDBRANCH   8   9
ENDBRANCH   7   8
ENDBRANCH   3   7
BRANCH   1  19
HETATM   19  C   UNL     1     -45.011  59.412 -51.815  1.00  0.00     0.095 A 
HETATM   20  C   UNL     1     -45.533  60.414 -51.023  1.00  0.00     0.107 A 
HETATM   21  O   UNL     1     -46.207  61.301 -51.797  1.00  0.00    -0.215 OA
HETATM   22  N   UNL     1     -46.128  60.917 -53.116  1.00  0.00    -0.131 NA
HETATM   23  C   UNL     1     -45.403  59.787 -53.133  1.00  0.00     0.087 A 
HETATM   24  C   UNL     1     -45.103  59.168 -54.446  1.00  0.00     0.075 C 
BRANCH  20  25
HETATM   25  C   UNL     1     -45.523  60.708 -49.570  1.00  0.00     0.065 C 
HETATM   26  C   UNL     1     -44.202  61.315 -49.124  1.00  0.00     0.012 C 
ENDBRANCH  20  25
ENDBRANCH   1  19
TORSDOF 5
ENDMDL
MODEL 8
REMARK VINA RESULT:      -8.0      2.978      4.149
REMARK  5 active torsions:
REMARK  status: ('A' for Active; 'I' for Inactive)
REMARK    1  A    between atoms: C_2  and  C_3 
REMARK    2  A    between atoms: C_8  and  N_9 
REMARK       I    between atoms: N_9  and  C_10 
REMARK       I    between atoms: C_10  and  N_11 
REMARK    3  A    between atoms: N_11  and  C_12 
REMARK    4  A    between atoms: C_12  and  C_13 
REMARK    5  A    between atoms: C_13  and  C_14 
ROOT
HETATM    1  N   UNL     1     -43.257  56.053 -52.819  1.00  0.00    -0.305 N 
HETATM    2  C   UNL     1     -42.027  56.126 -52.211  1.00  0.00     0.320 C 
HETATM    3  N   UNL     1     -42.090  55.631 -50.923  1.00  0.00    -0.343 N 
HETATM    4  O   UNL     1     -40.986  56.528 -52.709  1.00  0.00    -0.247 OA
HETATM    5  H   UNL     1     -43.897  55.385 -52.414  1.00  0.00     0.171 HD
HETATM    6  H   UNL     1     -42.967  55.783 -50.445  1.00  0.00     0.164 HD
ENDROOT
BRANCH   3   7
HETATM    7  C   UNL     1     -40.893  55.608 -50.101  1.00  0.00     0.129 C 
BRANCH   7   8
HETATM    8  C   UNL     1     -40.698  54.277 -49.366  1.00  0.00     0.058 C 
BRANCH   8   9
HETATM    9  C   UNL     1     -40.453  53.040 -50.204  1.00  0.00    -0.056 A 
HETATM   10  C   UNL     1     -40.224  53.078 -51.587  1.00  0.00     0.019 A 
HETATM   11  C   UNL     1     -39.971  51.905 -52.324  1.00  0.00    -0.025 A 
HETATM   12  C   UNL     1     -39.930  50.662 -51.654  1.00  0.00    -0.026 A 
HETATM   13  C   UNL     1     -39.753  51.943 -53.710  1.00  0.00     0.012 A 
HETATM   14  C   UNL     1     -40.143  50.624 -50.270  1.00  0.00     0.013 A 
HETATM   15  C   UNL     1     -39.672  49.492 -52.388  1.00  0.00     0.012 A 
HETATM   16  C   UNL     1     -40.396  51.798 -49.556  1.00  0.00     0.008 A 
HETATM   17  C   UNL     1     -39.458  49.548 -53.766  1.00  0.00     0.001 A 
HETATM   18  C   UNL     1     -39.499  50.772 -54.427  1.00  0.00     0.001 A 
ENDBRANCH   8   9
ENDBRANCH   7   8
ENDBRANCH   3   7
BRANCH   1  19
HETATM   19  C   UNL     1     -43.574  56.532 -54.081  1.00  0.00     0.095 A 
HETATM   20  C   UNL     1     -43.311  55.830 -55.239  1.00  0.00     0.107 A 
HETATM   21  O   UNL     1     -43.731  56.547 -56.311  1.00  0.00    -0.215 OA
HETATM   22  N   UNL     1     -44.296  57.728 -55.885  1.00  0.00    -0.131 NA
HETATM   23  C   UNL     1     -44.212  57.720 -54.546  1.00  0.00     0.087 A 
HETATM   24  C   UNL     1     -44.802  58.856 -53.800  1.00  0.00     0.075 C 
BRANCH  20  25
HETATM   25  C   UNL     1     -42.687  54.521 -55.547  1.00  0.00     0.065 C 
HETATM   26  C   UNL     1     -41.169  54.599 -55.525  1.00  0.00     0.012 C 
ENDBRANCH  20  25
ENDBRANCH   1  19
TORSDOF 5
ENDMDL
MODEL 9
REMARK VINA RESULT:      -7.9      5.760      7.940
REMARK  5 active torsions:
REMARK  status: ('A' for Active; 'I' for Inactive)
REMARK    1  A    between atoms: C_2  and  C_3 
REMARK    2  A    between atoms: C_8  and  N_9 
REMARK       I    between atoms: N_9  and  C_10 
REMARK       I    between atoms: C_10  and  N_11 
REMARK    3  A    between atoms: N_11  and  C_12 
REMARK    4  A    between atoms: C_12  and  C_13 
REMARK    5  A    between atoms: C_13  and  C_14 
ROOT
HETATM    1  N   UNL     1     -44.552  59.981 -50.173  1.00  0.00    -0.305 N 
HETATM    2  C   UNL     1     -44.903  58.714 -50.572  1.00  0.00     0.320 C 
HETATM    3  N   UNL     1     -43.780  57.976 -50.889  1.00  0.00    -0.343 N 
HETATM    4  O   UNL     1     -46.031  58.246 -50.618  1.00  0.00    -0.247 OA
HETATM    5  H   UNL     1     -43.600  60.084 -49.853  1.00  0.00     0.171 HD
HETATM    6  H   UNL     1     -43.016  58.502 -51.288  1.00  0.00     0.164 HD
ENDROOT
BRANCH   3   7
HETATM    7  C   UNL     1     -43.924  56.598 -51.328  1.00  0.00     0.129 C 
BRANCH   7   8
HETATM    8  C   UNL     1     -43.535  56.396 -52.797  1.00  0.00     0.058 C 
BRANCH   8   9
HETATM    9  C   UNL     1     -42.667  55.202 -53.137  1.00  0.00    -0.056 A 
HETATM   10  C   UNL     1     -41.821  54.575 -52.211  1.00  0.00     0.019 A 
HETATM   11  C   UNL     1     -41.053  53.448 -52.562  1.00  0.00    -0.025 A 
HETATM   12  C   UNL     1     -41.146  52.926 -53.871  1.00  0.00    -0.026 A 
HETATM   13  C   UNL     1     -40.197  52.827 -51.638  1.00  0.00     0.012 A 
HETATM   14  C   UNL     1     -42.004  53.542 -54.792  1.00  0.00     0.013 A 
HETATM   15  C   UNL     1     -40.384  51.799 -54.220  1.00  0.00     0.012 A 
HETATM   16  C   UNL     1     -42.756  54.662 -54.428  1.00  0.00     0.008 A 
HETATM   17  C   UNL     1     -39.539  51.194 -53.289  1.00  0.00     0.001 A 
HETATM   18  C   UNL     1     -39.445  51.708 -51.999  1.00  0.00     0.001 A 
ENDBRANCH   8   9
ENDBRANCH   7   8
ENDBRANCH   3   7
BRANCH   1  19
HETATM   19  C   UNL     1     -45.428  61.010 -49.859  1.00  0.00     0.095 A 
HETATM   20  C   UNL     1     -45.562  61.519 -48.584  1.00  0.00     0.107 A 
HETATM   21  O   UNL     1     -46.487  62.511 -48.585  1.00  0.00    -0.215 OA
HETATM   22  N   UNL     1     -46.970  62.692 -49.861  1.00  0.00    -0.131 NA
HETATM   23  C   UNL     1     -46.330  61.798 -50.632  1.00  0.00     0.087 A 
HETATM   24  C   UNL     1     -46.611  61.801 -52.087  1.00  0.00     0.075 C 
BRANCH  20  25
HETATM   25  C   UNL     1     -44.944  61.219 -47.270  1.00  0.00     0.065 C 
HETATM   26  C   UNL     1     -45.910  60.501 -46.341  1.00  0.00     0.012 C 
ENDBRANCH  20  25
ENDBRANCH   1  19
TORSDOF 5
ENDMDL
MODEL 10
REMARK VINA RESULT:      -7.8      3.055      7.338
REMARK  5 active torsions:
REMARK  status: ('A' for Active; 'I' for Inactive)
REMARK    1  A    between atoms: C_2  and  C_3 
REMARK    2  A    between atoms: C_8  and  N_9 
REMARK       I    between atoms: N_9  and  C_10 
REMARK       I    between atoms: C_10  and  N_11 
REMARK    3  A    between atoms: N_11  and  C_12 
REMARK    4  A    between atoms: C_12  and  C_13 
REMARK    5  A    between atoms: C_13  and  C_14 
ROOT
HETATM    1  N   UNL     1     -40.444  53.656 -54.393  1.00  0.00    -0.305 N 
HETATM    2  C   UNL     1     -41.670  54.078 -54.848  1.00  0.00     0.320 C 
HETATM    3  N   UNL     1     -41.526  54.873 -55.967  1.00  0.00    -0.343 N 
HETATM    4  O   UNL     1     -42.763  53.787 -54.385  1.00  0.00    -0.247 OA
HETATM    5  H   UNL     1     -39.700  53.682 -55.075  1.00  0.00     0.171 HD
HETATM    6  H   UNL     1     -40.689  55.438 -55.991  1.00  0.00     0.164 HD
ENDROOT
BRANCH   3   7
HETATM    7  C   UNL     1     -42.704  55.422 -56.617  1.00  0.00     0.129 C 
BRANCH   7   8
HETATM    8  C   UNL     1     -42.985  56.874 -56.217  1.00  0.00     0.058 C 
BRANCH   8   9
HETATM    9  C   UNL     1     -42.697  57.279 -54.787  1.00  0.00    -0.056 A 
HETATM   10  C   UNL     1     -41.475  57.828 -54.372  1.00  0.00     0.019 A 
HETATM   11  C   UNL     1     -41.259  58.218 -53.036  1.00  0.00    -0.025 A 
HETATM   12  C   UNL     1     -42.300  58.069 -52.094  1.00  0.00    -0.026 A 
HETATM   13  C   UNL     1     -40.031  58.758 -52.620  1.00  0.00     0.012 A 
HETATM   14  C   UNL     1     -43.527  57.536 -52.510  1.00  0.00     0.013 A 
HETATM   15  C   UNL     1     -42.087  58.464 -50.763  1.00  0.00     0.012 A 
HETATM   16  C   UNL     1     -43.722  57.150 -53.839  1.00  0.00     0.008 A 
HETATM   17  C   UNL     1     -40.860  58.997 -50.365  1.00  0.00     0.001 A 
HETATM   18  C   UNL     1     -39.833  59.144 -51.293  1.00  0.00     0.001 A 
ENDBRANCH   8   9
ENDBRANCH   7   8
ENDBRANCH   3   7
BRANCH   1  19
HETATM   19  C   UNL     1     -40.211  52.911 -53.247  1.00  0.00     0.095 A 
HETATM   20  C   UNL     1     -40.389  53.414 -51.975  1.00  0.00     0.107 A 
HETATM   21  O   UNL     1     -40.085  52.459 -51.060  1.00  0.00    -0.215 OA
HETATM   22  N   UNL     1     -39.719  51.301 -51.707  1.00  0.00    -0.131 NA
HETATM   23  C   UNL     1     -39.801  51.564 -53.020  1.00  0.00     0.087 A 
HETATM   24  C   UNL     1     -39.515  50.466 -53.974  1.00  0.00     0.075 C 
BRANCH  20  25
HETATM   25  C   UNL     1     -40.814  54.722 -51.420  1.00  0.00     0.065 C 
HETATM   26  C   UNL     1     -40.361  54.900 -49.980  1.00  0.00     0.012 C 
ENDBRANCH  20  25
ENDBRANCH   1  19
TORSDOF 5
ENDMDL
