MODEL 1
REMARK VINA RESULT:      -8.6      0.000      0.000
REMARK  7 active torsions:
REMARK  status: ('A' for Active; 'I' for Inactive)
REMARK    1  A    between atoms: C_2  and  O_3 
REMARK    2  A    between atoms: O_3  and  C_4 
REMARK    3  A    between atoms: C_7  and  N_8 
REMARK       I    between atoms: N_8  and  C_9 
REMARK    4  A    between atoms: C_9  and  C_10 
REMARK    5  A    between atoms: C_10  and  S_11 
REMARK    6  A    between atoms: S_11  and  C_12 
REMARK    7  A    between atoms: N_13  and  C_14 
ROOT
HETATM    1  C   UNL     1     -41.098  54.974 -52.974  1.00  0.00     0.178 A 
HETATM    2  N   UNL     1     -41.718  55.308 -51.741  1.00  0.00    -0.255 N 
HETATM    3  C   UNL     1     -41.594  54.476 -50.606  1.00  0.00     0.270 A 
HETATM    4  O   UNL     1     -42.060  54.695 -49.493  1.00  0.00    -0.266 OA
HETATM    5  C   UNL     1     -40.863  53.272 -50.875  1.00  0.00     0.099 A 
HETATM    6  C   UNL     1     -40.360  53.059 -52.126  1.00  0.00     0.164 A 
HETATM    7  N   UNL     1     -39.719  51.857 -52.075  1.00  0.00    -0.260 N 
HETATM    8  H   UNL     1     -39.214  51.392 -52.821  1.00  0.00     0.191 HD
HETATM    9  N   UNL     1     -39.801  51.265 -50.863  1.00  0.00    -0.184 NA
HETATM   10  C   UNL     1     -40.500  52.142 -50.130  1.00  0.00     0.159 A 
HETATM   11  N   UNL     1     -40.446  53.865 -53.201  1.00  0.00    -0.204 NA
ENDROOT
BRANCH   1  12
HETATM   12  S   UNL     1     -41.214  56.106 -54.322  1.00  0.00    -0.082 SA
BRANCH  12  13
HETATM   13  C   UNL     1     -41.335  54.981 -55.738  1.00  0.00     0.185 C 
BRANCH  13  14
HETATM   14  C   UNL     1     -42.787  54.754 -56.101  1.00  0.00     0.231 C 
HETATM   15  N   UNL     1     -43.444  55.539 -57.005  1.00  0.00    -0.327 N 
HETATM   16  H   UNL     1     -44.444  55.365 -56.964  1.00  0.00     0.169 HD
HETATM   17  O   UNL     1     -43.446  53.877 -55.526  1.00  0.00    -0.272 OA
BRANCH  15  18
HETATM   18  C   UNL     1     -43.030  56.471 -57.974  1.00  0.00     0.034 A 
HETATM   19  C   UNL     1     -42.740  57.810 -57.729  1.00  0.00     0.032 A 
HETATM   20  C   UNL     1     -42.304  58.646 -58.764  1.00  0.00     0.039 A 
HETATM   21  C   UNL     1     -42.121  58.155 -60.056  1.00  0.00     0.068 A 
HETATM   22  C   UNL     1     -42.392  56.814 -60.310  1.00  0.00     0.039 A 
HETATM   23  C   UNL     1     -42.833  55.979 -59.273  1.00  0.00     0.032 A 
BRANCH  21  24
HETATM   24  O   UNL     1     -41.679  59.076 -60.962  1.00  0.00    -0.352 OA
BRANCH  24  25
HETATM   25  C   UNL     1     -42.448  60.270 -61.099  1.00  0.00     0.171 C 
HETATM   26  C   UNL     1     -41.515  61.375 -61.562  1.00  0.00     0.034 C 
ENDBRANCH  24  25
ENDBRANCH  21  24
ENDBRANCH  15  18
ENDBRANCH  13  14
ENDBRANCH  12  13
ENDBRANCH   1  12
BRANCH   2  27
HETATM   27  C   UNL     1     -42.492  56.501 -51.562  1.00  0.00     0.056 A 
HETATM   28  C   UNL     1     -41.902  57.738 -51.170  1.00  0.00     0.002 A 
HETATM   29  C   UNL     1     -42.751  58.859 -50.988  1.00  0.00    -0.024 A 
HETATM   30  C   UNL     1     -40.511  57.937 -50.976  1.00  0.00     0.014 A 
HETATM   31  C   UNL     1     -42.216  60.089 -50.571  1.00  0.00     0.012 A 
HETATM   32  C   UNL     1     -44.127  58.745 -51.239  1.00  0.00     0.012 A 
HETATM   33  C   UNL     1     -40.848  60.240 -50.349  1.00  0.00     0.001 A 
HETATM   34  C   UNL     1     -39.994  59.166 -50.561  1.00  0.00     0.001 A 
HETATM   35  C   UNL     1     -44.682  57.544 -51.673  1.00  0.00     0.003 A 
HETATM   36  C   UNL     1     -43.869  56.428 -51.833  1.00  0.00     0.031 A 
ENDBRANCH   2  27
TORSDOF 7
ENDMDL
MODEL 2
REMARK VINA RESULT:      -8.6      3.332      9.246
REMARK  7 active torsions:
REMARK  status: ('A' for Active; 'I' for Inactive)
REMARK    1  A    between atoms: C_2  and  O_3 
REMARK    2  A    between atoms: O_3  and  C_4 
REMARK    3  A    between atoms: C_7  and  N_8 
REMARK       I    between atoms: N_8  and  C_9 
REMARK    4  A    between atoms: C_9  and  C_10 
REMARK    5  A    between atoms: C_10  and  S_11 
REMARK    6  A    between atoms: S_11  and  C_12 
REMARK    7  A    between atoms: N_13  and  C_14 
ROOT
HETATM    1  C   UNL     1     -43.412  58.851 -57.209  1.00  0.00     0.178 A 
HETATM    2  N   UNL     1     -43.275  58.465 -58.568  1.00  0.00    -0.255 N 
HETATM    3  C   UNL     1     -42.480  59.211 -59.467  1.00  0.00     0.270 A 
HETATM    4  O   UNL     1     -42.271  58.940 -60.646  1.00  0.00    -0.266 OA
HETATM    5  C   UNL     1     -41.923  60.391 -58.872  1.00  0.00     0.099 A 
HETATM    6  C   UNL     1     -42.178  60.663 -57.559  1.00  0.00     0.164 A 
HETATM    7  N   UNL     1     -41.521  61.824 -57.279  1.00  0.00    -0.260 N 
HETATM    8  H   UNL     1     -41.475  62.313 -56.393  1.00  0.00     0.191 HD
HETATM    9  N   UNL     1     -40.873  62.336 -58.350  1.00  0.00    -0.184 NA
HETATM   10  C   UNL     1     -41.121  61.447 -59.322  1.00  0.00     0.159 A 
HETATM   11  N   UNL     1     -42.907  59.937 -56.690  1.00  0.00    -0.204 NA
ENDROOT
BRANCH   1  12
HETATM   12  S   UNL     1     -44.342  57.820 -56.119  1.00  0.00    -0.082 SA
BRANCH  12  13
HETATM   13  C   UNL     1     -43.419  57.996 -54.569  1.00  0.00     0.185 C 
BRANCH  13  14
HETATM   14  C   UNL     1     -44.166  57.324 -53.437  1.00  0.00     0.231 C 
HETATM   15  N   UNL     1     -43.965  56.014 -53.107  1.00  0.00    -0.327 N 
HETATM   16  H   UNL     1     -44.689  55.694 -52.472  1.00  0.00     0.169 HD
HETATM   17  O   UNL     1     -45.043  57.938 -52.815  1.00  0.00    -0.272 OA
BRANCH  15  18
HETATM   18  C   UNL     1     -42.972  55.067 -53.423  1.00  0.00     0.034 A 
HETATM   19  C   UNL     1     -42.894  54.354 -54.615  1.00  0.00     0.032 A 
HETATM   20  C   UNL     1     -41.842  53.456 -54.840  1.00  0.00     0.039 A 
HETATM   21  C   UNL     1     -40.837  53.274 -53.892  1.00  0.00     0.068 A 
HETATM   22  C   UNL     1     -40.897  53.994 -52.703  1.00  0.00     0.039 A 
HETATM   23  C   UNL     1     -41.952  54.890 -52.478  1.00  0.00     0.032 A 
BRANCH  21  24
HETATM   24  O   UNL     1     -39.868  52.380 -54.248  1.00  0.00    -0.352 OA
BRANCH  24  25
HETATM   25  C   UNL     1     -39.744  51.206 -53.446  1.00  0.00     0.171 C 
HETATM   26  C   UNL     1     -39.922  50.001 -54.352  1.00  0.00     0.034 C 
ENDBRANCH  24  25
ENDBRANCH  21  24
ENDBRANCH  15  18
ENDBRANCH  13  14
ENDBRANCH  12  13
ENDBRANCH   1  12
BRANCH   2  27
HETATM   27  C   UNL     1     -43.915  57.304 -59.112  1.00  0.00     0.056 A 
HETATM   28  C   UNL     1     -45.167  57.375 -59.790  1.00  0.00     0.002 A 
HETATM   29  C   UNL     1     -45.740  56.169 -60.270  1.00  0.00    -0.024 A 
HETATM   30  C   UNL     1     -45.872  58.578 -60.049  1.00  0.00     0.014 A 
HETATM   31  C   UNL     1     -46.987  56.189 -60.916  1.00  0.00     0.012 A 
HETATM   32  C   UNL     1     -45.054  54.956 -60.113  1.00  0.00     0.012 A 
HETATM   33  C   UNL     1     -47.674  57.385 -61.117  1.00  0.00     0.001 A 
HETATM   34  C   UNL     1     -47.111  58.581 -60.692  1.00  0.00     0.001 A 
HETATM   35  C   UNL     1     -43.807  54.909 -59.495  1.00  0.00     0.003 A 
HETATM   36  C   UNL     1     -43.241  56.076 -58.996  1.00  0.00     0.031 A 
ENDBRANCH   2  27
TORSDOF 7
ENDMDL
MODEL 3
REMARK VINA RESULT:      -8.5      3.252      7.048
REMARK  7 active torsions:
REMARK  status: ('A' for Active; 'I' for Inactive)
REMARK    1  A    between atoms: C_2  and  O_3 
REMARK    2  A    between atoms: O_3  and  C_4 
REMARK    3  A    between atoms: C_7  and  N_8 
REMARK       I    between atoms: N_8  and  C_9 
REMARK    4  A    between atoms: C_9  and  C_10 
REMARK    5  A    between atoms: C_10  and  S_11 
REMARK    6  A    between atoms: S_11  and  C_12 
REMARK    7  A    between atoms: N_13  and  C_14 
ROOT
HETATM    1  C   UNL     1     -43.955  59.525 -53.725  1.00  0.00     0.178 A 
HETATM    2  N   UNL     1     -43.751  59.510 -52.320  1.00  0.00    -0.255 N 
HETATM    3  C   UNL     1     -44.681  60.102 -51.435  1.00  0.00     0.270 A 
HETATM    4  O   UNL     1     -44.612  60.109 -50.211  1.00  0.00    -0.266 OA
HETATM    5  C   UNL     1     -45.762  60.753 -52.117  1.00  0.00     0.099 A 
HETATM    6  C   UNL     1     -45.806  60.726 -53.481  1.00  0.00     0.164 A 
HETATM    7  N   UNL     1     -46.932  61.409 -53.835  1.00  0.00    -0.260 N 
HETATM    8  H   UNL     1     -47.290  61.573 -54.769  1.00  0.00     0.191 HD
HETATM    9  N   UNL     1     -47.608  61.900 -52.773  1.00  0.00    -0.184 NA
HETATM   10  C   UNL     1     -46.886  61.489 -51.722  1.00  0.00     0.159 A 
HETATM   11  N   UNL     1     -44.941  60.135 -54.326  1.00  0.00    -0.204 NA
ENDROOT
BRANCH   1  12
HETATM   12  S   UNL     1     -42.802  58.684 -54.763  1.00  0.00    -0.082 SA
BRANCH  12  13
HETATM   13  C   UNL     1     -43.852  57.423 -55.532  1.00  0.00     0.185 C 
BRANCH  13  14
HETATM   14  C   UNL     1     -43.169  56.850 -56.755  1.00  0.00     0.231 C 
HETATM   15  N   UNL     1     -42.196  55.895 -56.667  1.00  0.00    -0.327 N 
HETATM   16  H   UNL     1     -41.724  55.788 -57.559  1.00  0.00     0.169 HD
HETATM   17  O   UNL     1     -43.434  57.288 -57.883  1.00  0.00    -0.272 OA
BRANCH  15  18
HETATM   18  C   UNL     1     -41.761  55.034 -55.642  1.00  0.00     0.034 A 
HETATM   19  C   UNL     1     -40.548  55.138 -54.967  1.00  0.00     0.032 A 
HETATM   20  C   UNL     1     -40.227  54.243 -53.938  1.00  0.00     0.039 A 
HETATM   21  C   UNL     1     -41.120  53.248 -53.546  1.00  0.00     0.068 A 
HETATM   22  C   UNL     1     -42.342  53.145 -54.203  1.00  0.00     0.039 A 
HETATM   23  C   UNL     1     -42.661  54.039 -55.236  1.00  0.00     0.032 A 
BRANCH  21  24
HETATM   24  O   UNL     1     -40.683  52.457 -52.522  1.00  0.00    -0.352 OA
BRANCH  24  25
HETATM   25  C   UNL     1     -39.484  51.715 -52.743  1.00  0.00     0.171 C 
HETATM   26  C   UNL     1     -39.837  50.498 -53.578  1.00  0.00     0.034 C 
ENDBRANCH  24  25
ENDBRANCH  21  24
ENDBRANCH  15  18
ENDBRANCH  13  14
ENDBRANCH  12  13
ENDBRANCH   1  12
BRANCH   2  27
HETATM   27  C   UNL     1     -42.609  58.895 -51.710  1.00  0.00     0.056 A 
HETATM   28  C   UNL     1     -42.591  57.515 -51.351  1.00  0.00     0.002 A 
HETATM   29  C   UNL     1     -41.428  57.000 -50.724  1.00  0.00    -0.024 A 
HETATM   30  C   UNL     1     -43.649  56.607 -51.606  1.00  0.00     0.014 A 
HETATM   31  C   UNL     1     -41.379  55.655 -50.325  1.00  0.00     0.012 A 
HETATM   32  C   UNL     1     -40.317  57.832 -50.514  1.00  0.00     0.012 A 
HETATM   33  C   UNL     1     -42.454  54.797 -50.553  1.00  0.00     0.001 A 
HETATM   34  C   UNL     1     -43.586  55.271 -51.203  1.00  0.00     0.001 A 
HETATM   35  C   UNL     1     -40.330  59.164 -50.917  1.00  0.00     0.003 A 
HETATM   36  C   UNL     1     -41.470  59.694 -51.511  1.00  0.00     0.031 A 
ENDBRANCH   2  27
TORSDOF 7
ENDMDL
MODEL 4
REMARK VINA RESULT:      -8.5      3.549      9.349
REMARK  7 active torsions:
REMARK  status: ('A' for Active; 'I' for Inactive)
REMARK    1  A    between atoms: C_2  and  O_3 
REMARK    2  A    between atoms: O_3  and  C_4 
REMARK    3  A    between atoms: C_7  and  N_8 
REMARK       I    between atoms: N_8  and  C_9 
REMARK    4  A    between atoms: C_9  and  C_10 
REMARK    5  A    between atoms: C_10  and  S_11 
REMARK    6  A    between atoms: S_11  and  C_12 
REMARK    7  A    between atoms: N_13  and  C_14 
ROOT
HETATM    1  C   UNL     1     -42.836  60.163 -57.516  1.00  0.00     0.178 A 
HETATM    2  N   UNL     1     -43.358  59.960 -58.820  1.00  0.00    -0.255 N 
HETATM    3  C   UNL     1     -42.752  60.545 -59.954  1.00  0.00     0.270 A 
HETATM    4  O   UNL     1     -43.106  60.400 -61.120  1.00  0.00    -0.266 OA
HETATM    5  C   UNL     1     -41.644  61.391 -59.620  1.00  0.00     0.099 A 
HETATM    6  C   UNL     1     -41.279  61.531 -58.312  1.00  0.00     0.164 A 
HETATM    7  N   UNL     1     -40.208  62.374 -58.307  1.00  0.00    -0.260 N 
HETATM    8  H   UNL     1     -39.668  62.687 -57.508  1.00  0.00     0.191 HD
HETATM    9  N   UNL     1     -39.873  62.811 -59.542  1.00  0.00    -0.184 NA
HETATM   10  C   UNL     1     -40.757  62.199 -60.343  1.00  0.00     0.159 A 
HETATM   11  N   UNL     1     -41.831  60.948 -57.231  1.00  0.00    -0.204 NA
ENDROOT
BRANCH   1  12
HETATM   12  S   UNL     1     -43.585  59.324 -56.156  1.00  0.00    -0.082 SA
BRANCH  12  13
HETATM   13  C   UNL     1     -42.428  57.955 -55.885  1.00  0.00     0.185 C 
BRANCH  13  14
HETATM   14  C   UNL     1     -41.581  58.222 -54.659  1.00  0.00     0.231 C 
HETATM   15  N   UNL     1     -41.152  57.220 -53.837  1.00  0.00    -0.327 N 
HETATM   16  H   UNL     1     -40.779  57.605 -52.975  1.00  0.00     0.169 HD
HETATM   17  O   UNL     1     -41.308  59.384 -54.329  1.00  0.00    -0.272 OA
BRANCH  15  18
HETATM   18  C   UNL     1     -41.084  55.819 -53.956  1.00  0.00     0.034 A 
HETATM   19  C   UNL     1     -40.243  55.127 -54.823  1.00  0.00     0.032 A 
HETATM   20  C   UNL     1     -40.234  53.726 -54.838  1.00  0.00     0.039 A 
HETATM   21  C   UNL     1     -41.042  52.992 -53.971  1.00  0.00     0.068 A 
HETATM   22  C   UNL     1     -41.874  53.674 -53.090  1.00  0.00     0.039 A 
HETATM   23  C   UNL     1     -41.886  55.076 -53.079  1.00  0.00     0.032 A 
BRANCH  21  24
HETATM   24  O   UNL     1     -40.921  51.637 -54.086  1.00  0.00    -0.352 OA
BRANCH  24  25
HETATM   25  C   UNL     1     -39.657  51.068 -53.744  1.00  0.00     0.171 C 
HETATM   26  C   UNL     1     -39.530  49.743 -54.474  1.00  0.00     0.034 C 
ENDBRANCH  24  25
ENDBRANCH  21  24
ENDBRANCH  15  18
ENDBRANCH  13  14
ENDBRANCH  12  13
ENDBRANCH   1  12
BRANCH   2  27
HETATM   27  C   UNL     1     -44.514  59.150 -59.074  1.00  0.00     0.056 A 
HETATM   28  C   UNL     1     -44.415  57.762 -59.384  1.00  0.00     0.002 A 
HETATM   29  C   UNL     1     -45.611  57.048 -59.650  1.00  0.00    -0.024 A 
HETATM   30  C   UNL     1     -43.200  57.032 -59.415  1.00  0.00     0.014 A 
HETATM   31  C   UNL     1     -45.558  55.686 -59.990  1.00  0.00     0.012 A 
HETATM   32  C   UNL     1     -46.852  57.697 -59.558  1.00  0.00     0.012 A 
HETATM   33  C   UNL     1     -44.343  55.008 -60.054  1.00  0.00     0.001 A 
HETATM   34  C   UNL     1     -43.164  55.678 -59.757  1.00  0.00     0.001 A 
HETATM   35  C   UNL     1     -46.936  59.041 -59.203  1.00  0.00     0.003 A 
HETATM   36  C   UNL     1     -45.773  59.764 -58.963  1.00  0.00     0.031 A 
ENDBRANCH   2  27
TORSDOF 7
ENDMDL
MODEL 5
REMARK VINA RESULT:      -8.5      0.784      1.991
REMARK  7 active torsions:
REMARK  status: ('A' for Active; 'I' for Inactive)
REMARK    1  A    between atoms: C_2  and  O_3 
REMARK    2  A    between atoms: O_3  and  C_4 
REMARK    3  A    between atoms: C_7  and  N_8 
REMARK       I    between atoms: N_8  and  C_9 
REMARK    4  A    between atoms: C_9  and  C_10 
REMARK    5  A    between atoms: C_10  and  S_11 
REMARK    6  A    between atoms: S_11  and  C_12 
REMARK    7  A    between atoms: N_13  and  C_14 
ROOT
HETATM    1  C   UNL     1     -40.996  55.508 -52.584  1.00  0.00     0.178 A 
HETATM    2  N   UNL     1     -41.151  56.104 -51.305  1.00  0.00    -0.255 N 
HETATM    3  C   UNL     1     -40.978  55.354 -50.119  1.00  0.00     0.270 A 
HETATM    4  O   UNL     1     -41.055  55.785 -48.973  1.00  0.00    -0.266 OA
HETATM    5  C   UNL     1     -40.717  53.967 -50.370  1.00  0.00     0.099 A 
HETATM    6  C   UNL     1     -40.640  53.522 -51.659  1.00  0.00     0.164 A 
HETATM    7  N   UNL     1     -40.378  52.186 -51.582  1.00  0.00    -0.260 N 
HETATM    8  H   UNL     1     -40.239  51.536 -52.347  1.00  0.00     0.191 HD
HETATM    9  N   UNL     1     -40.306  51.734 -50.309  1.00  0.00    -0.184 NA
HETATM   10  C   UNL     1     -40.510  52.835 -49.572  1.00  0.00     0.159 A 
HETATM   11  N   UNL     1     -40.770  54.238 -52.791  1.00  0.00    -0.204 NA
ENDROOT
BRANCH   1  12
HETATM   12  S   UNL     1     -41.132  56.524 -54.021  1.00  0.00    -0.082 SA
BRANCH  12  13
HETATM   13  C   UNL     1     -41.406  55.290 -55.320  1.00  0.00     0.185 C 
BRANCH  13  14
HETATM   14  C   UNL     1     -42.888  55.122 -55.575  1.00  0.00     0.231 C 
HETATM   15  N   UNL     1     -43.549  55.837 -56.533  1.00  0.00    -0.327 N 
HETATM   16  H   UNL     1     -44.553  55.738 -56.418  1.00  0.00     0.169 HD
HETATM   17  O   UNL     1     -43.564  54.366 -54.863  1.00  0.00    -0.272 OA
BRANCH  15  18
HETATM   18  C   UNL     1     -43.137  56.616 -57.630  1.00  0.00     0.034 A 
HETATM   19  C   UNL     1     -42.883  57.984 -57.593  1.00  0.00     0.032 A 
HETATM   20  C   UNL     1     -42.445  58.659 -58.740  1.00  0.00     0.039 A 
HETATM   21  C   UNL     1     -42.227  57.977 -59.936  1.00  0.00     0.068 A 
HETATM   22  C   UNL     1     -42.463  56.607 -59.980  1.00  0.00     0.039 A 
HETATM   23  C   UNL     1     -42.905  55.933 -58.832  1.00  0.00     0.032 A 
BRANCH  21  24
HETATM   24  O   UNL     1     -41.789  58.756 -60.968  1.00  0.00    -0.352 OA
BRANCH  24  25
HETATM   25  C   UNL     1     -41.857  60.170 -60.786  1.00  0.00     0.171 C 
HETATM   26  C   UNL     1     -42.522  60.766 -62.014  1.00  0.00     0.034 C 
ENDBRANCH  24  25
ENDBRANCH  21  24
ENDBRANCH  15  18
ENDBRANCH  13  14
ENDBRANCH  12  13
ENDBRANCH   1  12
BRANCH   2  27
HETATM   27  C   UNL     1     -41.479  57.488 -51.130  1.00  0.00     0.056 A 
HETATM   28  C   UNL     1     -42.825  57.958 -51.146  1.00  0.00     0.002 A 
HETATM   29  C   UNL     1     -43.052  59.350 -50.994  1.00  0.00    -0.024 A 
HETATM   30  C   UNL     1     -43.964  57.123 -51.274  1.00  0.00     0.014 A 
HETATM   31  C   UNL     1     -44.360  59.859 -51.036  1.00  0.00     0.012 A 
HETATM   32  C   UNL     1     -41.970  60.218 -50.786  1.00  0.00     0.012 A 
HETATM   33  C   UNL     1     -45.456  59.015 -51.205  1.00  0.00     0.001 A 
HETATM   34  C   UNL     1     -45.259  57.645 -51.315  1.00  0.00     0.001 A 
HETATM   35  C   UNL     1     -40.665  59.738 -50.720  1.00  0.00     0.003 A 
HETATM   36  C   UNL     1     -40.420  58.381 -50.892  1.00  0.00     0.031 A 
ENDBRANCH   2  27
TORSDOF 7
ENDMDL
MODEL 6
REMARK VINA RESULT:      -8.5      3.324      7.381
REMARK  7 active torsions:
REMARK  status: ('A' for Active; 'I' for Inactive)
REMARK    1  A    between atoms: C_2  and  O_3 
REMARK    2  A    between atoms: O_3  and  C_4 
REMARK    3  A    between atoms: C_7  and  N_8 
REMARK       I    between atoms: N_8  and  C_9 
REMARK    4  A    between atoms: C_9  and  C_10 
REMARK    5  A    between atoms: C_10  and  S_11 
REMARK    6  A    between atoms: S_11  and  C_12 
REMARK    7  A    between atoms: N_13  and  C_14 
ROOT
HETATM    1  C   UNL     1     -42.755  59.375 -52.601  1.00  0.00     0.178 A 
HETATM    2  N   UNL     1     -41.753  58.935 -53.505  1.00  0.00    -0.255 N 
HETATM    3  C   UNL     1     -40.408  58.788 -53.098  1.00  0.00     0.270 A 
HETATM    4  O   UNL     1     -39.481  58.382 -53.791  1.00  0.00    -0.266 OA
HETATM    5  C   UNL     1     -40.189  59.197 -51.740  1.00  0.00     0.099 A 
HETATM    6  C   UNL     1     -41.243  59.646 -50.998  1.00  0.00     0.164 A 
HETATM    7  N   UNL     1     -40.737  59.948 -49.769  1.00  0.00    -0.260 N 
HETATM    8  H   UNL     1     -41.240  60.292 -48.959  1.00  0.00     0.191 HD
HETATM    9  N   UNL     1     -39.404  59.744 -49.681  1.00  0.00    -0.184 NA
HETATM   10  C   UNL     1     -39.076  59.278 -50.895  1.00  0.00     0.159 A 
HETATM   11  N   UNL     1     -42.532  59.755 -51.372  1.00  0.00    -0.204 NA
ENDROOT
BRANCH   1  12
HETATM   12  S   UNL     1     -44.430  59.444 -53.152  1.00  0.00    -0.082 SA
BRANCH  12  13
HETATM   13  C   UNL     1     -45.020  57.780 -52.744  1.00  0.00     0.185 C 
BRANCH  13  14
HETATM   14  C   UNL     1     -45.176  57.634 -51.246  1.00  0.00     0.231 C 
HETATM   15  N   UNL     1     -44.544  56.650 -50.539  1.00  0.00    -0.327 N 
HETATM   16  H   UNL     1     -44.924  56.590 -49.600  1.00  0.00     0.169 HD
HETATM   17  O   UNL     1     -45.946  58.376 -50.621  1.00  0.00    -0.272 OA
BRANCH  15  18
HETATM   18  C   UNL     1     -43.485  55.768 -50.824  1.00  0.00     0.034 A 
HETATM   19  C   UNL     1     -43.629  54.463 -51.287  1.00  0.00     0.032 A 
HETATM   20  C   UNL     1     -42.503  53.679 -51.569  1.00  0.00     0.039 A 
HETATM   21  C   UNL     1     -41.215  54.191 -51.422  1.00  0.00     0.068 A 
HETATM   22  C   UNL     1     -41.060  55.499 -50.975  1.00  0.00     0.039 A 
HETATM   23  C   UNL     1     -42.187  56.282 -50.688  1.00  0.00     0.032 A 
BRANCH  21  24
HETATM   24  O   UNL     1     -40.213  53.322 -51.746  1.00  0.00    -0.352 OA
BRANCH  24  25
HETATM   25  C   UNL     1     -40.320  52.649 -52.999  1.00  0.00     0.171 C 
HETATM   26  C   UNL     1     -39.486  51.383 -52.921  1.00  0.00     0.034 C 
ENDBRANCH  24  25
ENDBRANCH  21  24
ENDBRANCH  15  18
ENDBRANCH  13  14
ENDBRANCH  12  13
ENDBRANCH   1  12
BRANCH   2  27
HETATM   27  C   UNL     1     -42.033  58.605 -54.872  1.00  0.00     0.056 A 
HETATM   28  C   UNL     1     -42.338  57.274 -55.284  1.00  0.00     0.002 A 
HETATM   29  C   UNL     1     -42.572  57.036 -56.663  1.00  0.00    -0.024 A 
HETATM   30  C   UNL     1     -42.455  56.169 -54.404  1.00  0.00     0.014 A 
HETATM   31  C   UNL     1     -42.845  55.736 -57.117  1.00  0.00     0.012 A 
HETATM   32  C   UNL     1     -42.548  58.103 -57.573  1.00  0.00     0.012 A 
HETATM   33  C   UNL     1     -42.911  54.663 -56.230  1.00  0.00     0.001 A 
HETATM   34  C   UNL     1     -42.725  54.881 -54.871  1.00  0.00     0.001 A 
HETATM   35  C   UNL     1     -42.300  59.406 -57.148  1.00  0.00     0.003 A 
HETATM   36  C   UNL     1     -42.044  59.656 -55.805  1.00  0.00     0.031 A 
ENDBRANCH   2  27
TORSDOF 7
ENDMDL
MODEL 7
REMARK VINA RESULT:      -8.4      2.995      5.334
REMARK  7 active torsions:
REMARK  status: ('A' for Active; 'I' for Inactive)
REMARK    1  A    between atoms: C_2  and  O_3 
REMARK    2  A    between atoms: O_3  and  C_4 
REMARK    3  A    between atoms: C_7  and  N_8 
REMARK       I    between atoms: N_8  and  C_9 
REMARK    4  A    between atoms: C_9  and  C_10 
REMARK    5  A    between atoms: C_10  and  S_11 
REMARK    6  A    between atoms: S_11  and  C_12 
REMARK    7  A    between atoms: N_13  and  C_14 
ROOT
HETATM    1  C   UNL     1     -42.600  58.636 -52.465  1.00  0.00     0.178 A 
HETATM    2  N   UNL     1     -43.233  57.450 -52.010  1.00  0.00    -0.255 N 
HETATM    3  C   UNL     1     -44.399  57.497 -51.212  1.00  0.00     0.270 A 
HETATM    4  O   UNL     1     -45.036  56.533 -50.801  1.00  0.00    -0.266 OA
HETATM    5  C   UNL     1     -44.790  58.836 -50.877  1.00  0.00     0.099 A 
HETATM    6  C   UNL     1     -44.057  59.886 -51.350  1.00  0.00     0.164 A 
HETATM    7  N   UNL     1     -44.666  61.012 -50.881  1.00  0.00    -0.260 N 
HETATM    8  H   UNL     1     -44.402  61.976 -51.050  1.00  0.00     0.191 HD
HETATM    9  N   UNL     1     -45.742  60.748 -50.106  1.00  0.00    -0.184 NA
HETATM   10  C   UNL     1     -45.814  59.410 -50.113  1.00  0.00     0.159 A 
HETATM   11  N   UNL     1     -42.966  59.846 -52.138  1.00  0.00    -0.204 NA
ENDROOT
BRANCH   1  12
HETATM   12  S   UNL     1     -41.205  58.501 -53.537  1.00  0.00    -0.082 SA
BRANCH  12  13
HETATM   13  C   UNL     1     -41.999  58.223 -55.142  1.00  0.00     0.185 C 
BRANCH  13  14
HETATM   14  C   UNL     1     -42.096  59.525 -55.908  1.00  0.00     0.231 C 
HETATM   15  N   UNL     1     -42.363  59.565 -57.247  1.00  0.00    -0.327 N 
HETATM   16  H   UNL     1     -42.188  60.494 -57.615  1.00  0.00     0.169 HD
HETATM   17  O   UNL     1     -41.867  60.602 -55.343  1.00  0.00    -0.272 OA
BRANCH  15  18
HETATM   18  C   UNL     1     -42.852  58.627 -58.175  1.00  0.00     0.034 A 
HETATM   19  C   UNL     1     -44.194  58.306 -58.362  1.00  0.00     0.032 A 
HETATM   20  C   UNL     1     -44.575  57.377 -59.339  1.00  0.00     0.039 A 
HETATM   21  C   UNL     1     -43.629  56.773 -60.164  1.00  0.00     0.068 A 
HETATM   22  C   UNL     1     -42.287  57.097 -59.997  1.00  0.00     0.039 A 
HETATM   23  C   UNL     1     -41.906  58.024 -59.016  1.00  0.00     0.032 A 
BRANCH  21  24
HETATM   24  O   UNL     1     -44.142  55.899 -61.080  1.00  0.00    -0.352 OA
BRANCH  24  25
HETATM   25  C   UNL     1     -45.260  55.113 -60.669  1.00  0.00     0.171 C 
HETATM   26  C   UNL     1     -44.753  54.043 -59.719  1.00  0.00     0.034 C 
ENDBRANCH  24  25
ENDBRANCH  21  24
ENDBRANCH  15  18
ENDBRANCH  13  14
ENDBRANCH  12  13
ENDBRANCH   1  12
BRANCH   2  27
HETATM   27  C   UNL     1     -42.747  56.140 -52.330  1.00  0.00     0.056 A 
HETATM   28  C   UNL     1     -41.802  55.458 -51.508  1.00  0.00     0.002 A 
HETATM   29  C   UNL     1     -41.355  54.177 -51.921  1.00  0.00    -0.024 A 
HETATM   30  C   UNL     1     -41.297  55.960 -50.282  1.00  0.00     0.014 A 
HETATM   31  C   UNL     1     -40.402  53.483 -51.158  1.00  0.00     0.012 A 
HETATM   32  C   UNL     1     -41.877  53.593 -53.086  1.00  0.00     0.012 A 
HETATM   33  C   UNL     1     -39.894  54.024 -49.978  1.00  0.00     0.001 A 
HETATM   34  C   UNL     1     -40.349  55.258 -49.535  1.00  0.00     0.001 A 
HETATM   35  C   UNL     1     -42.837  54.249 -53.851  1.00  0.00     0.003 A 
HETATM   36  C   UNL     1     -43.270  55.515 -53.476  1.00  0.00     0.031 A 
ENDBRANCH   2  27
TORSDOF 7
ENDMDL
MODEL 8
REMARK VINA RESULT:      -8.3      2.293      3.666
REMARK  7 active torsions:
REMARK  status: ('A' for Active; 'I' for Inactive)
REMARK    1  A    between atoms: C_2  and  O_3 
REMARK    2  A    between atoms: O_3  and  C_4 
REMARK    3  A    between atoms: C_7  and  N_8 
REMARK       I    between atoms: N_8  and  C_9 
REMARK    4  A    between atoms: C_9  and  C_10 
REMARK    5  A    between atoms: C_10  and  S_11 
REMARK    6  A    between atoms: S_11  and  C_12 
REMARK    7  A    between atoms: N_13  and  C_14 
ROOT
HETATM    1  C   UNL     1     -41.070  54.880 -53.187  1.00  0.00     0.178 A 
HETATM    2  N   UNL     1     -41.662  55.198 -51.936  1.00  0.00    -0.255 N 
HETATM    3  C   UNL     1     -41.506  54.353 -50.813  1.00  0.00     0.270 A 
HETATM    4  O   UNL     1     -41.946  54.558 -49.687  1.00  0.00    -0.266 OA
HETATM    5  C   UNL     1     -40.774  53.157 -51.113  1.00  0.00     0.099 A 
HETATM    6  C   UNL     1     -40.301  52.961 -52.379  1.00  0.00     0.164 A 
HETATM    7  N   UNL     1     -39.652  51.762 -52.357  1.00  0.00    -0.260 N 
HETATM    8  H   UNL     1     -39.162  51.308 -53.119  1.00  0.00     0.191 HD
HETATM    9  N   UNL     1     -39.701  51.156 -51.149  1.00  0.00    -0.184 NA
HETATM   10  C   UNL     1     -40.387  52.021 -50.391  1.00  0.00     0.159 A 
HETATM   11  N   UNL     1     -40.418  53.778 -53.442  1.00  0.00    -0.204 NA
ENDROOT
BRANCH   1  12
HETATM   12  S   UNL     1     -41.225  56.027 -54.519  1.00  0.00    -0.082 SA
BRANCH  12  13
HETATM   13  C   UNL     1     -42.829  55.560 -55.222  1.00  0.00     0.185 C 
BRANCH  13  14
HETATM   14  C   UNL     1     -43.027  56.234 -56.563  1.00  0.00     0.231 C 
HETATM   15  N   UNL     1     -43.409  57.541 -56.672  1.00  0.00    -0.327 N 
HETATM   16  H   UNL     1     -43.683  57.750 -57.627  1.00  0.00     0.169 HD
HETATM   17  O   UNL     1     -42.910  55.587 -57.612  1.00  0.00    -0.272 OA
BRANCH  15  18
HETATM   18  C   UNL     1     -43.457  58.624 -55.776  1.00  0.00     0.034 A 
HETATM   19  C   UNL     1     -42.356  59.358 -55.345  1.00  0.00     0.032 A 
HETATM   20  C   UNL     1     -42.520  60.442 -54.472  1.00  0.00     0.039 A 
HETATM   21  C   UNL     1     -43.786  60.829 -54.036  1.00  0.00     0.068 A 
HETATM   22  C   UNL     1     -44.895  60.112 -54.473  1.00  0.00     0.039 A 
HETATM   23  C   UNL     1     -44.729  59.025 -55.343  1.00  0.00     0.032 A 
BRANCH  21  24
HETATM   24  O   UNL     1     -43.798  61.908 -53.199  1.00  0.00    -0.352 OA
BRANCH  24  25
HETATM   25  C   UNL     1     -45.075  62.380 -52.771  1.00  0.00     0.171 C 
HETATM   26  C   UNL     1     -45.156  62.202 -51.265  1.00  0.00     0.034 C 
ENDBRANCH  24  25
ENDBRANCH  21  24
ENDBRANCH  15  18
ENDBRANCH  13  14
ENDBRANCH  12  13
ENDBRANCH   1  12
BRANCH   2  27
HETATM   27  C   UNL     1     -42.438  56.384 -51.725  1.00  0.00     0.056 A 
HETATM   28  C   UNL     1     -41.846  57.619 -51.328  1.00  0.00     0.002 A 
HETATM   29  C   UNL     1     -42.697  58.733 -51.113  1.00  0.00    -0.024 A 
HETATM   30  C   UNL     1     -40.452  57.822 -51.160  1.00  0.00     0.014 A 
HETATM   31  C   UNL     1     -42.159  59.959 -50.691  1.00  0.00     0.012 A 
HETATM   32  C   UNL     1     -44.077  58.615 -51.338  1.00  0.00     0.012 A 
HETATM   33  C   UNL     1     -40.788  60.114 -50.495  1.00  0.00     0.001 A 
HETATM   34  C   UNL     1     -39.933  59.048 -50.739  1.00  0.00     0.001 A 
HETATM   35  C   UNL     1     -44.635  57.417 -51.777  1.00  0.00     0.003 A 
HETATM   36  C   UNL     1     -43.820  56.307 -51.969  1.00  0.00     0.031 A 
ENDBRANCH   2  27
TORSDOF 7
ENDMDL
MODEL 9
REMARK VINA RESULT:      -8.2      3.153      5.938
REMARK  7 active torsions:
REMARK  status: ('A' for Active; 'I' for Inactive)
REMARK    1  A    between atoms: C_2  and  O_3 
REMARK    2  A    between atoms: O_3  and  C_4 
REMARK    3  A    between atoms: C_7  and  N_8 
REMARK       I    between atoms: N_8  and  C_9 
REMARK    4  A    between atoms: C_9  and  C_10 
REMARK    5  A    between atoms: C_10  and  S_11 
REMARK    6  A    between atoms: S_11  and  C_12 
REMARK    7  A    between atoms: N_13  and  C_14 
ROOT
HETATM    1  C   UNL     1     -41.780  57.004 -54.914  1.00  0.00     0.178 A 
HETATM    2  N   UNL     1     -42.349  55.719 -54.715  1.00  0.00    -0.255 N 
HETATM    3  C   UNL     1     -42.957  55.011 -55.776  1.00  0.00     0.270 A 
HETATM    4  O   UNL     1     -43.442  53.886 -55.713  1.00  0.00    -0.266 OA
HETATM    5  C   UNL     1     -42.989  55.760 -56.999  1.00  0.00     0.099 A 
HETATM    6  C   UNL     1     -42.442  57.010 -57.033  1.00  0.00     0.164 A 
HETATM    7  N   UNL     1     -42.613  57.461 -58.308  1.00  0.00    -0.260 N 
HETATM    8  H   UNL     1     -42.312  58.347 -58.698  1.00  0.00     0.191 HD
HETATM    9  N   UNL     1     -43.266  56.580 -59.098  1.00  0.00    -0.184 NA
HETATM   10  C   UNL     1     -43.489  55.536 -58.288  1.00  0.00     0.159 A 
HETATM   11  N   UNL     1     -41.832  57.674 -56.034  1.00  0.00    -0.204 NA
ENDROOT
BRANCH   1  12
HETATM   12  S   UNL     1     -40.953  57.789 -53.567  1.00  0.00    -0.082 SA
BRANCH  12  13
HETATM   13  C   UNL     1     -41.346  59.534 -53.862  1.00  0.00     0.185 C 
BRANCH  13  14
HETATM   14  C   UNL     1     -42.485  59.971 -52.966  1.00  0.00     0.231 C 
HETATM   15  N   UNL     1     -43.783  59.980 -53.389  1.00  0.00    -0.327 N 
HETATM   16  H   UNL     1     -44.366  60.487 -52.731  1.00  0.00     0.169 HD
HETATM   17  O   UNL     1     -42.255  60.402 -51.828  1.00  0.00    -0.272 OA
BRANCH  15  18
HETATM   18  C   UNL     1     -44.458  59.414 -54.487  1.00  0.00     0.034 A 
HETATM   19  C   UNL     1     -45.102  58.180 -54.484  1.00  0.00     0.032 A 
HETATM   20  C   UNL     1     -45.772  57.724 -55.626  1.00  0.00     0.039 A 
HETATM   21  C   UNL     1     -45.835  58.502 -56.781  1.00  0.00     0.068 A 
HETATM   22  C   UNL     1     -45.209  59.743 -56.790  1.00  0.00     0.039 A 
HETATM   23  C   UNL     1     -44.534  60.197 -55.647  1.00  0.00     0.032 A 
BRANCH  21  24
HETATM   24  O   UNL     1     -46.532  57.940 -57.813  1.00  0.00    -0.352 OA
BRANCH  24  25
HETATM   25  C   UNL     1     -46.298  58.469 -59.117  1.00  0.00     0.171 C 
HETATM   26  C   UNL     1     -46.657  57.394 -60.127  1.00  0.00     0.034 C 
ENDBRANCH  24  25
ENDBRANCH  21  24
ENDBRANCH  15  18
ENDBRANCH  13  14
ENDBRANCH  12  13
ENDBRANCH   1  12
BRANCH   2  27
HETATM   27  C   UNL     1     -42.338  55.055 -53.444  1.00  0.00     0.056 A 
HETATM   28  C   UNL     1     -41.413  54.014 -53.139  1.00  0.00     0.002 A 
HETATM   29  C   UNL     1     -41.496  53.394 -51.866  1.00  0.00    -0.024 A 
HETATM   30  C   UNL     1     -40.388  53.571 -54.013  1.00  0.00     0.014 A 
HETATM   31  C   UNL     1     -40.625  52.344 -51.535  1.00  0.00     0.012 A 
HETATM   32  C   UNL     1     -42.440  53.841 -50.929  1.00  0.00     0.012 A 
HETATM   33  C   UNL     1     -39.655  51.903 -52.434  1.00  0.00     0.001 A 
HETATM   34  C   UNL     1     -39.530  52.524 -53.670  1.00  0.00     0.001 A 
HETATM   35  C   UNL     1     -43.302  54.894 -51.222  1.00  0.00     0.003 A 
HETATM   36  C   UNL     1     -43.252  55.498 -52.472  1.00  0.00     0.031 A 
ENDBRANCH   2  27
TORSDOF 7
ENDMDL
MODEL 10
REMARK VINA RESULT:      -8.2      3.490      9.060
REMARK  7 active torsions:
REMARK  status: ('A' for Active; 'I' for Inactive)
REMARK    1  A    between atoms: C_2  and  O_3 
REMARK    2  A    between atoms: O_3  and  C_4 
REMARK    3  A    between atoms: C_7  and  N_8 
REMARK       I    between atoms: N_8  and  C_9 
REMARK    4  A    between atoms: C_9  and  C_10 
REMARK    5  A    between atoms: C_10  and  S_11 
REMARK    6  A    between atoms: S_11  and  C_12 
REMARK    7  A    between atoms: N_13  and  C_14 
ROOT
HETATM    1  C   UNL     1     -42.987  59.193 -55.985  1.00  0.00     0.178 A 
HETATM    2  N   UNL     1     -43.126  59.518 -57.360  1.00  0.00    -0.255 N 
HETATM    3  C   UNL     1     -43.177  60.861 -57.798  1.00  0.00     0.270 A 
HETATM    4  O   UNL     1     -43.259  61.241 -58.961  1.00  0.00    -0.266 OA
HETATM    5  C   UNL     1     -43.149  61.801 -56.715  1.00  0.00     0.099 A 
HETATM    6  C   UNL     1     -43.060  61.342 -55.432  1.00  0.00     0.164 A 
HETATM    7  N   UNL     1     -43.046  62.449 -54.636  1.00  0.00    -0.260 N 
HETATM    8  H   UNL     1     -42.970  62.486 -53.626  1.00  0.00     0.191 HD
HETATM    9  N   UNL     1     -43.149  63.603 -55.333  1.00  0.00    -0.184 NA
HETATM   10  C   UNL     1     -43.207  63.196 -56.609  1.00  0.00     0.159 A 
HETATM   11  N   UNL     1     -42.977  60.066 -55.013  1.00  0.00    -0.204 NA
ENDROOT
BRANCH   1  12
HETATM   12  S   UNL     1     -42.835  57.498 -55.520  1.00  0.00    -0.082 SA
BRANCH  12  13
HETATM   13  C   UNL     1     -42.630  57.627 -53.723  1.00  0.00     0.185 C 
BRANCH  13  14
HETATM   14  C   UNL     1     -43.698  56.820 -53.017  1.00  0.00     0.231 C 
HETATM   15  N   UNL     1     -43.622  55.461 -52.892  1.00  0.00    -0.327 N 
HETATM   16  H   UNL     1     -44.510  55.086 -52.576  1.00  0.00     0.169 HD
HETATM   17  O   UNL     1     -44.718  57.373 -52.586  1.00  0.00    -0.272 OA
BRANCH  15  18
HETATM   18  C   UNL     1     -42.590  54.520 -53.063  1.00  0.00     0.034 A 
HETATM   19  C   UNL     1     -42.226  53.940 -54.275  1.00  0.00     0.032 A 
HETATM   20  C   UNL     1     -41.159  53.034 -54.338  1.00  0.00     0.039 A 
HETATM   21  C   UNL     1     -40.420  52.712 -53.201  1.00  0.00     0.068 A 
HETATM   22  C   UNL     1     -40.766  53.298 -51.987  1.00  0.00     0.039 A 
HETATM   23  C   UNL     1     -41.837  54.202 -51.924  1.00  0.00     0.032 A 
BRANCH  21  24
HETATM   24  O   UNL     1     -39.402  51.827 -53.411  1.00  0.00    -0.352 OA
BRANCH  24  25
HETATM   25  C   UNL     1     -39.679  50.450 -53.165  1.00  0.00     0.171 C 
HETATM   26  C   UNL     1     -39.688  49.731 -54.503  1.00  0.00     0.034 C 
ENDBRANCH  24  25
ENDBRANCH  21  24
ENDBRANCH  15  18
ENDBRANCH  13  14
ENDBRANCH  12  13
ENDBRANCH   1  12
BRANCH   2  27
HETATM   27  C   UNL     1     -43.214  58.521 -58.386  1.00  0.00     0.056 A 
HETATM   28  C   UNL     1     -44.460  57.964 -58.800  1.00  0.00     0.002 A 
HETATM   29  C   UNL     1     -44.446  56.960 -59.802  1.00  0.00    -0.024 A 
HETATM   30  C   UNL     1     -45.724  58.367 -58.299  1.00  0.00     0.014 A 
HETATM   31  C   UNL     1     -45.647  56.363 -60.217  1.00  0.00     0.012 A 
HETATM   32  C   UNL     1     -43.233  56.574 -60.392  1.00  0.00     0.012 A 
HETATM   33  C   UNL     1     -46.870  56.752 -59.674  1.00  0.00     0.001 A 
HETATM   34  C   UNL     1     -46.909  57.762 -58.721  1.00  0.00     0.001 A 
HETATM   35  C   UNL     1     -42.030  57.164 -60.015  1.00  0.00     0.003 A 
HETATM   36  C   UNL     1     -42.020  58.131 -59.017  1.00  0.00     0.031 A 
ENDBRANCH   2  27
TORSDOF 7
ENDMDL
