MODEL 1
REMARK VINA RESULT:      -8.5      0.000      0.000
REMARK  8 active torsions:
REMARK  status: ('A' for Active; 'I' for Inactive)
REMARK    1  A    between atoms: C_3  and  N_4 
REMARK       I    between atoms: N_4  and  C_5 
REMARK    2  A    between atoms: C_5  and  C_6 
REMARK    3  A    between atoms: C_7  and  C_8 
REMARK    4  A    between atoms: C_11  and  C_12 
REMARK    5  A    between atoms: C_21  and  C_22 
REMARK    6  A    between atoms: C_22  and  C_23 
REMARK    7  A    between atoms: C_23  and  C_24 
REMARK    8  A    between atoms: C_24  and  O_25 
ROOT
HETATM    1  C   UNL     1     -42.836  57.503 -56.497  1.00  0.00     0.062 C 
HETATM    2  C   UNL     1     -43.156  56.972 -55.109  1.00  0.00     0.202 C 
HETATM    3  N   UNL     1     -42.937  58.008 -54.095  1.00  0.00    -0.083 N 
HETATM    4  C   UNL     1     -42.230  59.158 -54.321  1.00  0.00     0.726 A 
HETATM    5  N   UNL     1     -41.781  59.420 -55.566  1.00  0.00    -0.192 N 
HETATM    6  N   UNL     1     -43.374  57.936 -52.822  1.00  0.00    -0.140 NA
HETATM    7  C   UNL     1     -42.834  59.052 -52.313  1.00  0.00     0.166 A 
HETATM    8  N   UNL     1     -42.132  59.832 -53.204  1.00  0.00    -0.046 NA
HETATM    9  C   UNL     1     -42.174  58.674 -56.675  1.00  0.00     0.037 C 
HETATM   10  C   UNL     1     -41.842  59.268 -58.022  1.00  0.00     0.070 C 
HETATM   11  H   UNL     1     -41.374  60.336 -55.744  1.00  0.00     0.184 HD
ENDROOT
BRANCH   1  12
HETATM   12  C   UNL     1     -43.480  56.820 -57.645  1.00  0.00     0.256 C 
HETATM   13  N   UNL     1     -44.637  57.428 -58.078  1.00  0.00    -0.323 N 
HETATM   14  H   UNL     1     -44.917  58.277 -57.605  1.00  0.00     0.169 HD
HETATM   15  O   UNL     1     -42.946  55.815 -58.099  1.00  0.00    -0.267 OA
BRANCH  13  16
HETATM   16  C   UNL     1     -45.485  57.007 -59.134  1.00  0.00     0.041 A 
HETATM   17  C   UNL     1     -46.713  57.676 -59.338  1.00  0.00    -0.035 A 
HETATM   18  C   UNL     1     -47.145  58.854 -58.507  1.00  0.00     0.050 C 
HETATM   19  C   UNL     1     -47.555  57.272 -60.391  1.00  0.00     0.009 A 
HETATM   20  C   UNL     1     -47.205  56.211 -61.222  1.00  0.00     0.001 A 
HETATM   21  C   UNL     1     -46.005  55.545 -61.015  1.00  0.00     0.002 A 
HETATM   22  C   UNL     1     -45.153  55.942 -59.981  1.00  0.00     0.030 A 
ENDBRANCH  13  16
ENDBRANCH   1  12
BRANCH   2  23
HETATM   23  C   UNL     1     -42.323  55.742 -54.749  1.00  0.00    -0.028 A 
HETATM   24  C   UNL     1     -40.959  55.659 -55.078  1.00  0.00     0.010 A 
HETATM   25  C   UNL     1     -40.208  54.533 -54.734  1.00  0.00     0.008 A 
HETATM   26  C   UNL     1     -40.793  53.464 -54.046  1.00  0.00    -0.055 A 
HETATM   27  C   UNL     1     -42.153  53.547 -53.717  1.00  0.00     0.008 A 
HETATM   28  C   UNL     1     -42.910  54.671 -54.063  1.00  0.00     0.010 A 
BRANCH  26  29
HETATM   29  C   UNL     1     -39.948  52.259 -53.676  1.00  0.00     0.010 C 
HETATM   30  C   UNL     1     -39.836  52.081 -52.159  1.00  0.00     0.015 C 
HETATM   31  C   UNL     1     -40.479  50.986 -54.338  1.00  0.00     0.015 C 
ENDBRANCH  26  29
ENDBRANCH   2  23
BRANCH   7  32
HETATM   32  C   UNL     1     -42.939  59.404 -50.874  1.00  0.00     0.085 C 
BRANCH  32  33
HETATM   33  C   UNL     1     -41.790  60.290 -50.392  1.00  0.00     0.034 C 
BRANCH  33  34
HETATM   34  C   UNL     1     -40.503  59.511 -50.142  1.00  0.00     0.164 C 
BRANCH  34  35
HETATM   35  O   UNL     1     -39.678  59.560 -51.301  1.00  0.00    -0.401 OA
HETATM   36  H   UNL     1     -40.064  58.960 -51.961  1.00  0.00     0.209 HD
ENDBRANCH  34  35
ENDBRANCH  33  34
ENDBRANCH  32  33
ENDBRANCH   7  32
TORSDOF 8
ENDMDL
MODEL 2
REMARK VINA RESULT:      -8.3      2.207      7.326
REMARK  8 active torsions:
REMARK  status: ('A' for Active; 'I' for Inactive)
REMARK    1  A    between atoms: C_3  and  N_4 
REMARK       I    between atoms: N_4  and  C_5 
REMARK    2  A    between atoms: C_5  and  C_6 
REMARK    3  A    between atoms: C_7  and  C_8 
REMARK    4  A    between atoms: C_11  and  C_12 
REMARK    5  A    between atoms: C_21  and  C_22 
REMARK    6  A    between atoms: C_22  and  C_23 
REMARK    7  A    between atoms: C_23  and  C_24 
REMARK    8  A    between atoms: C_24  and  O_25 
ROOT
HETATM    1  C   UNL     1     -43.017  57.174 -54.879  1.00  0.00     0.062 C 
HETATM    2  C   UNL     1     -42.464  57.502 -56.257  1.00  0.00     0.202 C 
HETATM    3  N   UNL     1     -42.293  58.949 -56.416  1.00  0.00    -0.083 N 
HETATM    4  C   UNL     1     -42.862  59.879 -55.589  1.00  0.00     0.726 A 
HETATM    5  N   UNL     1     -43.544  59.462 -54.501  1.00  0.00    -0.192 N 
HETATM    6  N   UNL     1     -41.589  59.531 -57.408  1.00  0.00    -0.140 NA
HETATM    7  C   UNL     1     -41.832  60.825 -57.155  1.00  0.00     0.166 A 
HETATM    8  N   UNL     1     -42.602  61.078 -56.042  1.00  0.00    -0.046 NA
HETATM    9  C   UNL     1     -43.528  58.137 -54.071  1.00  0.00     0.037 C 
HETATM   10  C   UNL     1     -44.073  57.886 -52.687  1.00  0.00     0.070 C 
HETATM   11  H   UNL     1     -43.846  60.164 -53.829  1.00  0.00     0.184 HD
ENDROOT
BRANCH   1  12
HETATM   12  C   UNL     1     -42.759  55.810 -54.357  1.00  0.00     0.256 C 
HETATM   13  N   UNL     1     -41.446  55.586 -54.010  1.00  0.00    -0.323 N 
HETATM   14  H   UNL     1     -40.802  56.359 -54.114  1.00  0.00     0.169 HD
HETATM   15  O   UNL     1     -43.701  55.031 -54.273  1.00  0.00    -0.267 OA
BRANCH  13  16
HETATM   16  C   UNL     1     -40.885  54.386 -53.502  1.00  0.00     0.041 A 
HETATM   17  C   UNL     1     -40.755  54.227 -52.104  1.00  0.00    -0.035 A 
HETATM   18  C   UNL     1     -41.229  55.262 -51.120  1.00  0.00     0.050 C 
HETATM   19  C   UNL     1     -40.210  53.034 -51.591  1.00  0.00     0.009 A 
HETATM   20  C   UNL     1     -39.780  52.018 -52.441  1.00  0.00     0.001 A 
HETATM   21  C   UNL     1     -39.896  52.179 -53.815  1.00  0.00     0.002 A 
HETATM   22  C   UNL     1     -40.446  53.352 -54.339  1.00  0.00     0.030 A 
ENDBRANCH  13  16
ENDBRANCH   1  12
BRANCH   2  23
HETATM   23  C   UNL     1     -43.359  56.982 -57.383  1.00  0.00    -0.028 A 
HETATM   24  C   UNL     1     -43.057  55.791 -58.066  1.00  0.00     0.010 A 
HETATM   25  C   UNL     1     -43.889  55.322 -59.086  1.00  0.00     0.008 A 
HETATM   26  C   UNL     1     -45.046  56.024 -59.446  1.00  0.00    -0.055 A 
HETATM   27  C   UNL     1     -45.347  57.210 -58.765  1.00  0.00     0.008 A 
HETATM   28  C   UNL     1     -44.515  57.685 -57.745  1.00  0.00     0.010 A 
BRANCH  26  29
HETATM   29  C   UNL     1     -45.936  55.483 -60.551  1.00  0.00     0.010 C 
HETATM   30  C   UNL     1     -46.966  56.517 -61.015  1.00  0.00     0.015 C 
HETATM   31  C   UNL     1     -45.105  54.970 -61.729  1.00  0.00     0.015 C 
ENDBRANCH  26  29
ENDBRANCH   2  23
BRANCH   7  32
HETATM   32  C   UNL     1     -41.349  61.914 -58.041  1.00  0.00     0.085 C 
BRANCH  32  33
HETATM   33  C   UNL     1     -42.153  62.029 -59.336  1.00  0.00     0.034 C 
BRANCH  33  34
HETATM   34  C   UNL     1     -41.501  61.303 -60.507  1.00  0.00     0.164 C 
BRANCH  34  35
HETATM   35  O   UNL     1     -41.923  59.944 -60.526  1.00  0.00    -0.401 OA
HETATM   36  H   UNL     1     -41.293  59.448 -61.075  1.00  0.00     0.209 HD
ENDBRANCH  34  35
ENDBRANCH  33  34
ENDBRANCH  32  33
ENDBRANCH   7  32
TORSDOF 8
ENDMDL
MODEL 3
REMARK VINA RESULT:      -8.1      1.881      7.257
REMARK  8 active torsions:
REMARK  status: ('A' for Active; 'I' for Inactive)
REMARK    1  A    between atoms: C_3  and  N_4 
REMARK       I    between atoms: N_4  and  C_5 
REMARK    2  A    between atoms: C_5  and  C_6 
REMARK    3  A    between atoms: C_7  and  C_8 
REMARK    4  A    between atoms: C_11  and  C_12 
REMARK    5  A    between atoms: C_21  and  C_22 
REMARK    6  A    between atoms: C_22  and  C_23 
REMARK    7  A    between atoms: C_23  and  C_24 
REMARK    8  A    between atoms: C_24  and  O_25 
ROOT
HETATM    1  C   UNL     1     -43.028  58.490 -55.356  1.00  0.00     0.062 C 
HETATM    2  C   UNL     1     -42.351  57.516 -56.308  1.00  0.00     0.202 C 
HETATM    3  N   UNL     1     -43.186  57.282 -57.490  1.00  0.00    -0.083 N 
HETATM    4  C   UNL     1     -44.512  57.613 -57.563  1.00  0.00     0.726 A 
HETATM    5  N   UNL     1     -45.080  58.283 -56.539  1.00  0.00    -0.192 N 
HETATM    6  N   UNL     1     -42.760  56.685 -58.621  1.00  0.00    -0.140 NA
HETATM    7  C   UNL     1     -43.904  56.629 -59.316  1.00  0.00     0.166 A 
HETATM    8  N   UNL     1     -45.000  57.195 -58.704  1.00  0.00    -0.046 NA
HETATM    9  C   UNL     1     -44.335  58.828 -55.497  1.00  0.00     0.037 C 
HETATM   10  C   UNL     1     -45.062  59.800 -54.602  1.00  0.00     0.070 C 
HETATM   11  H   UNL     1     -46.027  58.636 -56.666  1.00  0.00     0.184 HD
ENDROOT
BRANCH   1  12
HETATM   12  C   UNL     1     -42.152  59.236 -54.420  1.00  0.00     0.256 C 
HETATM   13  N   UNL     1     -41.932  58.587 -53.226  1.00  0.00    -0.323 N 
HETATM   14  H   UNL     1     -42.352  57.673 -53.113  1.00  0.00     0.169 HD
HETATM   15  O   UNL     1     -41.710  60.321 -54.778  1.00  0.00    -0.267 OA
BRANCH  13  16
HETATM   16  C   UNL     1     -41.160  59.047 -52.129  1.00  0.00     0.041 A 
HETATM   17  C   UNL     1     -41.809  59.707 -51.061  1.00  0.00    -0.035 A 
HETATM   18  C   UNL     1     -43.300  59.905 -51.013  1.00  0.00     0.050 C 
HETATM   19  C   UNL     1     -41.052  60.157 -49.963  1.00  0.00     0.009 A 
HETATM   20  C   UNL     1     -39.671  59.979 -49.922  1.00  0.00     0.001 A 
HETATM   21  C   UNL     1     -39.031  59.342 -50.976  1.00  0.00     0.002 A 
HETATM   22  C   UNL     1     -39.771  58.879 -52.069  1.00  0.00     0.030 A 
ENDBRANCH  13  16
ENDBRANCH   1  12
BRANCH   2  23
HETATM   23  C   UNL     1     -42.040  56.174 -55.646  1.00  0.00    -0.028 A 
HETATM   24  C   UNL     1     -42.987  55.136 -55.615  1.00  0.00     0.010 A 
HETATM   25  C   UNL     1     -42.686  53.911 -55.016  1.00  0.00     0.008 A 
HETATM   26  C   UNL     1     -41.431  53.686 -54.437  1.00  0.00    -0.055 A 
HETATM   27  C   UNL     1     -40.487  54.720 -54.468  1.00  0.00     0.008 A 
HETATM   28  C   UNL     1     -40.785  55.950 -55.065  1.00  0.00     0.010 A 
BRANCH  26  29
HETATM   29  C   UNL     1     -41.130  52.340 -53.803  1.00  0.00     0.010 C 
HETATM   30  C   UNL     1     -40.330  51.430 -54.741  1.00  0.00     0.015 C 
HETATM   31  C   UNL     1     -40.413  52.509 -52.462  1.00  0.00     0.015 C 
ENDBRANCH  26  29
ENDBRANCH   2  23
BRANCH   7  32
HETATM   32  C   UNL     1     -44.003  55.956 -60.635  1.00  0.00     0.085 C 
BRANCH  32  33
HETATM   33  C   UNL     1     -44.928  54.738 -60.616  1.00  0.00     0.034 C 
BRANCH  33  34
HETATM   34  C   UNL     1     -44.657  53.804 -59.442  1.00  0.00     0.164 C 
BRANCH  34  35
HETATM   35  O   UNL     1     -45.464  52.638 -59.559  1.00  0.00    -0.401 OA
HETATM   36  H   UNL     1     -45.158  52.146 -60.339  1.00  0.00     0.209 HD
ENDBRANCH  34  35
ENDBRANCH  33  34
ENDBRANCH  32  33
ENDBRANCH   7  32
TORSDOF 8
ENDMDL
MODEL 4
REMARK VINA RESULT:      -8.1      3.026      6.941
REMARK  8 active torsions:
REMARK  status: ('A' for Active; 'I' for Inactive)
REMARK    1  A    between atoms: C_3  and  N_4 
REMARK       I    between atoms: N_4  and  C_5 
REMARK    2  A    between atoms: C_5  and  C_6 
REMARK    3  A    between atoms: C_7  and  C_8 
REMARK    4  A    between atoms: C_11  and  C_12 
REMARK    5  A    between atoms: C_21  and  C_22 
REMARK    6  A    between atoms: C_22  and  C_23 
REMARK    7  A    between atoms: C_23  and  C_24 
REMARK    8  A    between atoms: C_24  and  O_25 
ROOT
HETATM    1  C   UNL     1     -42.923  56.461 -51.575  1.00  0.00     0.062 C 
HETATM    2  C   UNL     1     -42.702  57.835 -52.188  1.00  0.00     0.202 C 
HETATM    3  N   UNL     1     -43.662  58.803 -51.648  1.00  0.00    -0.083 N 
HETATM    4  C   UNL     1     -44.794  58.453 -50.965  1.00  0.00     0.726 A 
HETATM    5  N   UNL     1     -45.011  57.153 -50.673  1.00  0.00    -0.192 N 
HETATM    6  N   UNL     1     -43.561  60.140 -51.791  1.00  0.00    -0.140 NA
HETATM    7  C   UNL     1     -44.708  60.535 -51.222  1.00  0.00     0.166 A 
HETATM    8  N   UNL     1     -45.488  59.529 -50.696  1.00  0.00    -0.046 NA
HETATM    9  C   UNL     1     -44.040  56.172 -50.862  1.00  0.00     0.037 C 
HETATM   10  C   UNL     1     -44.313  54.839 -50.212  1.00  0.00     0.070 C 
HETATM   11  H   UNL     1     -45.786  56.926 -50.053  1.00  0.00     0.184 HD
ENDROOT
BRANCH   1  12
HETATM   12  C   UNL     1     -41.770  55.528 -51.582  1.00  0.00     0.256 C 
HETATM   13  N   UNL     1     -41.918  54.465 -52.443  1.00  0.00    -0.323 N 
HETATM   14  H   UNL     1     -42.763  54.435 -52.998  1.00  0.00     0.169 HD
HETATM   15  O   UNL     1     -40.816  55.777 -50.853  1.00  0.00    -0.267 OA
BRANCH  13  16
HETATM   16  C   UNL     1     -41.004  53.401 -52.659  1.00  0.00     0.041 A 
HETATM   17  C   UNL     1     -40.579  53.119 -53.977  1.00  0.00    -0.035 A 
HETATM   18  C   UNL     1     -41.018  53.930 -55.166  1.00  0.00     0.050 C 
HETATM   19  C   UNL     1     -39.663  52.072 -54.199  1.00  0.00     0.009 A 
HETATM   20  C   UNL     1     -39.187  51.300 -53.143  1.00  0.00     0.001 A 
HETATM   21  C   UNL     1     -39.615  51.568 -51.850  1.00  0.00     0.002 A 
HETATM   22  C   UNL     1     -40.514  52.612 -51.612  1.00  0.00     0.030 A 
ENDBRANCH  13  16
ENDBRANCH   1  12
BRANCH   2  23
HETATM   23  C   UNL     1     -42.818  57.819 -53.712  1.00  0.00    -0.028 A 
HETATM   24  C   UNL     1     -41.960  58.585 -54.520  1.00  0.00     0.010 A 
HETATM   25  C   UNL     1     -42.070  58.554 -55.912  1.00  0.00     0.008 A 
HETATM   26  C   UNL     1     -43.034  57.752 -56.536  1.00  0.00    -0.055 A 
HETATM   27  C   UNL     1     -43.889  56.988 -55.731  1.00  0.00     0.008 A 
HETATM   28  C   UNL     1     -43.784  57.019 -54.337  1.00  0.00     0.010 A 
BRANCH  26  29
HETATM   29  C   UNL     1     -43.122  57.730 -58.051  1.00  0.00     0.010 C 
HETATM   30  C   UNL     1     -41.950  58.467 -58.705  1.00  0.00     0.015 C 
HETATM   31  C   UNL     1     -43.230  56.297 -58.578  1.00  0.00     0.015 C 
ENDBRANCH  26  29
ENDBRANCH   2  23
BRANCH   7  32
HETATM   32  C   UNL     1     -45.141  61.955 -51.204  1.00  0.00     0.085 C 
BRANCH  32  33
HETATM   33  C   UNL     1     -45.020  62.597 -49.822  1.00  0.00     0.034 C 
BRANCH  33  34
HETATM   34  C   UNL     1     -46.336  62.603 -49.051  1.00  0.00     0.164 C 
BRANCH  34  35
HETATM   35  O   UNL     1     -46.486  61.376 -48.346  1.00  0.00    -0.401 OA
HETATM   36  H   UNL     1     -47.372  61.374 -47.945  1.00  0.00     0.209 HD
ENDBRANCH  34  35
ENDBRANCH  33  34
ENDBRANCH  32  33
ENDBRANCH   7  32
TORSDOF 8
ENDMDL
MODEL 5
REMARK VINA RESULT:      -8.0      2.446      8.369
REMARK  8 active torsions:
REMARK  status: ('A' for Active; 'I' for Inactive)
REMARK    1  A    between atoms: C_3  and  N_4 
REMARK       I    between atoms: N_4  and  C_5 
REMARK    2  A    between atoms: C_5  and  C_6 
REMARK    3  A    between atoms: C_7  and  C_8 
REMARK    4  A    between atoms: C_11  and  C_12 
REMARK    5  A    between atoms: C_21  and  C_22 
REMARK    6  A    between atoms: C_22  and  C_23 
REMARK    7  A    between atoms: C_23  and  C_24 
REMARK    8  A    between atoms: C_24  and  O_25 
ROOT
HETATM    1  C   UNL     1     -42.687  55.975 -54.295  1.00  0.00     0.062 C 
HETATM    2  C   UNL     1     -43.864  56.931 -54.405  1.00  0.00     0.202 C 
HETATM    3  N   UNL     1     -44.139  57.255 -55.808  1.00  0.00    -0.083 N 
HETATM    4  C   UNL     1     -43.264  57.012 -56.831  1.00  0.00     0.726 A 
HETATM    5  N   UNL     1     -42.118  56.348 -56.573  1.00  0.00    -0.192 N 
HETATM    6  N   UNL     1     -45.262  57.858 -56.247  1.00  0.00    -0.140 NA
HETATM    7  C   UNL     1     -44.968  58.009 -57.546  1.00  0.00     0.166 A 
HETATM    8  N   UNL     1     -43.754  57.495 -57.944  1.00  0.00    -0.046 NA
HETATM    9  C   UNL     1     -41.874  55.725 -55.351  1.00  0.00     0.037 C 
HETATM   10  C   UNL     1     -40.703  54.774 -55.317  1.00  0.00     0.070 C 
HETATM   11  H   UNL     1     -41.544  56.061 -57.363  1.00  0.00     0.184 HD
ENDROOT
BRANCH   1  12
HETATM   12  C   UNL     1     -42.606  55.145 -53.068  1.00  0.00     0.256 C 
HETATM   13  N   UNL     1     -41.534  55.450 -52.259  1.00  0.00    -0.323 N 
HETATM   14  H   UNL     1     -40.934  56.210 -52.554  1.00  0.00     0.169 HD
HETATM   15  O   UNL     1     -43.470  54.297 -52.880  1.00  0.00    -0.267 OA
BRANCH  13  16
HETATM   16  C   UNL     1     -41.177  54.827 -51.036  1.00  0.00     0.041 A 
HETATM   17  C   UNL     1     -40.600  53.538 -51.065  1.00  0.00    -0.035 A 
HETATM   18  C   UNL     1     -40.303  52.807 -52.347  1.00  0.00     0.050 C 
HETATM   19  C   UNL     1     -40.232  52.917 -49.855  1.00  0.00     0.009 A 
HETATM   20  C   UNL     1     -40.446  53.546 -48.632  1.00  0.00     0.001 A 
HETATM   21  C   UNL     1     -41.024  54.808 -48.602  1.00  0.00     0.002 A 
HETATM   22  C   UNL     1     -41.384  55.443 -49.795  1.00  0.00     0.030 A 
ENDBRANCH  13  16
ENDBRANCH   1  12
BRANCH   2  23
HETATM   23  C   UNL     1     -43.634  58.230 -53.632  1.00  0.00    -0.028 A 
HETATM   24  C   UNL     1     -42.634  59.141 -54.013  1.00  0.00     0.010 A 
HETATM   25  C   UNL     1     -42.441  60.329 -53.304  1.00  0.00     0.008 A 
HETATM   26  C   UNL     1     -43.243  60.643 -52.201  1.00  0.00    -0.055 A 
HETATM   27  C   UNL     1     -44.241  59.735 -51.821  1.00  0.00     0.008 A 
HETATM   28  C   UNL     1     -44.436  58.543 -52.526  1.00  0.00     0.010 A 
BRANCH  26  29
HETATM   29  C   UNL     1     -43.017  61.947 -51.457  1.00  0.00     0.010 C 
HETATM   30  C   UNL     1     -43.469  63.160 -52.275  1.00  0.00     0.015 C 
HETATM   31  C   UNL     1     -43.698  61.927 -50.087  1.00  0.00     0.015 C 
ENDBRANCH  26  29
ENDBRANCH   2  23
BRANCH   7  32
HETATM   32  C   UNL     1     -45.863  58.727 -58.487  1.00  0.00     0.085 C 
BRANCH  32  33
HETATM   33  C   UNL     1     -45.884  58.104 -59.883  1.00  0.00     0.034 C 
BRANCH  33  34
HETATM   34  C   UNL     1     -46.765  56.862 -59.967  1.00  0.00     0.164 C 
BRANCH  34  35
HETATM   35  O   UNL     1     -46.017  55.715 -59.581  1.00  0.00    -0.401 OA
HETATM   36  H   UNL     1     -45.309  56.013 -58.985  1.00  0.00     0.209 HD
ENDBRANCH  34  35
ENDBRANCH  33  34
ENDBRANCH  32  33
ENDBRANCH   7  32
TORSDOF 8
ENDMDL
MODEL 6
REMARK VINA RESULT:      -7.9      2.129      2.535
REMARK  8 active torsions:
REMARK  status: ('A' for Active; 'I' for Inactive)
REMARK    1  A    between atoms: C_3  and  N_4 
REMARK       I    between atoms: N_4  and  C_5 
REMARK    2  A    between atoms: C_5  and  C_6 
REMARK    3  A    between atoms: C_7  and  C_8 
REMARK    4  A    between atoms: C_11  and  C_12 
REMARK    5  A    between atoms: C_21  and  C_22 
REMARK    6  A    between atoms: C_22  and  C_23 
REMARK    7  A    between atoms: C_23  and  C_24 
REMARK    8  A    between atoms: C_24  and  O_25 
ROOT
HETATM    1  C   UNL     1     -43.218  57.772 -55.335  1.00  0.00     0.062 C 
HETATM    2  C   UNL     1     -43.918  57.212 -54.106  1.00  0.00     0.202 C 
HETATM    3  N   UNL     1     -44.258  58.288 -53.170  1.00  0.00    -0.083 N 
HETATM    4  C   UNL     1     -43.726  59.547 -53.230  1.00  0.00     0.726 A 
HETATM    5  N   UNL     1     -42.914  59.869 -54.258  1.00  0.00    -0.192 N 
HETATM    6  N   UNL     1     -45.103  58.155 -52.127  1.00  0.00    -0.140 NA
HETATM    7  C   UNL     1     -44.982  59.362 -51.557  1.00  0.00     0.166 A 
HETATM    8  N   UNL     1     -44.152  60.246 -52.209  1.00  0.00    -0.046 NA
HETATM    9  C   UNL     1     -42.749  59.044 -55.368  1.00  0.00     0.037 C 
HETATM   10  C   UNL     1     -42.064  59.667 -56.558  1.00  0.00     0.070 C 
HETATM   11  H   UNL     1     -42.634  60.843 -54.358  1.00  0.00     0.184 HD
ENDROOT
BRANCH   1  12
HETATM   12  C   UNL     1     -43.282  56.959 -56.574  1.00  0.00     0.256 C 
HETATM   13  N   UNL     1     -44.383  57.222 -57.357  1.00  0.00    -0.323 N 
HETATM   14  H   UNL     1     -45.014  57.945 -57.038  1.00  0.00     0.169 HD
HETATM   15  O   UNL     1     -42.380  56.158 -56.791  1.00  0.00    -0.267 OA
BRANCH  13  16
HETATM   16  C   UNL     1     -44.732  56.601 -58.584  1.00  0.00     0.041 A 
HETATM   17  C   UNL     1     -45.926  56.987 -59.234  1.00  0.00    -0.035 A 
HETATM   18  C   UNL     1     -46.828  58.069 -58.704  1.00  0.00     0.050 C 
HETATM   19  C   UNL     1     -46.274  56.383 -60.457  1.00  0.00     0.009 A 
HETATM   20  C   UNL     1     -45.470  55.399 -61.026  1.00  0.00     0.001 A 
HETATM   21  C   UNL     1     -44.304  55.010 -60.381  1.00  0.00     0.002 A 
HETATM   22  C   UNL     1     -43.939  55.608 -59.172  1.00  0.00     0.030 A 
ENDBRANCH  13  16
ENDBRANCH   1  12
BRANCH   2  23
HETATM   23  C   UNL     1     -43.071  56.170 -53.377  1.00  0.00    -0.028 A 
HETATM   24  C   UNL     1     -41.959  56.542 -52.602  1.00  0.00     0.010 A 
HETATM   25  C   UNL     1     -41.199  55.579 -51.933  1.00  0.00     0.008 A 
HETATM   26  C   UNL     1     -41.533  54.222 -52.012  1.00  0.00    -0.055 A 
HETATM   27  C   UNL     1     -42.643  53.850 -52.783  1.00  0.00     0.008 A 
HETATM   28  C   UNL     1     -43.403  54.811 -53.458  1.00  0.00     0.010 A 
BRANCH  26  29
HETATM   29  C   UNL     1     -40.696  53.200 -51.264  1.00  0.00     0.010 C 
HETATM   30  C   UNL     1     -39.880  52.319 -52.215  1.00  0.00     0.015 C 
HETATM   31  C   UNL     1     -39.790  53.876 -50.232  1.00  0.00     0.015 C 
ENDBRANCH  26  29
ENDBRANCH   2  23
BRANCH   7  32
HETATM   32  C   UNL     1     -45.652  59.711 -50.280  1.00  0.00     0.085 C 
BRANCH  32  33
HETATM   33  C   UNL     1     -45.114  60.998 -49.655  1.00  0.00     0.034 C 
BRANCH  33  34
HETATM   34  C   UNL     1     -45.250  61.025 -48.136  1.00  0.00     0.164 C 
BRANCH  34  35
HETATM   35  O   UNL     1     -45.971  59.878 -47.698  1.00  0.00    -0.401 OA
HETATM   36  H   UNL     1     -45.670  59.121 -48.229  1.00  0.00     0.209 HD
ENDBRANCH  34  35
ENDBRANCH  33  34
ENDBRANCH  32  33
ENDBRANCH   7  32
TORSDOF 8
ENDMDL
MODEL 7
REMARK VINA RESULT:      -7.8      2.415      7.202
REMARK  8 active torsions:
REMARK  status: ('A' for Active; 'I' for Inactive)
REMARK    1  A    between atoms: C_3  and  N_4 
REMARK       I    between atoms: N_4  and  C_5 
REMARK    2  A    between atoms: C_5  and  C_6 
REMARK    3  A    between atoms: C_7  and  C_8 
REMARK    4  A    between atoms: C_11  and  C_12 
REMARK    5  A    between atoms: C_21  and  C_22 
REMARK    6  A    between atoms: C_22  and  C_23 
REMARK    7  A    between atoms: C_23  and  C_24 
REMARK    8  A    between atoms: C_24  and  O_25 
ROOT
HETATM    1  C   UNL     1     -43.261  56.266 -52.593  1.00  0.00     0.062 C 
HETATM    2  C   UNL     1     -42.830  57.511 -53.352  1.00  0.00     0.202 C 
HETATM    3  N   UNL     1     -42.951  58.701 -52.505  1.00  0.00    -0.083 N 
HETATM    4  C   UNL     1     -43.663  58.736 -51.337  1.00  0.00     0.726 A 
HETATM    5  N   UNL     1     -44.212  57.596 -50.867  1.00  0.00    -0.192 N 
HETATM    6  N   UNL     1     -42.409  59.902 -52.792  1.00  0.00    -0.140 NA
HETATM    7  C   UNL     1     -42.892  60.638 -51.781  1.00  0.00     0.166 A 
HETATM    8  N   UNL     1     -43.659  59.955 -50.863  1.00  0.00    -0.046 NA
HETATM    9  C   UNL     1     -43.922  56.347 -51.411  1.00  0.00     0.037 C 
HETATM   10  C   UNL     1     -44.360  55.154 -50.598  1.00  0.00     0.070 C 
HETATM   11  H   UNL     1     -44.622  57.612 -49.936  1.00  0.00     0.184 HD
ENDROOT
BRANCH   1  12
HETATM   12  C   UNL     1     -42.722  54.968 -53.069  1.00  0.00     0.256 C 
HETATM   13  N   UNL     1     -41.522  54.617 -52.492  1.00  0.00    -0.323 N 
HETATM   14  H   UNL     1     -41.144  55.246 -51.795  1.00  0.00     0.169 HD
HETATM   15  O   UNL     1     -43.370  54.338 -53.897  1.00  0.00    -0.267 OA
BRANCH  13  16
HETATM   16  C   UNL     1     -40.753  53.454 -52.751  1.00  0.00     0.041 A 
HETATM   17  C   UNL     1     -40.122  52.794 -51.673  1.00  0.00    -0.035 A 
HETATM   18  C   UNL     1     -40.267  53.246 -50.245  1.00  0.00     0.050 C 
HETATM   19  C   UNL     1     -39.365  51.632 -51.920  1.00  0.00     0.009 A 
HETATM   20  C   UNL     1     -39.214  51.136 -53.212  1.00  0.00     0.001 A 
HETATM   21  C   UNL     1     -39.823  51.791 -54.274  1.00  0.00     0.002 A 
HETATM   22  C   UNL     1     -40.587  52.939 -54.043  1.00  0.00     0.030 A 
ENDBRANCH  13  16
ENDBRANCH   1  12
BRANCH   2  23
HETATM   23  C   UNL     1     -43.643  57.726 -54.629  1.00  0.00    -0.028 A 
HETATM   24  C   UNL     1     -45.035  57.915 -54.587  1.00  0.00     0.010 A 
HETATM   25  C   UNL     1     -45.764  58.121 -55.760  1.00  0.00     0.008 A 
HETATM   26  C   UNL     1     -45.125  58.150 -57.005  1.00  0.00    -0.055 A 
HETATM   27  C   UNL     1     -43.736  57.963 -57.047  1.00  0.00     0.008 A 
HETATM   28  C   UNL     1     -43.003  57.753 -55.875  1.00  0.00     0.010 A 
BRANCH  26  29
HETATM   29  C   UNL     1     -45.942  58.387 -58.262  1.00  0.00     0.010 C 
HETATM   30  C   UNL     1     -45.936  57.168 -59.189  1.00  0.00     0.015 C 
HETATM   31  C   UNL     1     -47.374  58.806 -57.920  1.00  0.00     0.015 C 
ENDBRANCH  26  29
ENDBRANCH   2  23
BRANCH   7  32
HETATM   32  C   UNL     1     -42.663  62.101 -51.680  1.00  0.00     0.085 C 
BRANCH  32  33
HETATM   33  C   UNL     1     -43.106  62.682 -50.337  1.00  0.00     0.034 C 
BRANCH  33  34
HETATM   34  C   UNL     1     -44.444  63.409 -50.416  1.00  0.00     0.164 C 
BRANCH  34  35
HETATM   35  O   UNL     1     -45.508  62.466 -50.343  1.00  0.00    -0.401 OA
HETATM   36  H   UNL     1     -45.643  62.107 -51.236  1.00  0.00     0.209 HD
ENDBRANCH  34  35
ENDBRANCH  33  34
ENDBRANCH  32  33
ENDBRANCH   7  32
TORSDOF 8
ENDMDL
MODEL 8
REMARK VINA RESULT:      -7.7      3.366      4.819
REMARK  8 active torsions:
REMARK  status: ('A' for Active; 'I' for Inactive)
REMARK    1  A    between atoms: C_3  and  N_4 
REMARK       I    between atoms: N_4  and  C_5 
REMARK    2  A    between atoms: C_5  and  C_6 
REMARK    3  A    between atoms: C_7  and  C_8 
REMARK    4  A    between atoms: C_11  and  C_12 
REMARK    5  A    between atoms: C_21  and  C_22 
REMARK    6  A    between atoms: C_22  and  C_23 
REMARK    7  A    between atoms: C_23  and  C_24 
REMARK    8  A    between atoms: C_24  and  O_25 
ROOT
HETATM    1  C   UNL     1     -43.777  59.683 -53.297  1.00  0.00     0.062 C 
HETATM    2  C   UNL     1     -44.170  59.136 -51.934  1.00  0.00     0.202 C 
HETATM    3  N   UNL     1     -44.240  60.214 -50.944  1.00  0.00    -0.083 N 
HETATM    4  C   UNL     1     -43.703  61.458 -51.133  1.00  0.00     0.726 A 
HETATM    5  N   UNL     1     -43.158  61.765 -52.329  1.00  0.00    -0.192 N 
HETATM    6  N   UNL     1     -44.806  60.097 -49.726  1.00  0.00    -0.140 NA
HETATM    7  C   UNL     1     -44.515  61.296 -49.203  1.00  0.00     0.166 A 
HETATM    8  N   UNL     1     -43.846  62.162 -50.039  1.00  0.00    -0.046 NA
HETATM    9  C   UNL     1     -43.294  60.942 -53.445  1.00  0.00     0.037 C 
HETATM   10  C   UNL     1     -42.904  61.554 -54.767  1.00  0.00     0.070 C 
HETATM   11  H   UNL     1     -42.884  62.731 -52.495  1.00  0.00     0.184 HD
ENDROOT
BRANCH   1  12
HETATM   12  C   UNL     1     -44.165  58.881 -54.483  1.00  0.00     0.256 C 
HETATM   13  N   UNL     1     -43.118  58.199 -55.061  1.00  0.00    -0.323 N 
HETATM   14  H   UNL     1     -42.212  58.283 -54.619  1.00  0.00     0.169 HD
HETATM   15  O   UNL     1     -45.340  58.885 -54.829  1.00  0.00    -0.267 OA
BRANCH  13  16
HETATM   16  C   UNL     1     -43.165  57.367 -56.210  1.00  0.00     0.041 A 
HETATM   17  C   UNL     1     -42.958  55.978 -56.060  1.00  0.00    -0.035 A 
HETATM   18  C   UNL     1     -42.733  55.328 -54.722  1.00  0.00     0.050 C 
HETATM   19  C   UNL     1     -43.013  55.144 -57.194  1.00  0.00     0.009 A 
HETATM   20  C   UNL     1     -43.250  55.671 -58.460  1.00  0.00     0.001 A 
HETATM   21  C   UNL     1     -43.442  57.037 -58.610  1.00  0.00     0.002 A 
HETATM   22  C   UNL     1     -43.401  57.877 -57.493  1.00  0.00     0.030 A 
ENDBRANCH  13  16
ENDBRANCH   1  12
BRANCH   2  23
HETATM   23  C   UNL     1     -43.200  58.065 -51.434  1.00  0.00    -0.028 A 
HETATM   24  C   UNL     1     -41.844  58.354 -51.208  1.00  0.00     0.010 A 
HETATM   25  C   UNL     1     -40.971  57.369 -50.741  1.00  0.00     0.008 A 
HETATM   26  C   UNL     1     -41.428  56.071 -50.482  1.00  0.00    -0.055 A 
HETATM   27  C   UNL     1     -42.781  55.783 -50.707  1.00  0.00     0.008 A 
HETATM   28  C   UNL     1     -43.657  56.766 -51.177  1.00  0.00     0.010 A 
BRANCH  26  29
HETATM   29  C   UNL     1     -40.458  55.025 -49.964  1.00  0.00     0.010 C 
HETATM   30  C   UNL     1     -40.844  54.524 -48.570  1.00  0.00     0.015 C 
HETATM   31  C   UNL     1     -40.325  53.859 -50.947  1.00  0.00     0.015 C 
ENDBRANCH  26  29
ENDBRANCH   2  23
BRANCH   7  32
HETATM   32  C   UNL     1     -44.843  61.655 -47.801  1.00  0.00     0.085 C 
BRANCH  32  33
HETATM   33  C   UNL     1     -45.658  62.944 -47.690  1.00  0.00     0.034 C 
BRANCH  33  34
HETATM   34  C   UNL     1     -47.104  62.773 -48.144  1.00  0.00     0.164 C 
BRANCH  34  35
HETATM   35  O   UNL     1     -47.842  62.073 -47.149  1.00  0.00    -0.401 OA
HETATM   36  H   UNL     1     -47.204  61.704 -46.516  1.00  0.00     0.209 HD
ENDBRANCH  34  35
ENDBRANCH  33  34
ENDBRANCH  32  33
ENDBRANCH   7  32
TORSDOF 8
ENDMDL
MODEL 9
REMARK VINA RESULT:      -7.6      2.698      6.472
REMARK  8 active torsions:
REMARK  status: ('A' for Active; 'I' for Inactive)
REMARK    1  A    between atoms: C_3  and  N_4 
REMARK       I    between atoms: N_4  and  C_5 
REMARK    2  A    between atoms: C_5  and  C_6 
REMARK    3  A    between atoms: C_7  and  C_8 
REMARK    4  A    between atoms: C_11  and  C_12 
REMARK    5  A    between atoms: C_21  and  C_22 
REMARK    6  A    between atoms: C_22  and  C_23 
REMARK    7  A    between atoms: C_23  and  C_24 
REMARK    8  A    between atoms: C_24  and  O_25 
ROOT
HETATM    1  C   UNL     1     -42.960  58.123 -56.685  1.00  0.00     0.062 C 
HETATM    2  C   UNL     1     -42.059  57.855 -55.490  1.00  0.00     0.202 C 
HETATM    3  N   UNL     1     -41.858  56.414 -55.305  1.00  0.00    -0.083 N 
HETATM    4  C   UNL     1     -42.633  55.455 -55.898  1.00  0.00     0.726 A 
HETATM    5  N   UNL     1     -43.579  55.829 -56.784  1.00  0.00    -0.192 N 
HETATM    6  N   UNL     1     -40.917  55.870 -54.508  1.00  0.00    -0.140 NA
HETATM    7  C   UNL     1     -41.224  54.570 -54.617  1.00  0.00     0.166 A 
HETATM    8  N   UNL     1     -42.267  54.275 -55.467  1.00  0.00    -0.046 NA
HETATM    9  C   UNL     1     -43.673  57.130 -57.274  1.00  0.00     0.037 C 
HETATM   10  C   UNL     1     -44.569  57.322 -58.472  1.00  0.00     0.070 C 
HETATM   11  H   UNL     1     -44.054  55.100 -57.312  1.00  0.00     0.184 HD
ENDROOT
BRANCH   1  12
HETATM   12  C   UNL     1     -42.845  59.453 -57.330  1.00  0.00     0.256 C 
HETATM   13  N   UNL     1     -41.755  59.577 -58.163  1.00  0.00    -0.323 N 
HETATM   14  H   UNL     1     -41.167  58.762 -58.277  1.00  0.00     0.169 HD
HETATM   15  O   UNL     1     -43.700  60.295 -57.083  1.00  0.00    -0.267 OA
BRANCH  13  16
HETATM   16  C   UNL     1     -41.365  60.723 -58.903  1.00  0.00     0.041 A 
HETATM   17  C   UNL     1     -41.694  60.798 -60.275  1.00  0.00    -0.035 A 
HETATM   18  C   UNL     1     -42.484  59.731 -60.983  1.00  0.00     0.050 C 
HETATM   19  C   UNL     1     -41.320  61.937 -61.014  1.00  0.00     0.009 A 
HETATM   20  C   UNL     1     -40.616  62.980 -60.418  1.00  0.00     0.001 A 
HETATM   21  C   UNL     1     -40.282  62.901 -59.072  1.00  0.00     0.002 A 
HETATM   22  C   UNL     1     -40.656  61.782 -58.323  1.00  0.00     0.030 A 
ENDBRANCH  13  16
ENDBRANCH   1  12
BRANCH   2  23
HETATM   23  C   UNL     1     -42.615  58.448 -54.196  1.00  0.00    -0.028 A 
HETATM   24  C   UNL     1     -41.802  59.189 -53.321  1.00  0.00     0.010 A 
HETATM   25  C   UNL     1     -42.327  59.734 -52.146  1.00  0.00     0.008 A 
HETATM   26  C   UNL     1     -43.676  59.561 -51.817  1.00  0.00    -0.055 A 
HETATM   27  C   UNL     1     -44.487  58.823 -52.689  1.00  0.00     0.008 A 
HETATM   28  C   UNL     1     -43.965  58.272 -53.864  1.00  0.00     0.010 A 
BRANCH  26  29
HETATM   29  C   UNL     1     -44.219  60.175 -50.539  1.00  0.00     0.010 C 
HETATM   30  C   UNL     1     -43.527  61.498 -50.199  1.00  0.00     0.015 C 
HETATM   31  C   UNL     1     -45.737  60.354 -50.614  1.00  0.00     0.015 C 
ENDBRANCH  26  29
ENDBRANCH   2  23
BRANCH   7  32
HETATM   32  C   UNL     1     -40.527  53.518 -53.835  1.00  0.00     0.085 C 
BRANCH  32  33
HETATM   33  C   UNL     1     -40.830  52.105 -54.334  1.00  0.00     0.034 C 
BRANCH  33  34
HETATM   34  C   UNL     1     -39.759  51.093 -53.941  1.00  0.00     0.164 C 
BRANCH  34  35
HETATM   35  O   UNL     1     -40.151  49.791 -54.362  1.00  0.00    -0.401 OA
HETATM   36  H   UNL     1     -39.340  49.287 -54.548  1.00  0.00     0.209 HD
ENDBRANCH  34  35
ENDBRANCH  33  34
ENDBRANCH  32  33
ENDBRANCH   7  32
TORSDOF 8
ENDMDL
MODEL 10
REMARK VINA RESULT:      -7.3      2.194      6.851
REMARK  8 active torsions:
REMARK  status: ('A' for Active; 'I' for Inactive)
REMARK    1  A    between atoms: C_3  and  N_4 
REMARK       I    between atoms: N_4  and  C_5 
REMARK    2  A    between atoms: C_5  and  C_6 
REMARK    3  A    between atoms: C_7  and  C_8 
REMARK    4  A    between atoms: C_11  and  C_12 
REMARK    5  A    between atoms: C_21  and  C_22 
REMARK    6  A    between atoms: C_22  and  C_23 
REMARK    7  A    between atoms: C_23  and  C_24 
REMARK    8  A    between atoms: C_24  and  O_25 
ROOT
HETATM    1  C   UNL     1     -41.890  55.915 -53.808  1.00  0.00     0.062 C 
HETATM    2  C   UNL     1     -41.674  57.104 -54.731  1.00  0.00     0.202 C 
HETATM    3  N   UNL     1     -42.225  58.326 -54.138  1.00  0.00    -0.083 N 
HETATM    4  C   UNL     1     -43.099  58.336 -53.085  1.00  0.00     0.726 A 
HETATM    5  N   UNL     1     -43.409  57.171 -52.478  1.00  0.00    -0.192 N 
HETATM    6  N   UNL     1     -41.967  59.573 -54.580  1.00  0.00    -0.140 NA
HETATM    7  C   UNL     1     -42.774  60.289 -53.785  1.00  0.00     0.166 A 
HETATM    8  N   UNL     1     -43.479  59.565 -52.849  1.00  0.00    -0.046 NA
HETATM    9  C   UNL     1     -42.730  55.985 -52.744  1.00  0.00     0.037 C 
HETATM   10  C   UNL     1     -42.976  54.852 -51.779  1.00  0.00     0.070 C 
HETATM   11  H   UNL     1     -43.953  57.211 -51.618  1.00  0.00     0.184 HD
ENDROOT
BRANCH   1  12
HETATM   12  C   UNL     1     -40.973  54.761 -53.970  1.00  0.00     0.256 C 
HETATM   13  N   UNL     1     -41.406  53.613 -53.345  1.00  0.00    -0.323 N 
HETATM   14  H   UNL     1     -42.299  53.654 -52.871  1.00  0.00     0.169 HD
HETATM   15  O   UNL     1     -39.951  54.918 -54.627  1.00  0.00    -0.267 OA
BRANCH  13  16
HETATM   16  C   UNL     1     -40.746  52.358 -53.302  1.00  0.00     0.041 A 
HETATM   17  C   UNL     1     -40.029  51.998 -52.138  1.00  0.00    -0.035 A 
HETATM   18  C   UNL     1     -39.972  52.873 -50.915  1.00  0.00     0.050 C 
HETATM   19  C   UNL     1     -39.380  50.750 -52.083  1.00  0.00     0.009 A 
HETATM   20  C   UNL     1     -39.418  49.874 -53.165  1.00  0.00     0.001 A 
HETATM   21  C   UNL     1     -40.112  50.231 -54.313  1.00  0.00     0.002 A 
HETATM   22  C   UNL     1     -40.771  51.463 -54.378  1.00  0.00     0.030 A 
ENDBRANCH  13  16
ENDBRANCH   1  12
BRANCH   2  23
HETATM   23  C   UNL     1     -42.301  56.894 -56.109  1.00  0.00    -0.028 A 
HETATM   24  C   UNL     1     -42.276  57.903 -57.086  1.00  0.00     0.010 A 
HETATM   25  C   UNL     1     -42.844  57.694 -58.345  1.00  0.00     0.008 A 
HETATM   26  C   UNL     1     -43.446  56.471 -58.665  1.00  0.00    -0.055 A 
HETATM   27  C   UNL     1     -43.471  55.464 -57.691  1.00  0.00     0.008 A 
HETATM   28  C   UNL     1     -42.906  55.671 -56.428  1.00  0.00     0.010 A 
BRANCH  26  29
HETATM   29  C   UNL     1     -44.045  56.270 -60.045  1.00  0.00     0.010 C 
HETATM   30  C   UNL     1     -44.468  54.817 -60.281  1.00  0.00     0.015 C 
HETATM   31  C   UNL     1     -45.215  57.226 -60.286  1.00  0.00     0.015 C 
ENDBRANCH  26  29
ENDBRANCH   2  23
BRANCH   7  32
HETATM   32  C   UNL     1     -42.942  61.756 -53.932  1.00  0.00     0.085 C 
BRANCH  32  33
HETATM   33  C   UNL     1     -44.004  62.332 -52.995  1.00  0.00     0.034 C 
BRANCH  33  34
HETATM   34  C   UNL     1     -43.410  63.152 -51.854  1.00  0.00     0.164 C 
BRANCH  34  35
HETATM   35  O   UNL     1     -43.334  62.355 -50.677  1.00  0.00    -0.401 OA
HETATM   36  H   UNL     1     -43.930  62.748 -50.018  1.00  0.00     0.209 HD
ENDBRANCH  34  35
ENDBRANCH  33  34
ENDBRANCH  32  33
ENDBRANCH   7  32
TORSDOF 8
ENDMDL
