MODEL 1
REMARK VINA RESULT:      -8.6      0.000      0.000
REMARK  8 active torsions:
REMARK  status: ('A' for Active; 'I' for Inactive)
REMARK    1  A    between atoms: C_5  and  C_6 
REMARK    2  A    between atoms: C_8  and  C_9 
REMARK    3  A    between atoms: C_9  and  C_10 
REMARK    4  A    between atoms: C_10  and  C_11 
REMARK       I    between atoms: C_11  and  N_12 
REMARK    5  A    between atoms: N_12  and  N_13 
REMARK       I    between atoms: N_13  and  C_14 
REMARK    6  A    between atoms: C_14  and  C_15 
REMARK    7  A    between atoms: C_15  and  O_16 
REMARK    8  A    between atoms: O_16  and  C_17 
ROOT
HETATM    1  C   UNL     1     -44.149  57.423 -53.461  1.00  0.00     0.236 C 
HETATM    2  N   UNL     1     -43.854  56.174 -53.966  1.00  0.00    -0.267 N 
HETATM    3  O   UNL     1     -44.561  58.348 -54.159  1.00  0.00    -0.272 OA
HETATM    4  H   UNL     1     -43.263  55.511 -53.467  1.00  0.00     0.190 HD
ENDROOT
BRANCH   1   5
HETATM    5  C   UNL     1     -43.956  57.546 -51.964  1.00  0.00     0.112 C 
BRANCH   5   6
HETATM    6  C   UNL     1     -42.491  57.806 -51.627  1.00  0.00     0.096 C 
BRANCH   6   7
HETATM    7  C   UNL     1     -41.819  56.574 -51.137  1.00  0.00     0.146 A 
HETATM    8  O   UNL     1     -41.649  55.578 -52.053  1.00  0.00    -0.294 OA
HETATM    9  C   UNL     1     -40.946  54.609 -51.391  1.00  0.00     0.105 A 
HETATM   10  C   UNL     1     -40.765  55.061 -50.101  1.00  0.00     0.157 A 
HETATM   11  N   UNL     1     -41.310  56.316 -49.951  1.00  0.00    -0.238 NA
BRANCH   9  12
HETATM   12  C   UNL     1     -40.569  53.434 -52.163  1.00  0.00    -0.001 A 
HETATM   13  C   UNL     1     -39.778  52.422 -51.596  1.00  0.00     0.015 A 
HETATM   14  C   UNL     1     -39.440  51.276 -52.323  1.00  0.00     0.007 A 
HETATM   15  C   UNL     1     -39.874  51.124 -53.642  1.00  0.00    -0.062 A 
HETATM   16  C   UNL     1     -39.540  49.887 -54.423  1.00  0.00     0.048 C 
HETATM   17  C   UNL     1     -40.665  52.126 -54.215  1.00  0.00     0.007 A 
HETATM   18  C   UNL     1     -41.006  53.270 -53.484  1.00  0.00     0.015 A 
ENDBRANCH   9  12
ENDBRANCH   6   7
ENDBRANCH   5   6
ENDBRANCH   1   5
BRANCH   2  19
HETATM   19  N   UNL     1     -43.961  55.980 -55.346  1.00  0.00    -0.266 N 
HETATM   20  C   UNL     1     -42.801  55.859 -56.086  1.00  0.00     0.260 C 
HETATM   21  O   UNL     1     -41.684  55.806 -55.572  1.00  0.00    -0.269 OA
HETATM   22  H   UNL     1     -44.846  56.237 -55.781  1.00  0.00     0.190 HD
BRANCH  20  23
HETATM   23  C   UNL     1     -43.028  55.856 -57.592  1.00  0.00     0.280 C 
BRANCH  23  24
HETATM   24  O   UNL     1     -43.763  57.021 -57.958  1.00  0.00    -0.342 OA
BRANCH  24  25
HETATM   25  C   UNL     1     -44.749  56.840 -58.887  1.00  0.00     0.069 A 
HETATM   26  C   UNL     1     -44.750  55.868 -59.886  1.00  0.00     0.037 A 
HETATM   27  C   UNL     1     -45.813  55.792 -60.792  1.00  0.00     0.009 A 
HETATM   28  C   UNL     1     -46.880  56.696 -60.718  1.00  0.00    -0.062 A 
HETATM   29  C   UNL     1     -48.036  56.599 -61.669  1.00  0.00     0.048 C 
HETATM   30  C   UNL     1     -46.875  57.668 -59.712  1.00  0.00     0.009 A 
HETATM   31  C   UNL     1     -45.810  57.745 -58.811  1.00  0.00     0.037 A 
ENDBRANCH  24  25
ENDBRANCH  23  24
ENDBRANCH  20  23
ENDBRANCH   2  19
TORSDOF 8
ENDMDL
MODEL 2
REMARK VINA RESULT:      -8.5      1.741      2.433
REMARK  8 active torsions:
REMARK  status: ('A' for Active; 'I' for Inactive)
REMARK    1  A    between atoms: C_5  and  C_6 
REMARK    2  A    between atoms: C_8  and  C_9 
REMARK    3  A    between atoms: C_9  and  C_10 
REMARK    4  A    between atoms: C_10  and  C_11 
REMARK       I    between atoms: C_11  and  N_12 
REMARK    5  A    between atoms: N_12  and  N_13 
REMARK       I    between atoms: N_13  and  C_14 
REMARK    6  A    between atoms: C_14  and  C_15 
REMARK    7  A    between atoms: C_15  and  O_16 
REMARK    8  A    between atoms: O_16  and  C_17 
ROOT
HETATM    1  C   UNL     1     -40.541  58.600 -52.469  1.00  0.00     0.236 C 
HETATM    2  N   UNL     1     -41.611  58.020 -53.117  1.00  0.00    -0.267 N 
HETATM    3  O   UNL     1     -39.650  59.209 -53.057  1.00  0.00    -0.272 OA
HETATM    4  H   UNL     1     -42.182  57.296 -52.685  1.00  0.00     0.190 HD
ENDROOT
BRANCH   1   5
HETATM    5  C   UNL     1     -40.577  58.451 -50.962  1.00  0.00     0.112 C 
BRANCH   5   6
HETATM    6  C   UNL     1     -41.755  57.581 -50.532  1.00  0.00     0.096 C 
BRANCH   6   7
HETATM    7  C   UNL     1     -41.324  56.189 -50.240  1.00  0.00     0.146 A 
HETATM    8  O   UNL     1     -41.176  55.367 -51.318  1.00  0.00    -0.294 OA
HETATM    9  C   UNL     1     -40.702  54.193 -50.801  1.00  0.00     0.105 A 
HETATM   10  C   UNL     1     -40.627  54.362 -49.435  1.00  0.00     0.157 A 
HETATM   11  N   UNL     1     -41.011  55.637 -49.086  1.00  0.00    -0.238 NA
BRANCH   9  12
HETATM   12  C   UNL     1     -40.392  53.137 -51.755  1.00  0.00    -0.001 A 
HETATM   13  C   UNL     1     -39.841  51.918 -51.330  1.00  0.00     0.015 A 
HETATM   14  C   UNL     1     -39.572  50.891 -52.238  1.00  0.00     0.007 A 
HETATM   15  C   UNL     1     -39.836  51.065 -53.599  1.00  0.00    -0.062 A 
HETATM   16  C   UNL     1     -39.576  49.959 -54.579  1.00  0.00     0.048 C 
HETATM   17  C   UNL     1     -40.388  52.275 -54.033  1.00  0.00     0.007 A 
HETATM   18  C   UNL     1     -40.660  53.301 -53.121  1.00  0.00     0.015 A 
ENDBRANCH   9  12
ENDBRANCH   6   7
ENDBRANCH   5   6
ENDBRANCH   1   5
BRANCH   2  19
HETATM   19  N   UNL     1     -41.639  58.070 -54.513  1.00  0.00    -0.266 N 
HETATM   20  C   UNL     1     -42.530  58.931 -55.124  1.00  0.00     0.260 C 
HETATM   21  O   UNL     1     -43.221  59.731 -54.495  1.00  0.00    -0.269 OA
HETATM   22  H   UNL     1     -41.238  57.276 -55.012  1.00  0.00     0.190 HD
BRANCH  20  23
HETATM   23  C   UNL     1     -42.618  58.757 -56.634  1.00  0.00     0.280 C 
BRANCH  23  24
HETATM   24  O   UNL     1     -42.214  57.435 -56.979  1.00  0.00    -0.342 OA
BRANCH  24  25
HETATM   25  C   UNL     1     -42.930  56.829 -57.974  1.00  0.00     0.069 A 
HETATM   26  C   UNL     1     -43.123  55.455 -58.109  1.00  0.00     0.037 A 
HETATM   27  C   UNL     1     -43.863  54.951 -59.184  1.00  0.00     0.009 A 
HETATM   28  C   UNL     1     -44.407  55.814 -60.142  1.00  0.00    -0.062 A 
HETATM   29  C   UNL     1     -45.227  55.280 -61.279  1.00  0.00     0.048 C 
HETATM   30  C   UNL     1     -44.213  57.192 -60.000  1.00  0.00     0.009 A 
HETATM   31  C   UNL     1     -43.469  57.693 -58.929  1.00  0.00     0.037 A 
ENDBRANCH  24  25
ENDBRANCH  23  24
ENDBRANCH  20  23
ENDBRANCH   2  19
TORSDOF 8
ENDMDL
MODEL 3
REMARK VINA RESULT:      -8.3      5.314      9.511
REMARK  8 active torsions:
REMARK  status: ('A' for Active; 'I' for Inactive)
REMARK    1  A    between atoms: C_5  and  C_6 
REMARK    2  A    between atoms: C_8  and  C_9 
REMARK    3  A    between atoms: C_9  and  C_10 
REMARK    4  A    between atoms: C_10  and  C_11 
REMARK       I    between atoms: C_11  and  N_12 
REMARK    5  A    between atoms: N_12  and  N_13 
REMARK       I    between atoms: N_13  and  C_14 
REMARK    6  A    between atoms: C_14  and  C_15 
REMARK    7  A    between atoms: C_15  and  O_16 
REMARK    8  A    between atoms: O_16  and  C_17 
ROOT
HETATM    1  C   UNL     1     -45.199  58.672 -50.767  1.00  0.00     0.236 C 
HETATM    2  N   UNL     1     -44.518  59.699 -50.149  1.00  0.00    -0.267 N 
HETATM    3  O   UNL     1     -46.380  58.417 -50.538  1.00  0.00    -0.272 OA
HETATM    4  H   UNL     1     -43.500  59.737 -50.120  1.00  0.00     0.190 HD
ENDROOT
BRANCH   1   5
HETATM    5  C   UNL     1     -44.375  57.906 -51.781  1.00  0.00     0.112 C 
BRANCH   5   6
HETATM    6  C   UNL     1     -43.062  57.432 -51.164  1.00  0.00     0.096 C 
BRANCH   6   7
HETATM    7  C   UNL     1     -42.163  56.838 -52.187  1.00  0.00     0.146 A 
HETATM    8  O   UNL     1     -41.838  55.525 -52.012  1.00  0.00    -0.294 OA
HETATM    9  C   UNL     1     -41.087  55.201 -53.108  1.00  0.00     0.105 A 
HETATM   10  C   UNL     1     -40.970  56.348 -53.863  1.00  0.00     0.157 A 
HETATM   11  N   UNL     1     -41.667  57.382 -53.279  1.00  0.00    -0.238 NA
BRANCH   9  12
HETATM   12  C   UNL     1     -40.647  53.817 -53.212  1.00  0.00    -0.001 A 
HETATM   13  C   UNL     1     -40.186  53.119 -52.084  1.00  0.00     0.015 A 
HETATM   14  C   UNL     1     -39.793  51.781 -52.173  1.00  0.00     0.007 A 
HETATM   15  C   UNL     1     -39.838  51.112 -53.399  1.00  0.00    -0.062 A 
HETATM   16  C   UNL     1     -39.444  49.668 -53.501  1.00  0.00     0.048 C 
HETATM   17  C   UNL     1     -40.298  51.798 -54.528  1.00  0.00     0.007 A 
HETATM   18  C   UNL     1     -40.695  53.137 -54.436  1.00  0.00     0.015 A 
ENDBRANCH   9  12
ENDBRANCH   6   7
ENDBRANCH   5   6
ENDBRANCH   1   5
BRANCH   2  19
HETATM   19  N   UNL     1     -45.186  60.434 -49.166  1.00  0.00    -0.266 N 
HETATM   20  C   UNL     1     -45.543  61.738 -49.446  1.00  0.00     0.260 C 
HETATM   21  O   UNL     1     -45.395  62.246 -50.558  1.00  0.00    -0.269 OA
HETATM   22  H   UNL     1     -45.112  60.096 -48.207  1.00  0.00     0.190 HD
BRANCH  20  23
HETATM   23  C   UNL     1     -46.079  62.503 -48.243  1.00  0.00     0.280 C 
BRANCH  23  24
HETATM   24  O   UNL     1     -46.140  61.628 -47.121  1.00  0.00    -0.342 OA
BRANCH  24  25
HETATM   25  C   UNL     1     -45.499  62.057 -45.991  1.00  0.00     0.069 A 
HETATM   26  C   UNL     1     -45.510  63.362 -45.502  1.00  0.00     0.037 A 
HETATM   27  C   UNL     1     -44.800  63.684 -44.341  1.00  0.00     0.009 A 
HETATM   28  C   UNL     1     -44.061  62.708 -43.663  1.00  0.00    -0.062 A 
HETATM   29  C   UNL     1     -43.322  63.042 -42.401  1.00  0.00     0.048 C 
HETATM   30  C   UNL     1     -44.055  61.399 -44.156  1.00  0.00     0.009 A 
HETATM   31  C   UNL     1     -44.762  61.080 -45.320  1.00  0.00     0.037 A 
ENDBRANCH  24  25
ENDBRANCH  23  24
ENDBRANCH  20  23
ENDBRANCH   2  19
TORSDOF 8
ENDMDL
MODEL 4
REMARK VINA RESULT:      -8.2      2.528      3.096
REMARK  8 active torsions:
REMARK  status: ('A' for Active; 'I' for Inactive)
REMARK    1  A    between atoms: C_5  and  C_6 
REMARK    2  A    between atoms: C_8  and  C_9 
REMARK    3  A    between atoms: C_9  and  C_10 
REMARK    4  A    between atoms: C_10  and  C_11 
REMARK       I    between atoms: C_11  and  N_12 
REMARK    5  A    between atoms: N_12  and  N_13 
REMARK       I    between atoms: N_13  and  C_14 
REMARK    6  A    between atoms: C_14  and  C_15 
REMARK    7  A    between atoms: C_15  and  O_16 
REMARK    8  A    between atoms: O_16  and  C_17 
ROOT
HETATM    1  C   UNL     1     -41.153  58.546 -52.901  1.00  0.00     0.236 C 
HETATM    2  N   UNL     1     -42.060  57.680 -53.474  1.00  0.00    -0.267 N 
HETATM    3  O   UNL     1     -40.527  59.384 -53.546  1.00  0.00    -0.272 OA
HETATM    4  H   UNL     1     -42.361  56.823 -53.011  1.00  0.00     0.190 HD
ENDROOT
BRANCH   1   5
HETATM    5  C   UNL     1     -41.021  58.399 -51.399  1.00  0.00     0.112 C 
BRANCH   5   6
HETATM    6  C   UNL     1     -42.122  57.499 -50.845  1.00  0.00     0.096 C 
BRANCH   6   7
HETATM    7  C   UNL     1     -41.600  56.150 -50.503  1.00  0.00     0.146 A 
HETATM    8  O   UNL     1     -41.426  55.291 -51.548  1.00  0.00    -0.294 OA
HETATM    9  C   UNL     1     -40.869  54.172 -50.992  1.00  0.00     0.105 A 
HETATM   10  C   UNL     1     -40.774  54.407 -49.637  1.00  0.00     0.157 A 
HETATM   11  N   UNL     1     -41.229  55.671 -49.334  1.00  0.00    -0.238 NA
BRANCH   9  12
HETATM   12  C   UNL     1     -40.516  53.096 -51.906  1.00  0.00    -0.001 A 
HETATM   13  C   UNL     1     -39.812  51.968 -51.456  1.00  0.00     0.015 A 
HETATM   14  C   UNL     1     -39.499  50.917 -52.323  1.00  0.00     0.007 A 
HETATM   15  C   UNL     1     -39.871  50.978 -53.668  1.00  0.00    -0.062 A 
HETATM   16  C   UNL     1     -39.564  49.845 -54.602  1.00  0.00     0.048 C 
HETATM   17  C   UNL     1     -40.576  52.097 -54.126  1.00  0.00     0.007 A 
HETATM   18  C   UNL     1     -40.892  53.145 -53.255  1.00  0.00     0.015 A 
ENDBRANCH   9  12
ENDBRANCH   6   7
ENDBRANCH   5   6
ENDBRANCH   1   5
BRANCH   2  19
HETATM   19  N   UNL     1     -42.215  57.713 -54.862  1.00  0.00    -0.266 N 
HETATM   20  C   UNL     1     -43.453  57.410 -55.394  1.00  0.00     0.260 C 
HETATM   21  O   UNL     1     -44.449  57.217 -54.698  1.00  0.00    -0.269 OA
HETATM   22  H   UNL     1     -41.366  57.659 -55.423  1.00  0.00     0.190 HD
BRANCH  20  23
HETATM   23  C   UNL     1     -43.457  57.279 -56.911  1.00  0.00     0.280 C 
BRANCH  23  24
HETATM   24  O   UNL     1     -42.146  57.534 -57.407  1.00  0.00    -0.342 OA
BRANCH  24  25
HETATM   25  C   UNL     1     -42.062  58.400 -58.463  1.00  0.00     0.069 A 
HETATM   26  C   UNL     1     -42.118  58.040 -59.809  1.00  0.00     0.037 A 
HETATM   27  C   UNL     1     -42.004  59.018 -60.803  1.00  0.00     0.009 A 
HETATM   28  C   UNL     1     -41.821  60.363 -60.463  1.00  0.00    -0.062 A 
HETATM   29  C   UNL     1     -41.729  61.418 -61.526  1.00  0.00     0.048 C 
HETATM   30  C   UNL     1     -41.770  60.719 -59.111  1.00  0.00     0.009 A 
HETATM   31  C   UNL     1     -41.878  59.740 -58.120  1.00  0.00     0.037 A 
ENDBRANCH  24  25
ENDBRANCH  23  24
ENDBRANCH  20  23
ENDBRANCH   2  19
TORSDOF 8
ENDMDL
MODEL 5
REMARK VINA RESULT:      -7.9      2.199      7.485
REMARK  8 active torsions:
REMARK  status: ('A' for Active; 'I' for Inactive)
REMARK    1  A    between atoms: C_5  and  C_6 
REMARK    2  A    between atoms: C_8  and  C_9 
REMARK    3  A    between atoms: C_9  and  C_10 
REMARK    4  A    between atoms: C_10  and  C_11 
REMARK       I    between atoms: C_11  and  N_12 
REMARK    5  A    between atoms: N_12  and  N_13 
REMARK       I    between atoms: N_13  and  C_14 
REMARK    6  A    between atoms: C_14  and  C_15 
REMARK    7  A    between atoms: C_15  and  O_16 
REMARK    8  A    between atoms: O_16  and  C_17 
ROOT
HETATM    1  C   UNL     1     -41.620  58.972 -51.286  1.00  0.00     0.236 C 
HETATM    2  N   UNL     1     -42.383  58.113 -50.523  1.00  0.00    -0.267 N 
HETATM    3  O   UNL     1     -40.615  58.614 -51.896  1.00  0.00    -0.272 OA
HETATM    4  H   UNL     1     -43.029  58.446 -49.810  1.00  0.00     0.190 HD
ENDROOT
BRANCH   1   5
HETATM    5  C   UNL     1     -42.150  60.390 -51.335  1.00  0.00     0.112 C 
BRANCH   5   6
HETATM    6  C   UNL     1     -42.508  60.784 -52.766  1.00  0.00     0.096 C 
BRANCH   6   7
HETATM    7  C   UNL     1     -43.474  59.829 -53.367  1.00  0.00     0.146 A 
HETATM    8  O   UNL     1     -43.122  59.300 -54.574  1.00  0.00    -0.294 OA
HETATM    9  C   UNL     1     -44.115  58.406 -54.868  1.00  0.00     0.105 A 
HETATM   10  C   UNL     1     -45.028  58.474 -53.837  1.00  0.00     0.157 A 
HETATM   11  N   UNL     1     -44.608  59.370 -52.881  1.00  0.00    -0.238 NA
BRANCH   9  12
HETATM   12  C   UNL     1     -43.962  57.640 -56.096  1.00  0.00    -0.001 A 
HETATM   13  C   UNL     1     -44.646  58.007 -57.266  1.00  0.00     0.015 A 
HETATM   14  C   UNL     1     -44.477  57.293 -58.456  1.00  0.00     0.007 A 
HETATM   15  C   UNL     1     -43.629  56.184 -58.499  1.00  0.00    -0.062 A 
HETATM   16  C   UNL     1     -43.420  55.426 -59.777  1.00  0.00     0.048 C 
HETATM   17  C   UNL     1     -42.940  55.811 -57.339  1.00  0.00     0.007 A 
HETATM   18  C   UNL     1     -43.108  56.530 -56.150  1.00  0.00     0.015 A 
ENDBRANCH   9  12
ENDBRANCH   6   7
ENDBRANCH   5   6
ENDBRANCH   1   5
BRANCH   2  19
HETATM   19  N   UNL     1     -41.945  56.793 -50.384  1.00  0.00    -0.266 N 
HETATM   20  C   UNL     1     -42.597  55.804 -51.095  1.00  0.00     0.260 C 
HETATM   21  O   UNL     1     -43.472  56.047 -51.925  1.00  0.00    -0.269 OA
HETATM   22  H   UNL     1     -41.387  56.576 -49.559  1.00  0.00     0.190 HD
BRANCH  20  23
HETATM   23  C   UNL     1     -42.175  54.391 -50.716  1.00  0.00     0.280 C 
BRANCH  23  24
HETATM   24  O   UNL     1     -40.802  54.207 -51.048  1.00  0.00    -0.342 OA
BRANCH  24  25
HETATM   25  C   UNL     1     -40.534  53.236 -51.973  1.00  0.00     0.069 A 
HETATM   26  C   UNL     1     -40.915  53.271 -53.313  1.00  0.00     0.037 A 
HETATM   27  C   UNL     1     -40.596  52.205 -54.163  1.00  0.00     0.009 A 
HETATM   28  C   UNL     1     -39.905  51.089 -53.678  1.00  0.00    -0.062 A 
HETATM   29  C   UNL     1     -39.535  49.958 -54.592  1.00  0.00     0.048 C 
HETATM   30  C   UNL     1     -39.523  51.061 -52.332  1.00  0.00     0.009 A 
HETATM   31  C   UNL     1     -39.847  52.123 -51.485  1.00  0.00     0.037 A 
ENDBRANCH  24  25
ENDBRANCH  23  24
ENDBRANCH  20  23
ENDBRANCH   2  19
TORSDOF 8
ENDMDL
MODEL 6
REMARK VINA RESULT:      -7.7     15.259     18.314
REMARK  8 active torsions:
REMARK  status: ('A' for Active; 'I' for Inactive)
REMARK    1  A    between atoms: C_5  and  C_6 
REMARK    2  A    between atoms: C_8  and  C_9 
REMARK    3  A    between atoms: C_9  and  C_10 
REMARK    4  A    between atoms: C_10  and  C_11 
REMARK       I    between atoms: C_11  and  N_12 
REMARK    5  A    between atoms: N_12  and  N_13 
REMARK       I    between atoms: N_13  and  C_14 
REMARK    6  A    between atoms: C_14  and  C_15 
REMARK    7  A    between atoms: C_15  and  O_16 
REMARK    8  A    between atoms: O_16  and  C_17 
ROOT
HETATM    1  C   UNL     1     -32.551  40.327 -54.031  1.00  0.00     0.236 C 
HETATM    2  N   UNL     1     -33.816  40.808 -53.765  1.00  0.00    -0.267 N 
HETATM    3  O   UNL     1     -31.992  40.472 -55.116  1.00  0.00    -0.272 OA
HETATM    4  H   UNL     1     -34.380  40.457 -52.993  1.00  0.00     0.190 HD
ENDROOT
BRANCH   1   5
HETATM    5  C   UNL     1     -31.893  39.634 -52.855  1.00  0.00     0.112 C 
BRANCH   5   6
HETATM    6  C   UNL     1     -31.858  40.552 -51.636  1.00  0.00     0.096 C 
BRANCH   6   7
HETATM    7  C   UNL     1     -32.164  39.809 -50.387  1.00  0.00     0.146 A 
HETATM    8  O   UNL     1     -31.321  40.027 -49.337  1.00  0.00    -0.294 OA
HETATM    9  C   UNL     1     -31.856  39.308 -48.303  1.00  0.00     0.105 A 
HETATM   10  C   UNL     1     -32.970  38.667 -48.800  1.00  0.00     0.157 A 
HETATM   11  N   UNL     1     -33.168  39.000 -50.121  1.00  0.00    -0.238 NA
BRANCH   9  12
HETATM   12  C   UNL     1     -31.178  39.409 -47.018  1.00  0.00    -0.001 A 
HETATM   13  C   UNL     1     -31.272  38.379 -46.070  1.00  0.00     0.015 A 
HETATM   14  C   UNL     1     -30.597  38.458 -44.848  1.00  0.00     0.007 A 
HETATM   15  C   UNL     1     -29.822  39.579 -44.541  1.00  0.00    -0.062 A 
HETATM   16  C   UNL     1     -29.073  39.663 -43.244  1.00  0.00     0.048 C 
HETATM   17  C   UNL     1     -29.721  40.611 -45.481  1.00  0.00     0.007 A 
HETATM   18  C   UNL     1     -30.394  40.528 -46.705  1.00  0.00     0.015 A 
ENDBRANCH   9  12
ENDBRANCH   6   7
ENDBRANCH   5   6
ENDBRANCH   1   5
BRANCH   2  19
HETATM   19  N   UNL     1     -34.517  41.424 -54.805  1.00  0.00    -0.266 N 
HETATM   20  C   UNL     1     -35.607  42.210 -54.490  1.00  0.00     0.260 C 
HETATM   21  O   UNL     1     -35.923  42.478 -53.331  1.00  0.00    -0.269 OA
HETATM   22  H   UNL     1     -34.392  41.036 -55.740  1.00  0.00     0.190 HD
BRANCH  20  23
HETATM   23  C   UNL     1     -36.413  42.662 -55.701  1.00  0.00     0.280 C 
BRANCH  23  24
HETATM   24  O   UNL     1     -37.501  41.765 -55.902  1.00  0.00    -0.342 OA
BRANCH  24  25
HETATM   25  C   UNL     1     -37.572  41.176 -57.134  1.00  0.00     0.069 A 
HETATM   26  C   UNL     1     -38.021  39.880 -57.384  1.00  0.00     0.037 A 
HETATM   27  C   UNL     1     -38.032  39.380 -58.691  1.00  0.00     0.009 A 
HETATM   28  C   UNL     1     -37.582  40.165 -59.759  1.00  0.00    -0.062 A 
HETATM   29  C   UNL     1     -37.620  39.643 -61.165  1.00  0.00     0.048 C 
HETATM   30  C   UNL     1     -37.135  41.465 -59.502  1.00  0.00     0.009 A 
HETATM   31  C   UNL     1     -37.120  41.961 -58.196  1.00  0.00     0.037 A 
ENDBRANCH  24  25
ENDBRANCH  23  24
ENDBRANCH  20  23
ENDBRANCH   2  19
TORSDOF 8
ENDMDL
MODEL 7
REMARK VINA RESULT:      -7.6     15.744     18.013
REMARK  8 active torsions:
REMARK  status: ('A' for Active; 'I' for Inactive)
REMARK    1  A    between atoms: C_5  and  C_6 
REMARK    2  A    between atoms: C_8  and  C_9 
REMARK    3  A    between atoms: C_9  and  C_10 
REMARK    4  A    between atoms: C_10  and  C_11 
REMARK       I    between atoms: C_11  and  N_12 
REMARK    5  A    between atoms: N_12  and  N_13 
REMARK       I    between atoms: N_13  and  C_14 
REMARK    6  A    between atoms: C_14  and  C_15 
REMARK    7  A    between atoms: C_15  and  O_16 
REMARK    8  A    between atoms: O_16  and  C_17 
ROOT
HETATM    1  C   UNL     1     -32.651  39.635 -52.620  1.00  0.00     0.236 C 
HETATM    2  N   UNL     1     -32.539  40.026 -53.937  1.00  0.00    -0.267 N 
HETATM    3  O   UNL     1     -32.759  38.460 -52.276  1.00  0.00    -0.272 OA
HETATM    4  H   UNL     1     -32.730  40.979 -54.240  1.00  0.00     0.190 HD
ENDROOT
BRANCH   1   5
HETATM    5  C   UNL     1     -32.594  40.779 -51.629  1.00  0.00     0.112 C 
BRANCH   5   6
HETATM    6  C   UNL     1     -33.808  40.756 -50.704  1.00  0.00     0.096 C 
BRANCH   6   7
HETATM    7  C   UNL     1     -35.078  40.824 -51.473  1.00  0.00     0.146 A 
HETATM    8  O   UNL     1     -34.967  41.178 -52.785  1.00  0.00    -0.294 OA
HETATM    9  C   UNL     1     -36.239  41.088 -53.282  1.00  0.00     0.105 A 
HETATM   10  C   UNL     1     -37.050  40.719 -52.230  1.00  0.00     0.157 A 
HETATM   11  N   UNL     1     -36.304  40.540 -51.086  1.00  0.00    -0.238 NA
BRANCH   9  12
HETATM   12  C   UNL     1     -36.406  41.359 -54.702  1.00  0.00    -0.001 A 
HETATM   13  C   UNL     1     -37.678  41.341 -55.295  1.00  0.00     0.015 A 
HETATM   14  C   UNL     1     -37.847  41.633 -56.652  1.00  0.00     0.007 A 
HETATM   15  C   UNL     1     -36.742  41.936 -57.452  1.00  0.00    -0.062 A 
HETATM   16  C   UNL     1     -36.915  42.276 -58.902  1.00  0.00     0.048 C 
HETATM   17  C   UNL     1     -35.470  41.959 -56.869  1.00  0.00     0.007 A 
HETATM   18  C   UNL     1     -35.304  41.671 -55.509  1.00  0.00     0.015 A 
ENDBRANCH   9  12
ENDBRANCH   6   7
ENDBRANCH   5   6
ENDBRANCH   1   5
BRANCH   2  19
HETATM   19  N   UNL     1     -32.626  39.041 -54.925  1.00  0.00    -0.266 N 
HETATM   20  C   UNL     1     -32.382  39.399 -56.236  1.00  0.00     0.260 C 
HETATM   21  O   UNL     1     -31.987  40.519 -56.559  1.00  0.00    -0.269 OA
HETATM   22  H   UNL     1     -33.149  38.198 -54.691  1.00  0.00     0.190 HD
BRANCH  20  23
HETATM   23  C   UNL     1     -32.701  38.303 -57.244  1.00  0.00     0.280 C 
BRANCH  23  24
HETATM   24  O   UNL     1     -33.821  37.553 -56.783  1.00  0.00    -0.342 OA
BRANCH  24  25
HETATM   25  C   UNL     1     -35.030  37.883 -57.330  1.00  0.00     0.069 A 
HETATM   26  C   UNL     1     -36.257  37.827 -56.670  1.00  0.00     0.037 A 
HETATM   27  C   UNL     1     -37.433  38.175 -57.343  1.00  0.00     0.009 A 
HETATM   28  C   UNL     1     -37.397  38.570 -58.685  1.00  0.00    -0.062 A 
HETATM   29  C   UNL     1     -38.652  38.973 -59.400  1.00  0.00     0.048 C 
HETATM   30  C   UNL     1     -36.163  38.628 -59.341  1.00  0.00     0.009 A 
HETATM   31  C   UNL     1     -34.990  38.274 -58.669  1.00  0.00     0.037 A 
ENDBRANCH  24  25
ENDBRANCH  23  24
ENDBRANCH  20  23
ENDBRANCH   2  19
TORSDOF 8
ENDMDL
MODEL 8
REMARK VINA RESULT:      -7.6      3.041      5.920
REMARK  8 active torsions:
REMARK  status: ('A' for Active; 'I' for Inactive)
REMARK    1  A    between atoms: C_5  and  C_6 
REMARK    2  A    between atoms: C_8  and  C_9 
REMARK    3  A    between atoms: C_9  and  C_10 
REMARK    4  A    between atoms: C_10  and  C_11 
REMARK       I    between atoms: C_11  and  N_12 
REMARK    5  A    between atoms: N_12  and  N_13 
REMARK       I    between atoms: N_13  and  C_14 
REMARK    6  A    between atoms: C_14  and  C_15 
REMARK    7  A    between atoms: C_15  and  O_16 
REMARK    8  A    between atoms: O_16  and  C_17 
ROOT
HETATM    1  C   UNL     1     -40.764  55.172 -49.447  1.00  0.00     0.236 C 
HETATM    2  N   UNL     1     -41.100  55.938 -50.543  1.00  0.00    -0.267 N 
HETATM    3  O   UNL     1     -41.384  55.209 -48.386  1.00  0.00    -0.272 OA
HETATM    4  H   UNL     1     -40.446  56.119 -51.302  1.00  0.00     0.190 HD
ENDROOT
BRANCH   1   5
HETATM    5  C   UNL     1     -39.582  54.252 -49.675  1.00  0.00     0.112 C 
BRANCH   5   6
HETATM    6  C   UNL     1     -40.051  52.857 -50.076  1.00  0.00     0.096 C 
BRANCH   6   7
HETATM    7  C   UNL     1     -40.172  52.726 -51.552  1.00  0.00     0.146 A 
HETATM    8  O   UNL     1     -40.945  53.661 -52.176  1.00  0.00    -0.294 OA
HETATM    9  C   UNL     1     -40.829  53.379 -53.509  1.00  0.00     0.105 A 
HETATM   10  C   UNL     1     -40.021  52.266 -53.610  1.00  0.00     0.157 A 
HETATM   11  N   UNL     1     -39.596  51.865 -52.364  1.00  0.00    -0.238 NA
BRANCH   9  12
HETATM   12  C   UNL     1     -41.518  54.273 -54.429  1.00  0.00    -0.001 A 
HETATM   13  C   UNL     1     -41.204  55.640 -54.476  1.00  0.00     0.015 A 
HETATM   14  C   UNL     1     -41.841  56.496 -55.380  1.00  0.00     0.007 A 
HETATM   15  C   UNL     1     -42.819  56.005 -56.248  1.00  0.00    -0.062 A 
HETATM   16  C   UNL     1     -43.489  56.909 -57.240  1.00  0.00     0.048 C 
HETATM   17  C   UNL     1     -43.136  54.643 -56.210  1.00  0.00     0.007 A 
HETATM   18  C   UNL     1     -42.494  53.787 -55.308  1.00  0.00     0.015 A 
ENDBRANCH   9  12
ENDBRANCH   6   7
ENDBRANCH   5   6
ENDBRANCH   1   5
BRANCH   2  19
HETATM   19  N   UNL     1     -42.152  56.848 -50.411  1.00  0.00    -0.266 N 
HETATM   20  C   UNL     1     -43.321  56.611 -51.106  1.00  0.00     0.260 C 
HETATM   21  O   UNL     1     -43.516  55.581 -51.751  1.00  0.00    -0.269 OA
HETATM   22  H   UNL     1     -41.917  57.779 -50.066  1.00  0.00     0.190 HD
BRANCH  20  23
HETATM   23  C   UNL     1     -44.317  57.762 -51.051  1.00  0.00     0.280 C 
BRANCH  23  24
HETATM   24  O   UNL     1     -43.619  58.993 -51.215  1.00  0.00    -0.342 OA
BRANCH  24  25
HETATM   25  C   UNL     1     -43.290  59.329 -52.499  1.00  0.00     0.069 A 
HETATM   26  C   UNL     1     -42.015  59.679 -52.940  1.00  0.00     0.037 A 
HETATM   27  C   UNL     1     -41.804  60.021 -54.281  1.00  0.00     0.009 A 
HETATM   28  C   UNL     1     -42.868  60.029 -55.190  1.00  0.00    -0.062 A 
HETATM   29  C   UNL     1     -42.640  60.365 -56.634  1.00  0.00     0.048 C 
HETATM   30  C   UNL     1     -44.145  59.674 -54.742  1.00  0.00     0.009 A 
HETATM   31  C   UNL     1     -44.354  59.338 -53.402  1.00  0.00     0.037 A 
ENDBRANCH  24  25
ENDBRANCH  23  24
ENDBRANCH  20  23
ENDBRANCH   2  19
TORSDOF 8
ENDMDL
MODEL 9
REMARK VINA RESULT:      -7.6      1.977      7.414
REMARK  8 active torsions:
REMARK  status: ('A' for Active; 'I' for Inactive)
REMARK    1  A    between atoms: C_5  and  C_6 
REMARK    2  A    between atoms: C_8  and  C_9 
REMARK    3  A    between atoms: C_9  and  C_10 
REMARK    4  A    between atoms: C_10  and  C_11 
REMARK       I    between atoms: C_11  and  N_12 
REMARK    5  A    between atoms: N_12  and  N_13 
REMARK       I    between atoms: N_13  and  C_14 
REMARK    6  A    between atoms: C_14  and  C_15 
REMARK    7  A    between atoms: C_15  and  O_16 
REMARK    8  A    between atoms: O_16  and  C_17 
ROOT
HETATM    1  C   UNL     1     -44.619  58.296 -51.187  1.00  0.00     0.236 C 
HETATM    2  N   UNL     1     -43.346  58.108 -51.683  1.00  0.00    -0.267 N 
HETATM    3  O   UNL     1     -45.272  57.399 -50.657  1.00  0.00    -0.272 OA
HETATM    4  H   UNL     1     -42.924  58.746 -52.355  1.00  0.00     0.190 HD
ENDROOT
BRANCH   1   5
HETATM    5  C   UNL     1     -45.131  59.715 -51.321  1.00  0.00     0.112 C 
BRANCH   5   6
HETATM    6  C   UNL     1     -45.686  59.960 -52.722  1.00  0.00     0.096 C 
BRANCH   6   7
HETATM    7  C   UNL     1     -44.641  59.768 -53.762  1.00  0.00     0.146 A 
HETATM    8  O   UNL     1     -44.850  58.746 -54.640  1.00  0.00    -0.294 OA
HETATM    9  C   UNL     1     -43.814  58.831 -55.529  1.00  0.00     0.105 A 
HETATM   10  C   UNL     1     -43.018  59.877 -55.112  1.00  0.00     0.157 A 
HETATM   11  N   UNL     1     -43.557  60.477 -53.997  1.00  0.00    -0.238 NA
BRANCH   9  12
HETATM   12  C   UNL     1     -43.818  57.879 -56.630  1.00  0.00    -0.001 A 
HETATM   13  C   UNL     1     -43.045  56.708 -56.576  1.00  0.00     0.015 A 
HETATM   14  C   UNL     1     -43.071  55.776 -57.617  1.00  0.00     0.007 A 
HETATM   15  C   UNL     1     -43.862  56.001 -58.747  1.00  0.00    -0.062 A 
HETATM   16  C   UNL     1     -43.918  54.995 -59.858  1.00  0.00     0.048 C 
HETATM   17  C   UNL     1     -44.638  57.164 -58.809  1.00  0.00     0.007 A 
HETATM   18  C   UNL     1     -44.614  58.094 -57.763  1.00  0.00     0.015 A 
ENDBRANCH   9  12
ENDBRANCH   6   7
ENDBRANCH   5   6
ENDBRANCH   1   5
BRANCH   2  19
HETATM   19  N   UNL     1     -42.809  56.819 -51.642  1.00  0.00    -0.266 N 
HETATM   20  C   UNL     1     -41.699  56.593 -50.852  1.00  0.00     0.260 C 
HETATM   21  O   UNL     1     -41.229  57.448 -50.101  1.00  0.00    -0.269 OA
HETATM   22  H   UNL     1     -43.056  56.191 -52.406  1.00  0.00     0.190 HD
BRANCH  20  23
HETATM   23  C   UNL     1     -41.079  55.214 -51.039  1.00  0.00     0.280 C 
BRANCH  23  24
HETATM   24  O   UNL     1     -40.979  54.930 -52.431  1.00  0.00    -0.342 OA
BRANCH  24  25
HETATM   25  C   UNL     1     -40.586  53.662 -52.758  1.00  0.00     0.069 A 
HETATM   26  C   UNL     1     -39.971  52.759 -51.891  1.00  0.00     0.037 A 
HETATM   27  C   UNL     1     -39.598  51.490 -52.348  1.00  0.00     0.009 A 
HETATM   28  C   UNL     1     -39.823  51.116 -53.677  1.00  0.00    -0.062 A 
HETATM   29  C   UNL     1     -39.451  49.745 -54.163  1.00  0.00     0.048 C 
HETATM   30  C   UNL     1     -40.442  52.025 -54.541  1.00  0.00     0.009 A 
HETATM   31  C   UNL     1     -40.810  53.293 -54.085  1.00  0.00     0.037 A 
ENDBRANCH  24  25
ENDBRANCH  23  24
ENDBRANCH  20  23
ENDBRANCH   2  19
TORSDOF 8
ENDMDL
MODEL 10
REMARK VINA RESULT:      -7.4      2.594      3.336
REMARK  8 active torsions:
REMARK  status: ('A' for Active; 'I' for Inactive)
REMARK    1  A    between atoms: C_5  and  C_6 
REMARK    2  A    between atoms: C_8  and  C_9 
REMARK    3  A    between atoms: C_9  and  C_10 
REMARK    4  A    between atoms: C_10  and  C_11 
REMARK       I    between atoms: C_11  and  N_12 
REMARK    5  A    between atoms: N_12  and  N_13 
REMARK       I    between atoms: N_13  and  C_14 
REMARK    6  A    between atoms: C_14  and  C_15 
REMARK    7  A    between atoms: C_15  and  O_16 
REMARK    8  A    between atoms: O_16  and  C_17 
ROOT
HETATM    1  C   UNL     1     -42.352  59.788 -54.556  1.00  0.00     0.236 C 
HETATM    2  N   UNL     1     -42.011  59.225 -55.767  1.00  0.00    -0.267 N 
HETATM    3  O   UNL     1     -43.279  60.585 -54.424  1.00  0.00    -0.272 OA
HETATM    4  H   UNL     1     -41.100  58.801 -55.933  1.00  0.00     0.190 HD
ENDROOT
BRANCH   1   5
HETATM    5  C   UNL     1     -41.506  59.313 -53.393  1.00  0.00     0.112 C 
BRANCH   5   6
HETATM    6  C   UNL     1     -42.095  58.048 -52.776  1.00  0.00     0.096 C 
BRANCH   6   7
HETATM    7  C   UNL     1     -41.555  56.824 -53.423  1.00  0.00     0.146 A 
HETATM    8  O   UNL     1     -41.229  55.797 -52.587  1.00  0.00    -0.294 OA
HETATM    9  C   UNL     1     -40.844  54.779 -53.417  1.00  0.00     0.105 A 
HETATM   10  C   UNL     1     -40.924  55.265 -54.704  1.00  0.00     0.157 A 
HETATM   11  N   UNL     1     -41.389  56.561 -54.702  1.00  0.00    -0.238 NA
BRANCH   9  12
HETATM   12  C   UNL     1     -40.492  53.518 -52.782  1.00  0.00    -0.001 A 
HETATM   13  C   UNL     1     -40.043  52.427 -53.543  1.00  0.00     0.015 A 
HETATM   14  C   UNL     1     -39.674  51.224 -52.935  1.00  0.00     0.007 A 
HETATM   15  C   UNL     1     -39.761  51.079 -51.548  1.00  0.00    -0.062 A 
HETATM   16  C   UNL     1     -39.343  49.801 -50.882  1.00  0.00     0.048 C 
HETATM   17  C   UNL     1     -40.206  52.161 -50.780  1.00  0.00     0.007 A 
HETATM   18  C   UNL     1     -40.570  53.366 -51.391  1.00  0.00     0.015 A 
ENDBRANCH   9  12
ENDBRANCH   6   7
ENDBRANCH   5   6
ENDBRANCH   1   5
BRANCH   2  19
HETATM   19  N   UNL     1     -42.710  59.637 -56.904  1.00  0.00    -0.266 N 
HETATM   20  C   UNL     1     -42.049  60.406 -57.842  1.00  0.00     0.260 C 
HETATM   21  O   UNL     1     -40.845  60.652 -57.772  1.00  0.00    -0.269 OA
HETATM   22  H   UNL     1     -43.728  59.619 -56.853  1.00  0.00     0.190 HD
BRANCH  20  23
HETATM   23  C   UNL     1     -42.954  60.966 -58.930  1.00  0.00     0.280 C 
BRANCH  23  24
HETATM   24  O   UNL     1     -42.730  60.250 -60.141  1.00  0.00    -0.342 OA
BRANCH  24  25
HETATM   25  C   UNL     1     -43.024  58.915 -60.111  1.00  0.00     0.069 A 
HETATM   26  C   UNL     1     -42.088  57.883 -60.063  1.00  0.00     0.037 A 
HETATM   27  C   UNL     1     -42.513  56.550 -60.053  1.00  0.00     0.009 A 
HETATM   28  C   UNL     1     -43.875  56.234 -60.104  1.00  0.00    -0.062 A 
HETATM   29  C   UNL     1     -44.335  54.807 -60.064  1.00  0.00     0.048 C 
HETATM   30  C   UNL     1     -44.810  57.274 -60.149  1.00  0.00     0.009 A 
HETATM   31  C   UNL     1     -44.384  58.605 -60.164  1.00  0.00     0.037 A 
ENDBRANCH  24  25
ENDBRANCH  23  24
ENDBRANCH  20  23
ENDBRANCH   2  19
TORSDOF 8
ENDMDL
