MODEL 1
REMARK VINA RESULT:      -8.8      0.000      0.000
REMARK  6 active torsions:
REMARK  status: ('A' for Active; 'I' for Inactive)
REMARK    1  A    between atoms: C_2  and  C_3 
REMARK    2  A    between atoms: C_3  and  C_4 
REMARK    3  A    between atoms: C_3  and  C_10 
REMARK    4  A    between atoms: C_10  and  C_11 
REMARK       I    between atoms: C_11  and  N_12 
REMARK    5  A    between atoms: N_12  and  C_13 
REMARK    6  A    between atoms: C_20  and  C_21 
REMARK       I    between atoms: C_21  and  N_22 
ROOT
HETATM    1  C   UNL     1     -42.591  56.646 -56.838  1.00  0.00     0.035 A 
HETATM    2  C   UNL     1     -43.217  55.926 -57.864  1.00  0.00     0.046 A 
HETATM    3  C   UNL     1     -43.979  56.618 -58.834  1.00  0.00     0.030 A 
HETATM    4  C   UNL     1     -44.101  57.998 -58.732  1.00  0.00     0.063 A 
HETATM    5  N   UNL     1     -44.890  58.373 -59.782  1.00  0.00    -0.277 N 
HETATM    6  H   UNL     1     -45.195  59.311 -60.017  1.00  0.00     0.189 HD
HETATM    7  N   UNL     1     -45.280  57.361 -60.574  1.00  0.00    -0.168 NA
HETATM    8  C   UNL     1     -44.723  56.269 -60.003  1.00  0.00     0.156 A 
HETATM    9  C   UNL     1     -43.494  58.745 -57.723  1.00  0.00     0.034 A 
HETATM   10  C   UNL     1     -42.731  58.041 -56.784  1.00  0.00     0.032 A 
ENDROOT
BRANCH   1  11
HETATM   11  N   UNL     1     -41.797  56.058 -55.831  1.00  0.00    -0.327 N 
HETATM   12  C   UNL     1     -42.044  56.014 -54.472  1.00  0.00     0.222 C 
HETATM   13  O   UNL     1     -43.034  56.462 -53.901  1.00  0.00    -0.273 OA
HETATM   14  H   UNL     1     -40.921  55.670 -56.147  1.00  0.00     0.169 HD
BRANCH  12  15
HETATM   15  C   UNL     1     -40.989  55.253 -53.672  1.00  0.00     0.113 C 
BRANCH  15  16
HETATM   16  C   UNL     1     -41.524  54.107 -52.787  1.00  0.00     0.030 C 
BRANCH  16  17
HETATM   17  C   UNL     1     -41.631  54.472 -51.273  1.00  0.00    -0.014 C 
HETATM   18  C   UNL     1     -43.092  54.455 -50.802  1.00  0.00     0.010 C 
HETATM   19  C   UNL     1     -40.997  55.813 -50.888  1.00  0.00     0.010 C 
ENDBRANCH  16  17
BRANCH  16  20
HETATM   20  C   UNL     1     -40.795  52.783 -52.991  1.00  0.00    -0.053 A 
HETATM   21  C   UNL     1     -40.811  52.096 -54.212  1.00  0.00     0.007 A 
HETATM   22  C   UNL     1     -40.133  50.883 -54.357  1.00  0.00     0.001 A 
HETATM   23  C   UNL     1     -39.437  50.336 -53.283  1.00  0.00     0.000 A 
HETATM   24  C   UNL     1     -39.411  51.004 -52.063  1.00  0.00     0.001 A 
HETATM   25  C   UNL     1     -40.080  52.221 -51.919  1.00  0.00     0.007 A 
ENDBRANCH  16  20
ENDBRANCH  15  16
ENDBRANCH  12  15
ENDBRANCH   1  11
BRANCH   8  26
HETATM   26  C   UNL     1     -44.904  54.933 -60.589  1.00  0.00     0.270 C 
HETATM   27  N   UNL     1     -45.091  53.941 -59.665  1.00  0.00    -0.365 N 
HETATM   28  H   UNL     1     -45.105  54.190 -58.683  1.00  0.00     0.159 HD
HETATM   29  H   UNL     1     -45.245  52.995 -59.973  1.00  0.00     0.159 HD
HETATM   30  O   UNL     1     -44.903  54.689 -61.790  1.00  0.00    -0.266 OA
ENDBRANCH   8  26
TORSDOF 6
ENDMDL
MODEL 2
REMARK VINA RESULT:      -8.5      1.919      3.564
REMARK  6 active torsions:
REMARK  status: ('A' for Active; 'I' for Inactive)
REMARK    1  A    between atoms: C_2  and  C_3 
REMARK    2  A    between atoms: C_3  and  C_4 
REMARK    3  A    between atoms: C_3  and  C_10 
REMARK    4  A    between atoms: C_10  and  C_11 
REMARK       I    between atoms: C_11  and  N_12 
REMARK    5  A    between atoms: N_12  and  C_13 
REMARK    6  A    between atoms: C_20  and  C_21 
REMARK       I    between atoms: C_21  and  N_22 
ROOT
HETATM    1  C   UNL     1     -42.864  55.349 -55.489  1.00  0.00     0.035 A 
HETATM    2  C   UNL     1     -42.741  55.558 -56.869  1.00  0.00     0.046 A 
HETATM    3  C   UNL     1     -43.206  56.767 -57.434  1.00  0.00     0.030 A 
HETATM    4  C   UNL     1     -43.791  57.715 -56.603  1.00  0.00     0.063 A 
HETATM    5  N   UNL     1     -44.145  58.749 -57.422  1.00  0.00    -0.277 N 
HETATM    6  H   UNL     1     -44.605  59.612 -57.157  1.00  0.00     0.189 HD
HETATM    7  N   UNL     1     -43.825  58.571 -58.714  1.00  0.00    -0.168 NA
HETATM    8  C   UNL     1     -43.242  57.351 -58.737  1.00  0.00     0.156 A 
HETATM    9  C   UNL     1     -43.933  57.539 -55.227  1.00  0.00     0.034 A 
HETATM   10  C   UNL     1     -43.449  56.341 -54.688  1.00  0.00     0.032 A 
ENDROOT
BRANCH   1  11
HETATM   11  N   UNL     1     -42.420  54.188 -54.822  1.00  0.00    -0.327 N 
HETATM   12  C   UNL     1     -41.122  53.736 -54.676  1.00  0.00     0.222 C 
HETATM   13  O   UNL     1     -40.109  54.296 -55.086  1.00  0.00    -0.273 OA
HETATM   14  H   UNL     1     -43.152  53.599 -54.454  1.00  0.00     0.169 HD
BRANCH  12  15
HETATM   15  C   UNL     1     -40.998  52.456 -53.851  1.00  0.00     0.113 C 
BRANCH  15  16
HETATM   16  C   UNL     1     -39.944  52.492 -52.724  1.00  0.00     0.030 C 
BRANCH  16  17
HETATM   17  C   UNL     1     -39.399  51.085 -52.322  1.00  0.00    -0.014 C 
HETATM   18  C   UNL     1     -39.694  50.046 -53.412  1.00  0.00     0.010 C 
HETATM   19  C   UNL     1     -39.908  50.558 -50.977  1.00  0.00     0.010 C 
ENDBRANCH  16  17
BRANCH  16  20
HETATM   20  C   UNL     1     -40.381  53.291 -51.501  1.00  0.00    -0.053 A 
HETATM   21  C   UNL     1     -39.473  53.739 -50.532  1.00  0.00     0.007 A 
HETATM   22  C   UNL     1     -39.914  54.466 -49.423  1.00  0.00     0.001 A 
HETATM   23  C   UNL     1     -41.267  54.750 -49.264  1.00  0.00     0.000 A 
HETATM   24  C   UNL     1     -42.182  54.314 -50.216  1.00  0.00     0.001 A 
HETATM   25  C   UNL     1     -41.743  53.595 -51.330  1.00  0.00     0.007 A 
ENDBRANCH  16  20
ENDBRANCH  15  16
ENDBRANCH  12  15
ENDBRANCH   1  11
BRANCH   8  26
HETATM   26  C   UNL     1     -42.727  56.783 -59.992  1.00  0.00     0.270 C 
HETATM   27  N   UNL     1     -41.402  57.046 -60.219  1.00  0.00    -0.365 N 
HETATM   28  H   UNL     1     -40.890  57.579 -59.528  1.00  0.00     0.159 HD
HETATM   29  H   UNL     1     -40.956  56.680 -61.044  1.00  0.00     0.159 HD
HETATM   30  O   UNL     1     -43.387  56.122 -60.785  1.00  0.00    -0.266 OA
ENDBRANCH   8  26
TORSDOF 6
ENDMDL
MODEL 3
REMARK VINA RESULT:      -8.4      1.595      2.094
REMARK  6 active torsions:
REMARK  status: ('A' for Active; 'I' for Inactive)
REMARK    1  A    between atoms: C_2  and  C_3 
REMARK    2  A    between atoms: C_3  and  C_4 
REMARK    3  A    between atoms: C_3  and  C_10 
REMARK    4  A    between atoms: C_10  and  C_11 
REMARK       I    between atoms: C_11  and  N_12 
REMARK    5  A    between atoms: N_12  and  C_13 
REMARK    6  A    between atoms: C_20  and  C_21 
REMARK       I    between atoms: C_21  and  N_22 
ROOT
HETATM    1  C   UNL     1     -43.333  56.856 -55.127  1.00  0.00     0.035 A 
HETATM    2  C   UNL     1     -43.028  56.594 -56.469  1.00  0.00     0.046 A 
HETATM    3  C   UNL     1     -43.767  57.237 -57.488  1.00  0.00     0.030 A 
HETATM    4  C   UNL     1     -44.792  58.103 -57.130  1.00  0.00     0.063 A 
HETATM    5  N   UNL     1     -45.320  58.552 -58.307  1.00  0.00    -0.277 N 
HETATM    6  H   UNL     1     -46.093  59.196 -58.427  1.00  0.00     0.189 HD
HETATM    7  N   UNL     1     -44.717  58.071 -59.406  1.00  0.00    -0.168 NA
HETATM    8  C   UNL     1     -43.753  57.258 -58.917  1.00  0.00     0.156 A 
HETATM    9  C   UNL     1     -45.125  58.385 -55.805  1.00  0.00     0.034 A 
HETATM   10  C   UNL     1     -44.369  57.749 -54.813  1.00  0.00     0.032 A 
ENDROOT
BRANCH   1  11
HETATM   11  N   UNL     1     -42.650  56.281 -54.035  1.00  0.00    -0.327 N 
HETATM   12  C   UNL     1     -41.500  56.736 -53.417  1.00  0.00     0.222 C 
HETATM   13  O   UNL     1     -40.880  57.757 -53.702  1.00  0.00    -0.273 OA
HETATM   14  H   UNL     1     -43.028  55.406 -53.705  1.00  0.00     0.169 HD
BRANCH  12  15
HETATM   15  C   UNL     1     -41.056  55.888 -52.227  1.00  0.00     0.113 C 
BRANCH  15  16
HETATM   16  C   UNL     1     -41.785  54.537 -52.066  1.00  0.00     0.030 C 
BRANCH  16  17
HETATM   17  C   UNL     1     -42.341  54.286 -50.629  1.00  0.00    -0.014 C 
HETATM   18  C   UNL     1     -43.849  54.563 -50.564  1.00  0.00     0.010 C 
HETATM   19  C   UNL     1     -41.639  55.075 -49.520  1.00  0.00     0.010 C 
ENDBRANCH  16  17
BRANCH  16  20
HETATM   20  C   UNL     1     -40.982  53.342 -52.570  1.00  0.00    -0.053 A 
HETATM   21  C   UNL     1     -40.135  52.600 -51.736  1.00  0.00     0.007 A 
HETATM   22  C   UNL     1     -39.413  51.514 -52.238  1.00  0.00     0.001 A 
HETATM   23  C   UNL     1     -39.522  51.159 -53.579  1.00  0.00     0.000 A 
HETATM   24  C   UNL     1     -40.358  51.885 -54.421  1.00  0.00     0.001 A 
HETATM   25  C   UNL     1     -41.087  52.965 -53.920  1.00  0.00     0.007 A 
ENDBRANCH  16  20
ENDBRANCH  15  16
ENDBRANCH  12  15
ENDBRANCH   1  11
BRANCH   8  26
HETATM   26  C   UNL     1     -42.843  56.537 -59.819  1.00  0.00     0.270 C 
HETATM   27  N   UNL     1     -41.632  57.151 -59.994  1.00  0.00    -0.365 N 
HETATM   28  H   UNL     1     -41.452  58.016 -59.500  1.00  0.00     0.159 HD
HETATM   29  H   UNL     1     -40.935  56.720 -60.579  1.00  0.00     0.159 HD
HETATM   30  O   UNL     1     -43.102  55.476 -60.375  1.00  0.00    -0.266 OA
ENDBRANCH   8  26
TORSDOF 6
ENDMDL
MODEL 4
REMARK VINA RESULT:      -8.3      1.943      2.832
REMARK  6 active torsions:
REMARK  status: ('A' for Active; 'I' for Inactive)
REMARK    1  A    between atoms: C_2  and  C_3 
REMARK    2  A    between atoms: C_3  and  C_4 
REMARK    3  A    between atoms: C_3  and  C_10 
REMARK    4  A    between atoms: C_10  and  C_11 
REMARK       I    between atoms: C_11  and  N_12 
REMARK    5  A    between atoms: N_12  and  C_13 
REMARK    6  A    between atoms: C_20  and  C_21 
REMARK       I    between atoms: C_21  and  N_22 
ROOT
HETATM    1  C   UNL     1     -43.051  56.399 -57.762  1.00  0.00     0.035 A 
HETATM    2  C   UNL     1     -44.055  57.365 -57.615  1.00  0.00     0.046 A 
HETATM    3  C   UNL     1     -44.879  57.685 -58.718  1.00  0.00     0.030 A 
HETATM    4  C   UNL     1     -44.659  57.041 -59.929  1.00  0.00     0.063 A 
HETATM    5  N   UNL     1     -45.585  57.558 -60.790  1.00  0.00    -0.277 N 
HETATM    6  H   UNL     1     -45.712  57.323 -61.768  1.00  0.00     0.189 HD
HETATM    7  N   UNL     1     -46.405  58.471 -60.244  1.00  0.00    -0.168 NA
HETATM    8  C   UNL     1     -45.983  58.559 -58.962  1.00  0.00     0.156 A 
HETATM    9  C   UNL     1     -43.668  56.078 -60.112  1.00  0.00     0.034 A 
HETATM   10  C   UNL     1     -42.875  55.765 -59.001  1.00  0.00     0.032 A 
ENDROOT
BRANCH   1  11
HETATM   11  N   UNL     1     -42.185  55.995 -56.724  1.00  0.00    -0.327 N 
HETATM   12  C   UNL     1     -42.346  54.940 -55.846  1.00  0.00     0.222 C 
HETATM   13  O   UNL     1     -43.276  54.139 -55.838  1.00  0.00    -0.273 OA
HETATM   14  H   UNL     1     -41.378  56.585 -56.585  1.00  0.00     0.169 HD
BRANCH  12  15
HETATM   15  C   UNL     1     -41.184  54.760 -54.870  1.00  0.00     0.113 C 
BRANCH  15  16
HETATM   16  C   UNL     1     -41.527  54.019 -53.560  1.00  0.00     0.030 C 
BRANCH  16  17
HETATM   17  C   UNL     1     -41.398  54.903 -52.280  1.00  0.00    -0.014 C 
HETATM   18  C   UNL     1     -42.579  54.671 -51.327  1.00  0.00     0.010 C 
HETATM   19  C   UNL     1     -41.258  56.405 -52.547  1.00  0.00     0.010 C 
ENDBRANCH  16  17
BRANCH  16  20
HETATM   20  C   UNL     1     -40.794  52.692 -53.396  1.00  0.00    -0.053 A 
HETATM   21  C   UNL     1     -40.051  52.379 -52.251  1.00  0.00     0.007 A 
HETATM   22  C   UNL     1     -39.390  51.153 -52.141  1.00  0.00     0.001 A 
HETATM   23  C   UNL     1     -39.458  50.225 -53.176  1.00  0.00     0.000 A 
HETATM   24  C   UNL     1     -40.191  50.519 -54.322  1.00  0.00     0.001 A 
HETATM   25  C   UNL     1     -40.859  51.740 -54.429  1.00  0.00     0.007 A 
ENDBRANCH  16  20
ENDBRANCH  15  16
ENDBRANCH  12  15
ENDBRANCH   1  11
BRANCH   8  26
HETATM   26  C   UNL     1     -46.647  59.459 -58.007  1.00  0.00     0.270 C 
HETATM   27  N   UNL     1     -47.766  58.926 -57.427  1.00  0.00    -0.365 N 
HETATM   28  H   UNL     1     -48.039  57.983 -57.676  1.00  0.00     0.159 HD
HETATM   29  H   UNL     1     -48.277  59.461 -56.744  1.00  0.00     0.159 HD
HETATM   30  O   UNL     1     -46.261  60.586 -57.723  1.00  0.00    -0.266 OA
ENDBRANCH   8  26
TORSDOF 6
ENDMDL
MODEL 5
REMARK VINA RESULT:      -8.1      2.885      8.778
REMARK  6 active torsions:
REMARK  status: ('A' for Active; 'I' for Inactive)
REMARK    1  A    between atoms: C_2  and  C_3 
REMARK    2  A    between atoms: C_3  and  C_4 
REMARK    3  A    between atoms: C_3  and  C_10 
REMARK    4  A    between atoms: C_10  and  C_11 
REMARK       I    between atoms: C_11  and  N_12 
REMARK    5  A    between atoms: N_12  and  C_13 
REMARK    6  A    between atoms: C_20  and  C_21 
REMARK       I    between atoms: C_21  and  N_22 
ROOT
HETATM    1  C   UNL     1     -40.973  54.534 -54.352  1.00  0.00     0.035 A 
HETATM    2  C   UNL     1     -41.124  54.571 -52.960  1.00  0.00     0.046 A 
HETATM    3  C   UNL     1     -40.672  53.481 -52.182  1.00  0.00     0.030 A 
HETATM    4  C   UNL     1     -40.102  52.388 -52.824  1.00  0.00     0.063 A 
HETATM    5  N   UNL     1     -39.782  51.508 -51.830  1.00  0.00    -0.277 N 
HETATM    6  H   UNL     1     -39.353  50.595 -51.934  1.00  0.00     0.189 HD
HETATM    7  N   UNL     1     -40.074  51.935 -50.591  1.00  0.00    -0.168 NA
HETATM    8  C   UNL     1     -40.623  53.155 -50.792  1.00  0.00     0.156 A 
HETATM    9  C   UNL     1     -39.939  52.316 -54.207  1.00  0.00     0.034 A 
HETATM   10  C   UNL     1     -40.379  53.415 -54.955  1.00  0.00     0.032 A 
ENDROOT
BRANCH   1  11
HETATM   11  N   UNL     1     -41.375  55.571 -55.219  1.00  0.00    -0.327 N 
HETATM   12  C   UNL     1     -42.459  55.591 -56.076  1.00  0.00     0.222 C 
HETATM   13  O   UNL     1     -43.293  54.699 -56.209  1.00  0.00    -0.273 OA
HETATM   14  H   UNL     1     -40.760  56.371 -55.245  1.00  0.00     0.169 HD
BRANCH  12  15
HETATM   15  C   UNL     1     -42.624  56.902 -56.842  1.00  0.00     0.113 C 
BRANCH  15  16
HETATM   16  C   UNL     1     -42.490  56.796 -58.376  1.00  0.00     0.030 C 
BRANCH  16  17
HETATM   17  C   UNL     1     -41.791  58.025 -59.037  1.00  0.00    -0.014 C 
HETATM   18  C   UNL     1     -42.055  59.308 -58.237  1.00  0.00     0.010 C 
HETATM   19  C   UNL     1     -42.160  58.265 -60.504  1.00  0.00     0.010 C 
ENDBRANCH  16  17
BRANCH  16  20
HETATM   20  C   UNL     1     -43.797  56.451 -59.083  1.00  0.00    -0.053 A 
HETATM   21  C   UNL     1     -43.910  55.371 -59.969  1.00  0.00     0.007 A 
HETATM   22  C   UNL     1     -45.124  55.090 -60.600  1.00  0.00     0.001 A 
HETATM   23  C   UNL     1     -46.240  55.888 -60.361  1.00  0.00     0.000 A 
HETATM   24  C   UNL     1     -46.145  56.965 -59.485  1.00  0.00     0.001 A 
HETATM   25  C   UNL     1     -44.935  57.241 -58.846  1.00  0.00     0.007 A 
ENDBRANCH  16  20
ENDBRANCH  15  16
ENDBRANCH  12  15
ENDBRANCH   1  11
BRANCH   8  26
HETATM   26  C   UNL     1     -41.073  53.977 -49.658  1.00  0.00     0.270 C 
HETATM   27  N   UNL     1     -40.082  54.281 -48.764  1.00  0.00    -0.365 N 
HETATM   28  H   UNL     1     -39.145  53.943 -48.947  1.00  0.00     0.159 HD
HETATM   29  H   UNL     1     -40.291  54.858 -47.966  1.00  0.00     0.159 HD
HETATM   30  O   UNL     1     -42.218  54.381 -49.497  1.00  0.00    -0.266 OA
ENDBRANCH   8  26
TORSDOF 6
ENDMDL
MODEL 6
REMARK VINA RESULT:      -8.0      1.870      2.804
REMARK  6 active torsions:
REMARK  status: ('A' for Active; 'I' for Inactive)
REMARK    1  A    between atoms: C_2  and  C_3 
REMARK    2  A    between atoms: C_3  and  C_4 
REMARK    3  A    between atoms: C_3  and  C_10 
REMARK    4  A    between atoms: C_10  and  C_11 
REMARK       I    between atoms: C_11  and  N_12 
REMARK    5  A    between atoms: N_12  and  C_13 
REMARK    6  A    between atoms: C_20  and  C_21 
REMARK       I    between atoms: C_21  and  N_22 
ROOT
HETATM    1  C   UNL     1     -42.400  56.546 -57.072  1.00  0.00     0.035 A 
HETATM    2  C   UNL     1     -42.348  57.841 -57.605  1.00  0.00     0.046 A 
HETATM    3  C   UNL     1     -43.034  58.126 -58.808  1.00  0.00     0.030 A 
HETATM    4  C   UNL     1     -43.730  57.105 -59.442  1.00  0.00     0.063 A 
HETATM    5  N   UNL     1     -44.267  57.670 -60.563  1.00  0.00    -0.277 N 
HETATM    6  H   UNL     1     -44.835  57.215 -61.269  1.00  0.00     0.189 HD
HETATM    7  N   UNL     1     -44.000  58.978 -60.709  1.00  0.00    -0.168 NA
HETATM    8  C   UNL     1     -43.239  59.275 -59.631  1.00  0.00     0.156 A 
HETATM    9  C   UNL     1     -43.801  55.805 -58.942  1.00  0.00     0.034 A 
HETATM   10  C   UNL     1     -43.128  55.551 -57.740  1.00  0.00     0.032 A 
ENDROOT
BRANCH   1  11
HETATM   11  N   UNL     1     -41.766  56.159 -55.873  1.00  0.00    -0.327 N 
HETATM   12  C   UNL     1     -42.184  56.396 -54.577  1.00  0.00     0.222 C 
HETATM   13  O   UNL     1     -43.216  56.970 -54.241  1.00  0.00    -0.273 OA
HETATM   14  H   UNL     1     -40.876  55.698 -55.988  1.00  0.00     0.169 HD
BRANCH  12  15
HETATM   15  C   UNL     1     -41.273  55.792 -53.509  1.00  0.00     0.113 C 
BRANCH  15  16
HETATM   16  C   UNL     1     -41.840  54.562 -52.770  1.00  0.00     0.030 C 
BRANCH  16  17
HETATM   17  C   UNL     1     -42.124  54.809 -51.255  1.00  0.00    -0.014 C 
HETATM   18  C   UNL     1     -43.572  54.445 -50.898  1.00  0.00     0.010 C 
HETATM   19  C   UNL     1     -41.831  56.231 -50.769  1.00  0.00     0.010 C 
ENDBRANCH  16  17
BRANCH  16  20
HETATM   20  C   UNL     1     -41.029  53.288 -52.985  1.00  0.00    -0.053 A 
HETATM   21  C   UNL     1     -41.069  52.564 -54.184  1.00  0.00     0.007 A 
HETATM   22  C   UNL     1     -40.313  51.400 -54.340  1.00  0.00     0.001 A 
HETATM   23  C   UNL     1     -39.512  50.939 -53.299  1.00  0.00     0.000 A 
HETATM   24  C   UNL     1     -39.460  51.645 -52.102  1.00  0.00     0.001 A 
HETATM   25  C   UNL     1     -40.208  52.815 -51.947  1.00  0.00     0.007 A 
ENDBRANCH  16  20
ENDBRANCH  15  16
ENDBRANCH  12  15
ENDBRANCH   1  11
BRANCH   8  26
HETATM   26  C   UNL     1     -42.743  60.642 -59.409  1.00  0.00     0.270 C 
HETATM   27  N   UNL     1     -43.727  61.593 -59.379  1.00  0.00    -0.365 N 
HETATM   28  H   UNL     1     -44.689  61.298 -59.493  1.00  0.00     0.159 HD
HETATM   29  H   UNL     1     -43.484  62.556 -59.212  1.00  0.00     0.159 HD
HETATM   30  O   UNL     1     -41.565  60.943 -59.253  1.00  0.00    -0.266 OA
ENDBRANCH   8  26
TORSDOF 6
ENDMDL
MODEL 7
REMARK VINA RESULT:      -8.0      4.395      6.725
REMARK  6 active torsions:
REMARK  status: ('A' for Active; 'I' for Inactive)
REMARK    1  A    between atoms: C_2  and  C_3 
REMARK    2  A    between atoms: C_3  and  C_4 
REMARK    3  A    between atoms: C_3  and  C_10 
REMARK    4  A    between atoms: C_10  and  C_11 
REMARK       I    between atoms: C_11  and  N_12 
REMARK    5  A    between atoms: N_12  and  C_13 
REMARK    6  A    between atoms: C_20  and  C_21 
REMARK       I    between atoms: C_21  and  N_22 
ROOT
HETATM    1  C   UNL     1     -44.282  57.423 -52.439  1.00  0.00     0.035 A 
HETATM    2  C   UNL     1     -44.473  58.159 -51.262  1.00  0.00     0.046 A 
HETATM    3  C   UNL     1     -45.074  59.437 -51.331  1.00  0.00     0.030 A 
HETATM    4  C   UNL     1     -45.445  59.938 -52.572  1.00  0.00     0.063 A 
HETATM    5  N   UNL     1     -45.975  61.172 -52.323  1.00  0.00    -0.277 N 
HETATM    6  H   UNL     1     -46.344  61.830 -53.001  1.00  0.00     0.189 HD
HETATM    7  N   UNL     1     -46.003  61.515 -51.025  1.00  0.00    -0.168 NA
HETATM    8  C   UNL     1     -45.451  60.451 -50.398  1.00  0.00     0.156 A 
HETATM    9  C   UNL     1     -45.266  59.235 -53.763  1.00  0.00     0.034 A 
HETATM   10  C   UNL     1     -44.685  57.965 -53.668  1.00  0.00     0.032 A 
ENDROOT
BRANCH   1  11
HETATM   11  N   UNL     1     -43.707  56.136 -52.481  1.00  0.00    -0.327 N 
HETATM   12  C   UNL     1     -42.382  55.790 -52.290  1.00  0.00     0.222 C 
HETATM   13  O   UNL     1     -41.465  56.558 -52.015  1.00  0.00    -0.273 OA
HETATM   14  H   UNL     1     -44.341  55.391 -52.731  1.00  0.00     0.169 HD
BRANCH  12  15
HETATM   15  C   UNL     1     -42.115  54.288 -52.364  1.00  0.00     0.113 C 
BRANCH  15  16
HETATM   16  C   UNL     1     -41.051  53.852 -53.394  1.00  0.00     0.030 C 
BRANCH  16  17
HETATM   17  C   UNL     1     -41.491  54.046 -54.879  1.00  0.00    -0.014 C 
HETATM   18  C   UNL     1     -41.037  55.410 -55.417  1.00  0.00     0.010 C 
HETATM   19  C   UNL     1     -42.993  53.882 -55.132  1.00  0.00     0.010 C 
ENDBRANCH  16  17
BRANCH  16  20
HETATM   20  C   UNL     1     -40.502  52.450 -53.153  1.00  0.00    -0.053 A 
HETATM   21  C   UNL     1     -40.030  52.031 -51.902  1.00  0.00     0.007 A 
HETATM   22  C   UNL     1     -39.531  50.739 -51.724  1.00  0.00     0.001 A 
HETATM   23  C   UNL     1     -39.490  49.849 -52.793  1.00  0.00     0.000 A 
HETATM   24  C   UNL     1     -39.954  50.248 -54.043  1.00  0.00     0.001 A 
HETATM   25  C   UNL     1     -40.462  51.536 -54.221  1.00  0.00     0.007 A 
ENDBRANCH  16  20
ENDBRANCH  15  16
ENDBRANCH  12  15
ENDBRANCH   1  11
BRANCH   8  26
HETATM   26  C   UNL     1     -45.309  60.426 -48.935  1.00  0.00     0.270 C 
HETATM   27  N   UNL     1     -44.140  60.974 -48.479  1.00  0.00    -0.365 N 
HETATM   28  H   UNL     1     -43.489  61.354 -49.155  1.00  0.00     0.159 HD
HETATM   29  H   UNL     1     -43.964  61.020 -47.489  1.00  0.00     0.159 HD
HETATM   30  O   UNL     1     -46.142  59.974 -48.158  1.00  0.00    -0.266 OA
ENDBRANCH   8  26
TORSDOF 6
ENDMDL
MODEL 8
REMARK VINA RESULT:      -7.7      2.699      4.766
REMARK  6 active torsions:
REMARK  status: ('A' for Active; 'I' for Inactive)
REMARK    1  A    between atoms: C_2  and  C_3 
REMARK    2  A    between atoms: C_3  and  C_4 
REMARK    3  A    between atoms: C_3  and  C_10 
REMARK    4  A    between atoms: C_10  and  C_11 
REMARK       I    between atoms: C_11  and  N_12 
REMARK    5  A    between atoms: N_12  and  C_13 
REMARK    6  A    between atoms: C_20  and  C_21 
REMARK       I    between atoms: C_21  and  N_22 
ROOT
HETATM    1  C   UNL     1     -42.461  55.501 -55.654  1.00  0.00     0.035 A 
HETATM    2  C   UNL     1     -42.431  56.767 -55.057  1.00  0.00     0.046 A 
HETATM    3  C   UNL     1     -42.821  57.900 -55.809  1.00  0.00     0.030 A 
HETATM    4  C   UNL     1     -43.208  57.727 -57.131  1.00  0.00     0.063 A 
HETATM    5  N   UNL     1     -43.508  58.977 -57.590  1.00  0.00    -0.277 N 
HETATM    6  H   UNL     1     -43.821  59.231 -58.521  1.00  0.00     0.189 HD
HETATM    7  N   UNL     1     -43.371  59.953 -56.678  1.00  0.00    -0.168 NA
HETATM    8  C   UNL     1     -42.948  59.302 -55.570  1.00  0.00     0.156 A 
HETATM    9  C   UNL     1     -43.246  56.481 -57.759  1.00  0.00     0.034 A 
HETATM   10  C   UNL     1     -42.872  55.373 -56.989  1.00  0.00     0.032 A 
ENDROOT
BRANCH   1  11
HETATM   11  N   UNL     1     -42.108  54.306 -54.992  1.00  0.00    -0.327 N 
HETATM   12  C   UNL     1     -40.841  53.793 -54.783  1.00  0.00     0.222 C 
HETATM   13  O   UNL     1     -39.783  54.316 -55.119  1.00  0.00    -0.273 OA
HETATM   14  H   UNL     1     -42.885  53.742 -54.682  1.00  0.00     0.169 HD
BRANCH  12  15
HETATM   15  C   UNL     1     -40.822  52.491 -53.984  1.00  0.00     0.113 C 
BRANCH  15  16
HETATM   16  C   UNL     1     -39.887  52.479 -52.756  1.00  0.00     0.030 C 
BRANCH  16  17
HETATM   17  C   UNL     1     -39.409  51.052 -52.339  1.00  0.00    -0.014 C 
HETATM   18  C   UNL     1     -39.746  50.017 -53.420  1.00  0.00     0.010 C 
HETATM   19  C   UNL     1     -39.947  50.562 -50.991  1.00  0.00     0.010 C 
ENDBRANCH  16  17
BRANCH  16  20
HETATM   20  C   UNL     1     -40.430  53.256 -51.563  1.00  0.00    -0.053 A 
HETATM   21  C   UNL     1     -41.790  53.564 -51.421  1.00  0.00     0.007 A 
HETATM   22  C   UNL     1     -42.248  54.282 -50.314  1.00  0.00     0.001 A 
HETATM   23  C   UNL     1     -41.354  54.709 -49.337  1.00  0.00     0.000 A 
HETATM   24  C   UNL     1     -40.000  54.413 -49.461  1.00  0.00     0.001 A 
HETATM   25  C   UNL     1     -39.542  53.687 -50.562  1.00  0.00     0.007 A 
ENDBRANCH  16  20
ENDBRANCH  15  16
ENDBRANCH  12  15
ENDBRANCH   1  11
BRANCH   8  26
HETATM   26  C   UNL     1     -42.691  60.030 -54.318  1.00  0.00     0.270 C 
HETATM   27  N   UNL     1     -43.824  60.403 -53.648  1.00  0.00    -0.365 N 
HETATM   28  H   UNL     1     -44.723  60.150 -54.040  1.00  0.00     0.159 HD
HETATM   29  H   UNL     1     -43.747  60.888 -52.769  1.00  0.00     0.159 HD
HETATM   30  O   UNL     1     -41.578  60.291 -53.876  1.00  0.00    -0.266 OA
ENDBRANCH   8  26
TORSDOF 6
ENDMDL
MODEL 9
REMARK VINA RESULT:      -7.7      2.935      8.301
REMARK  6 active torsions:
REMARK  status: ('A' for Active; 'I' for Inactive)
REMARK    1  A    between atoms: C_2  and  C_3 
REMARK    2  A    between atoms: C_3  and  C_4 
REMARK    3  A    between atoms: C_3  and  C_10 
REMARK    4  A    between atoms: C_10  and  C_11 
REMARK       I    between atoms: C_11  and  N_12 
REMARK    5  A    between atoms: N_12  and  C_13 
REMARK    6  A    between atoms: C_20  and  C_21 
REMARK       I    between atoms: C_21  and  N_22 
ROOT
HETATM    1  C   UNL     1     -41.354  55.260 -53.659  1.00  0.00     0.035 A 
HETATM    2  C   UNL     1     -40.898  53.950 -53.855  1.00  0.00     0.046 A 
HETATM    3  C   UNL     1     -40.506  53.176 -52.739  1.00  0.00     0.030 A 
HETATM    4  C   UNL     1     -40.568  53.744 -51.473  1.00  0.00     0.063 A 
HETATM    5  N   UNL     1     -40.123  52.777 -50.618  1.00  0.00    -0.277 N 
HETATM    6  H   UNL     1     -40.026  52.845 -49.611  1.00  0.00     0.189 HD
HETATM    7  N   UNL     1     -39.793  51.618 -51.210  1.00  0.00    -0.168 NA
HETATM    8  C   UNL     1     -40.026  51.848 -52.522  1.00  0.00     0.156 A 
HETATM    9  C   UNL     1     -41.014  55.045 -51.242  1.00  0.00     0.034 A 
HETATM   10  C   UNL     1     -41.413  55.786 -52.360  1.00  0.00     0.032 A 
ENDROOT
BRANCH   1  11
HETATM   11  N   UNL     1     -41.783  56.112 -54.699  1.00  0.00    -0.327 N 
HETATM   12  C   UNL     1     -42.609  55.803 -55.764  1.00  0.00     0.222 C 
HETATM   13  O   UNL     1     -43.146  54.719 -55.974  1.00  0.00    -0.273 OA
HETATM   14  H   UNL     1     -41.393  57.042 -54.679  1.00  0.00     0.169 HD
BRANCH  12  15
HETATM   15  C   UNL     1     -42.905  56.986 -56.684  1.00  0.00     0.113 C 
BRANCH  15  16
HETATM   16  C   UNL     1     -42.622  56.748 -58.183  1.00  0.00     0.030 C 
BRANCH  16  17
HETATM   17  C   UNL     1     -41.825  57.902 -58.868  1.00  0.00    -0.014 C 
HETATM   18  C   UNL     1     -42.131  59.253 -58.207  1.00  0.00     0.010 C 
HETATM   19  C   UNL     1     -42.039  58.023 -60.380  1.00  0.00     0.010 C 
ENDBRANCH  16  17
BRANCH  16  20
HETATM   20  C   UNL     1     -43.861  56.371 -58.989  1.00  0.00    -0.053 A 
HETATM   21  C   UNL     1     -43.901  55.247 -59.824  1.00  0.00     0.007 A 
HETATM   22  C   UNL     1     -45.055  54.938 -60.549  1.00  0.00     0.001 A 
HETATM   23  C   UNL     1     -46.181  55.750 -60.454  1.00  0.00     0.000 A 
HETATM   24  C   UNL     1     -46.159  56.870 -59.630  1.00  0.00     0.001 A 
HETATM   25  C   UNL     1     -45.010  57.176 -58.898  1.00  0.00     0.007 A 
ENDBRANCH  16  20
ENDBRANCH  15  16
ENDBRANCH  12  15
ENDBRANCH   1  11
BRANCH   8  26
HETATM   26  C   UNL     1     -39.798  50.798 -53.526  1.00  0.00     0.270 C 
HETATM   27  N   UNL     1     -39.577  49.557 -52.992  1.00  0.00    -0.365 N 
HETATM   28  H   UNL     1     -39.598  49.452 -51.985  1.00  0.00     0.159 HD
HETATM   29  H   UNL     1     -39.431  48.770 -53.603  1.00  0.00     0.159 HD
HETATM   30  O   UNL     1     -39.807  50.973 -54.739  1.00  0.00    -0.266 OA
ENDBRANCH   8  26
TORSDOF 6
ENDMDL
MODEL 10
REMARK VINA RESULT:      -7.5      4.599      6.918
REMARK  6 active torsions:
REMARK  status: ('A' for Active; 'I' for Inactive)
REMARK    1  A    between atoms: C_2  and  C_3 
REMARK    2  A    between atoms: C_3  and  C_4 
REMARK    3  A    between atoms: C_3  and  C_10 
REMARK    4  A    between atoms: C_10  and  C_11 
REMARK       I    between atoms: C_11  and  N_12 
REMARK    5  A    between atoms: N_12  and  C_13 
REMARK    6  A    between atoms: C_20  and  C_21 
REMARK       I    between atoms: C_21  and  N_22 
ROOT
HETATM    1  C   UNL     1     -44.451  57.488 -51.861  1.00  0.00     0.035 A 
HETATM    2  C   UNL     1     -44.733  58.494 -50.928  1.00  0.00     0.046 A 
HETATM    3  C   UNL     1     -45.194  59.752 -51.381  1.00  0.00     0.030 A 
HETATM    4  C   UNL     1     -45.340  59.962 -52.746  1.00  0.00     0.063 A 
HETATM    5  N   UNL     1     -45.780  61.249 -52.872  1.00  0.00    -0.277 N 
HETATM    6  H   UNL     1     -45.986  61.746 -53.731  1.00  0.00     0.189 HD
HETATM    7  N   UNL     1     -45.954  61.895 -51.708  1.00  0.00    -0.168 NA
HETATM    8  C   UNL     1     -45.598  60.981 -50.775  1.00  0.00     0.156 A 
HETATM    9  C   UNL     1     -45.066  58.984 -53.702  1.00  0.00     0.034 A 
HETATM   10  C   UNL     1     -44.627  57.742 -53.230  1.00  0.00     0.032 A 
ENDROOT
BRANCH   1  11
HETATM   11  N   UNL     1     -44.002  56.195 -51.518  1.00  0.00    -0.327 N 
HETATM   12  C   UNL     1     -42.758  55.828 -51.040  1.00  0.00     0.222 C 
HETATM   13  O   UNL     1     -41.821  56.585 -50.799  1.00  0.00    -0.273 OA
HETATM   14  H   UNL     1     -44.660  55.451 -51.694  1.00  0.00     0.169 HD
BRANCH  12  15
HETATM   15  C   UNL     1     -42.626  54.338 -50.728  1.00  0.00     0.113 C 
BRANCH  15  16
HETATM   16  C   UNL     1     -41.728  53.535 -51.692  1.00  0.00     0.030 C 
BRANCH  16  17
HETATM   17  C   UNL     1     -40.256  53.372 -51.198  1.00  0.00    -0.014 C 
HETATM   18  C   UNL     1     -39.755  51.937 -51.414  1.00  0.00     0.010 C 
HETATM   19  C   UNL     1     -40.019  53.770 -49.738  1.00  0.00     0.010 C 
ENDBRANCH  16  17
BRANCH  16  20
HETATM   20  C   UNL     1     -41.781  54.027 -53.134  1.00  0.00    -0.053 A 
HETATM   21  C   UNL     1     -42.933  53.919 -53.924  1.00  0.00     0.007 A 
HETATM   22  C   UNL     1     -42.939  54.379 -55.243  1.00  0.00     0.001 A 
HETATM   23  C   UNL     1     -41.794  54.947 -55.793  1.00  0.00     0.000 A 
HETATM   24  C   UNL     1     -40.641  55.061 -55.024  1.00  0.00     0.001 A 
HETATM   25  C   UNL     1     -40.635  54.611 -53.702  1.00  0.00     0.007 A 
ENDBRANCH  16  20
ENDBRANCH  15  16
ENDBRANCH  12  15
ENDBRANCH   1  11
BRANCH   8  26
HETATM   26  C   UNL     1     -45.664  61.300 -49.341  1.00  0.00     0.270 C 
HETATM   27  N   UNL     1     -44.501  61.051 -48.662  1.00  0.00    -0.365 N 
HETATM   28  H   UNL     1     -43.707  60.693 -49.178  1.00  0.00     0.159 HD
HETATM   29  H   UNL     1     -44.444  61.258 -47.679  1.00  0.00     0.159 HD
HETATM   30  O   UNL     1     -46.647  61.755 -48.769  1.00  0.00    -0.266 OA
ENDBRANCH   8  26
TORSDOF 6
ENDMDL
