MODEL 1
REMARK VINA RESULT:      -8.6      0.000      0.000
REMARK  6 active torsions:
REMARK  status: ('A' for Active; 'I' for Inactive)
REMARK    1  A    between atoms: O_2  and  C_3 
REMARK    2  A    between atoms: C_5  and  C_6 
REMARK    3  A    between atoms: C_12  and  C_13 
REMARK       I    between atoms: C_13  and  N_14 
REMARK    4  A    between atoms: N_14  and  C_15 
REMARK    5  A    between atoms: C_15  and  C_16 
REMARK    6  A    between atoms: C_23  and  C_24 
ROOT
HETATM    1  C   UNL     1     -43.097  55.282 -52.029  1.00  0.00     0.118 C 
HETATM    2  N   UNL     1     -43.762  56.085 -53.070  1.00  0.00    -0.365 N 
HETATM    3  C   UNL     1     -43.130  57.176 -53.590  1.00  0.00     0.138 A 
HETATM    4  N   UNL     1     -42.005  57.693 -52.987  1.00  0.00    -0.240 N 
HETATM    5  N   UNL     1     -41.475  58.737 -53.637  1.00  0.00    -0.181 NA
HETATM    6  C   UNL     1     -42.320  58.928 -54.654  1.00  0.00     0.160 A 
HETATM    7  C   UNL     1     -43.370  57.977 -54.692  1.00  0.00     0.096 A 
HETATM    8  C   UNL     1     -41.400  57.155 -51.781  1.00  0.00     0.221 C 
HETATM    9  C   UNL     1     -42.412  56.250 -51.051  1.00  0.00     0.066 C 
HETATM   10  H   UNL     1     -44.781  56.102 -52.989  1.00  0.00     0.161 HD
ENDROOT
BRANCH   7  11
HETATM   11  C   UNL     1     -44.388  57.887 -55.723  1.00  0.00     0.257 C 
HETATM   12  N   UNL     1     -43.963  58.192 -56.994  1.00  0.00    -0.352 N 
HETATM   13  H   UNL     1     -43.042  58.598 -57.083  1.00  0.00     0.163 HD
HETATM   14  O   UNL     1     -45.552  57.602 -55.459  1.00  0.00    -0.267 OA
BRANCH  12  15
HETATM   15  C   UNL     1     -44.907  58.369 -58.069  1.00  0.00     0.161 C 
BRANCH  15  16
HETATM   16  C   UNL     1     -44.964  57.156 -58.958  1.00  0.00    -0.041 A 
HETATM   17  C   UNL     1     -46.136  56.856 -59.665  1.00  0.00     0.009 A 
HETATM   18  C   UNL     1     -46.194  55.743 -60.506  1.00  0.00     0.001 A 
HETATM   19  C   UNL     1     -45.083  54.913 -60.639  1.00  0.00     0.000 A 
HETATM   20  C   UNL     1     -43.916  55.192 -59.929  1.00  0.00     0.001 A 
HETATM   21  C   UNL     1     -43.855  56.307 -59.091  1.00  0.00     0.009 A 
ENDBRANCH  15  16
ENDBRANCH  12  15
ENDBRANCH   7  11
BRANCH   1  22
HETATM   22  C   UNL     1     -42.174  54.223 -52.636  1.00  0.00    -0.033 A 
HETATM   23  C   UNL     1     -41.160  53.607 -51.873  1.00  0.00     0.046 A 
HETATM   24  C   UNL     1     -40.311  52.643 -52.424  1.00  0.00     0.068 A 
HETATM   25  C   UNL     1     -40.452  52.300 -53.768  1.00  0.00     0.037 A 
HETATM   26  C   UNL     1     -41.424  52.914 -54.552  1.00  0.00     0.003 A 
HETATM   27  C   UNL     1     -42.270  53.876 -53.995  1.00  0.00     0.009 A 
BRANCH  24  28
HETATM   28  O   UNL     1     -39.311  51.984 -51.765  1.00  0.00    -0.356 OA
HETATM   29  C   UNL     1     -39.517  50.603 -51.497  1.00  0.00     0.210 C 
ENDBRANCH  24  28
ENDBRANCH   1  22
BRANCH   8  30
HETATM   30  C   UNL     1     -40.931  58.242 -50.838  1.00  0.00     0.409 C 
HETATM   31  F   UNL     1     -41.764  59.307 -50.819  1.00  0.00    -0.169 F 
HETATM   32  F   UNL     1     -40.910  57.753 -49.565  1.00  0.00    -0.169 F 
HETATM   33  F   UNL     1     -39.681  58.680 -51.086  1.00  0.00    -0.169 F 
ENDBRANCH   8  30
TORSDOF 6
ENDMDL
MODEL 2
REMARK VINA RESULT:      -8.6      2.378      6.804
REMARK  6 active torsions:
REMARK  status: ('A' for Active; 'I' for Inactive)
REMARK    1  A    between atoms: O_2  and  C_3 
REMARK    2  A    between atoms: C_5  and  C_6 
REMARK    3  A    between atoms: C_12  and  C_13 
REMARK       I    between atoms: C_13  and  N_14 
REMARK    4  A    between atoms: N_14  and  C_15 
REMARK    5  A    between atoms: C_15  and  C_16 
REMARK    6  A    between atoms: C_23  and  C_24 
ROOT
HETATM    1  C   UNL     1     -41.582  57.754 -53.615  1.00  0.00     0.118 C 
HETATM    2  N   UNL     1     -41.328  56.859 -52.473  1.00  0.00    -0.365 N 
HETATM    3  C   UNL     1     -42.357  56.497 -51.654  1.00  0.00     0.138 A 
HETATM    4  N   UNL     1     -43.569  57.149 -51.714  1.00  0.00    -0.240 N 
HETATM    5  N   UNL     1     -44.491  56.654 -50.879  1.00  0.00    -0.181 NA
HETATM    6  C   UNL     1     -43.831  55.694 -50.226  1.00  0.00     0.160 A 
HETATM    7  C   UNL     1     -42.496  55.533 -50.671  1.00  0.00     0.096 A 
HETATM    8  C   UNL     1     -43.864  58.248 -52.616  1.00  0.00     0.221 C 
HETATM    9  C   UNL     1     -42.550  58.854 -53.148  1.00  0.00     0.066 C 
HETATM   10  H   UNL     1     -40.395  56.960 -52.069  1.00  0.00     0.161 HD
ENDROOT
BRANCH   7  11
HETATM   11  C   UNL     1     -41.568  54.520 -50.204  1.00  0.00     0.257 C 
HETATM   12  N   UNL     1     -40.688  54.049 -51.150  1.00  0.00    -0.352 N 
HETATM   13  H   UNL     1     -40.858  54.322 -52.108  1.00  0.00     0.163 HD
HETATM   14  O   UNL     1     -41.606  54.089 -49.055  1.00  0.00    -0.267 OA
BRANCH  12  15
HETATM   15  C   UNL     1     -39.874  52.887 -50.893  1.00  0.00     0.161 C 
BRANCH  15  16
HETATM   16  C   UNL     1     -39.905  51.927 -52.051  1.00  0.00    -0.041 A 
HETATM   17  C   UNL     1     -39.557  50.582 -51.860  1.00  0.00     0.009 A 
HETATM   18  C   UNL     1     -39.600  49.679 -52.923  1.00  0.00     0.001 A 
HETATM   19  C   UNL     1     -39.981  50.113 -54.190  1.00  0.00     0.000 A 
HETATM   20  C   UNL     1     -40.314  51.451 -54.397  1.00  0.00     0.001 A 
HETATM   21  C   UNL     1     -40.277  52.355 -53.333  1.00  0.00     0.009 A 
ENDBRANCH  15  16
ENDBRANCH  12  15
ENDBRANCH   7  11
BRANCH   1  22
HETATM   22  C   UNL     1     -42.043  56.976 -54.850  1.00  0.00    -0.033 A 
HETATM   23  C   UNL     1     -42.585  57.636 -55.974  1.00  0.00     0.046 A 
HETATM   24  C   UNL     1     -43.012  56.930 -57.102  1.00  0.00     0.068 A 
HETATM   25  C   UNL     1     -42.924  55.539 -57.109  1.00  0.00     0.037 A 
HETATM   26  C   UNL     1     -42.422  54.860 -56.001  1.00  0.00     0.003 A 
HETATM   27  C   UNL     1     -41.996  55.572 -54.877  1.00  0.00     0.009 A 
BRANCH  24  28
HETATM   28  O   UNL     1     -43.537  57.478 -58.240  1.00  0.00    -0.356 OA
HETATM   29  C   UNL     1     -43.951  56.575 -59.258  1.00  0.00     0.210 C 
ENDBRANCH  24  28
ENDBRANCH   1  22
BRANCH   8  30
HETATM   30  C   UNL     1     -44.681  59.336 -51.951  1.00  0.00     0.409 C 
HETATM   31  F   UNL     1     -44.160  59.723 -50.765  1.00  0.00    -0.169 F 
HETATM   32  F   UNL     1     -44.684  60.445 -52.745  1.00  0.00    -0.169 F 
HETATM   33  F   UNL     1     -45.976  59.011 -51.765  1.00  0.00    -0.169 F 
ENDBRANCH   8  30
TORSDOF 6
ENDMDL
MODEL 3
REMARK VINA RESULT:      -8.2      2.140      2.892
REMARK  6 active torsions:
REMARK  status: ('A' for Active; 'I' for Inactive)
REMARK    1  A    between atoms: O_2  and  C_3 
REMARK    2  A    between atoms: C_5  and  C_6 
REMARK    3  A    between atoms: C_12  and  C_13 
REMARK       I    between atoms: C_13  and  N_14 
REMARK    4  A    between atoms: N_14  and  C_15 
REMARK    5  A    between atoms: C_15  and  C_16 
REMARK    6  A    between atoms: C_23  and  C_24 
ROOT
HETATM    1  C   UNL     1     -42.786  54.465 -52.637  1.00  0.00     0.118 C 
HETATM    2  N   UNL     1     -43.126  55.347 -53.767  1.00  0.00    -0.365 N 
HETATM    3  C   UNL     1     -42.406  56.486 -53.978  1.00  0.00     0.138 A 
HETATM    4  N   UNL     1     -41.543  56.963 -53.016  1.00  0.00    -0.240 N 
HETATM    5  N   UNL     1     -40.879  58.066 -53.386  1.00  0.00    -0.181 NA
HETATM    6  C   UNL     1     -41.374  58.332 -54.598  1.00  0.00     0.160 A 
HETATM    7  C   UNL     1     -42.323  57.375 -55.035  1.00  0.00     0.096 A 
HETATM    8  C   UNL     1     -41.322  56.331 -51.728  1.00  0.00     0.221 C 
HETATM    9  C   UNL     1     -42.475  55.355 -51.422  1.00  0.00     0.066 C 
HETATM   10  H   UNL     1     -44.119  55.344 -54.008  1.00  0.00     0.161 HD
ENDROOT
BRANCH   7  11
HETATM   11  C   UNL     1     -42.967  57.361 -56.336  1.00  0.00     0.257 C 
HETATM   12  N   UNL     1     -42.123  57.518 -57.409  1.00  0.00    -0.352 N 
HETATM   13  H   UNL     1     -41.169  57.784 -57.206  1.00  0.00     0.163 HD
HETATM   14  O   UNL     1     -44.185  57.261 -56.453  1.00  0.00    -0.267 OA
BRANCH  12  15
HETATM   15  C   UNL     1     -42.643  57.755 -58.733  1.00  0.00     0.161 C 
BRANCH  15  16
HETATM   16  C   UNL     1     -42.207  59.095 -59.263  1.00  0.00    -0.041 A 
HETATM   17  C   UNL     1     -41.769  60.092 -58.380  1.00  0.00     0.009 A 
HETATM   18  C   UNL     1     -41.345  61.332 -58.862  1.00  0.00     0.001 A 
HETATM   19  C   UNL     1     -41.366  61.590 -60.231  1.00  0.00     0.000 A 
HETATM   20  C   UNL     1     -41.814  60.613 -61.118  1.00  0.00     0.001 A 
HETATM   21  C   UNL     1     -42.234  59.371 -60.638  1.00  0.00     0.009 A 
ENDBRANCH  15  16
ENDBRANCH  12  15
ENDBRANCH   7  11
BRANCH   1  22
HETATM   22  C   UNL     1     -41.680  53.474 -53.006  1.00  0.00    -0.033 A 
HETATM   23  C   UNL     1     -40.895  52.845 -52.016  1.00  0.00     0.046 A 
HETATM   24  C   UNL     1     -39.881  51.944 -52.348  1.00  0.00     0.068 A 
HETATM   25  C   UNL     1     -39.620  51.676 -53.690  1.00  0.00     0.037 A 
HETATM   26  C   UNL     1     -40.358  52.306 -54.689  1.00  0.00     0.003 A 
HETATM   27  C   UNL     1     -41.371  53.206 -54.351  1.00  0.00     0.009 A 
BRANCH  24  28
HETATM   28  O   UNL     1     -39.079  51.277 -51.463  1.00  0.00    -0.356 OA
HETATM   29  C   UNL     1     -39.563  50.038 -50.962  1.00  0.00     0.210 C 
ENDBRANCH  24  28
ENDBRANCH   1  22
BRANCH   8  30
HETATM   30  C   UNL     1     -41.210  57.340 -50.604  1.00  0.00     0.409 C 
HETATM   31  F   UNL     1     -40.050  58.033 -50.644  1.00  0.00    -0.169 F 
HETATM   32  F   UNL     1     -42.209  58.260 -50.726  1.00  0.00    -0.169 F 
HETATM   33  F   UNL     1     -41.349  56.805 -49.374  1.00  0.00    -0.169 F 
ENDBRANCH   8  30
TORSDOF 6
ENDMDL
MODEL 4
REMARK VINA RESULT:      -8.1      1.667      2.405
REMARK  6 active torsions:
REMARK  status: ('A' for Active; 'I' for Inactive)
REMARK    1  A    between atoms: O_2  and  C_3 
REMARK    2  A    between atoms: C_5  and  C_6 
REMARK    3  A    between atoms: C_12  and  C_13 
REMARK       I    between atoms: C_13  and  N_14 
REMARK    4  A    between atoms: N_14  and  C_15 
REMARK    5  A    between atoms: C_15  and  C_16 
REMARK    6  A    between atoms: C_23  and  C_24 
ROOT
HETATM    1  C   UNL     1     -43.532  55.493 -51.734  1.00  0.00     0.118 C 
HETATM    2  N   UNL     1     -43.562  55.501 -53.207  1.00  0.00    -0.365 N 
HETATM    3  C   UNL     1     -42.969  56.522 -53.891  1.00  0.00     0.138 A 
HETATM    4  N   UNL     1     -42.572  57.669 -53.240  1.00  0.00    -0.240 N 
HETATM    5  N   UNL     1     -41.969  58.561 -54.037  1.00  0.00    -0.181 NA
HETATM    6  C   UNL     1     -42.033  57.989 -55.242  1.00  0.00     0.160 A 
HETATM    7  C   UNL     1     -42.634  56.706 -55.220  1.00  0.00     0.096 A 
HETATM    8  C   UNL     1     -42.741  57.904 -51.817  1.00  0.00     0.221 C 
HETATM    9  C   UNL     1     -43.790  56.929 -51.248  1.00  0.00     0.066 C 
HETATM   10  H   UNL     1     -44.396  55.066 -53.605  1.00  0.00     0.161 HD
ENDROOT
BRANCH   7  11
HETATM   11  C   UNL     1     -42.768  55.819 -56.361  1.00  0.00     0.257 C 
HETATM   12  N   UNL     1     -42.631  56.419 -57.590  1.00  0.00    -0.352 N 
HETATM   13  H   UNL     1     -42.607  57.430 -57.605  1.00  0.00     0.163 HD
HETATM   14  O   UNL     1     -43.031  54.628 -56.226  1.00  0.00    -0.267 OA
BRANCH  12  15
HETATM   15  C   UNL     1     -42.967  55.714 -58.802  1.00  0.00     0.161 C 
BRANCH  15  16
HETATM   16  C   UNL     1     -44.339  56.090 -59.293  1.00  0.00    -0.041 A 
HETATM   17  C   UNL     1     -44.988  57.219 -58.775  1.00  0.00     0.009 A 
HETATM   18  C   UNL     1     -46.252  57.587 -59.236  1.00  0.00     0.001 A 
HETATM   19  C   UNL     1     -46.886  56.823 -60.213  1.00  0.00     0.000 A 
HETATM   20  C   UNL     1     -46.259  55.689 -60.726  1.00  0.00     0.001 A 
HETATM   21  C   UNL     1     -44.991  55.322 -60.269  1.00  0.00     0.009 A 
ENDBRANCH  15  16
ENDBRANCH  12  15
ENDBRANCH   7  11
BRANCH   1  22
HETATM   22  C   UNL     1     -42.249  54.855 -51.198  1.00  0.00    -0.033 A 
HETATM   23  C   UNL     1     -41.536  53.895 -51.948  1.00  0.00     0.046 A 
HETATM   24  C   UNL     1     -40.367  53.305 -51.461  1.00  0.00     0.068 A 
HETATM   25  C   UNL     1     -39.905  53.655 -50.193  1.00  0.00     0.037 A 
HETATM   26  C   UNL     1     -40.605  54.576 -49.419  1.00  0.00     0.003 A 
HETATM   27  C   UNL     1     -41.773  55.162 -49.912  1.00  0.00     0.009 A 
BRANCH  24  28
HETATM   28  O   UNL     1     -39.602  52.379 -52.116  1.00  0.00    -0.356 OA
HETATM   29  C   UNL     1     -39.547  51.075 -51.552  1.00  0.00     0.210 C 
ENDBRANCH  24  28
ENDBRANCH   1  22
BRANCH   8  30
HETATM   30  C   UNL     1     -43.166  59.326 -51.515  1.00  0.00     0.409 C 
HETATM   31  F   UNL     1     -43.937  59.854 -52.491  1.00  0.00    -0.169 F 
HETATM   32  F   UNL     1     -43.926  59.336 -50.382  1.00  0.00    -0.169 F 
HETATM   33  F   UNL     1     -42.138  60.165 -51.277  1.00  0.00    -0.169 F 
ENDBRANCH   8  30
TORSDOF 6
ENDMDL
MODEL 5
REMARK VINA RESULT:      -7.9      3.460      7.686
REMARK  6 active torsions:
REMARK  status: ('A' for Active; 'I' for Inactive)
REMARK    1  A    between atoms: O_2  and  C_3 
REMARK    2  A    between atoms: C_5  and  C_6 
REMARK    3  A    between atoms: C_12  and  C_13 
REMARK       I    between atoms: C_13  and  N_14 
REMARK    4  A    between atoms: N_14  and  C_15 
REMARK    5  A    between atoms: C_15  and  C_16 
REMARK    6  A    between atoms: C_23  and  C_24 
ROOT
HETATM    1  C   UNL     1     -45.098  57.414 -54.148  1.00  0.00     0.118 C 
HETATM    2  N   UNL     1     -44.325  56.309 -53.555  1.00  0.00    -0.365 N 
HETATM    3  C   UNL     1     -43.073  56.032 -54.020  1.00  0.00     0.138 A 
HETATM    4  N   UNL     1     -42.618  56.589 -55.196  1.00  0.00    -0.240 N 
HETATM    5  N   UNL     1     -41.357  56.256 -55.498  1.00  0.00    -0.181 NA
HETATM    6  C   UNL     1     -41.016  55.417 -54.516  1.00  0.00     0.160 A 
HETATM    7  C   UNL     1     -42.037  55.244 -53.550  1.00  0.00     0.096 A 
HETATM    8  C   UNL     1     -43.395  57.487 -56.031  1.00  0.00     0.221 C 
HETATM    9  C   UNL     1     -44.890  57.372 -55.671  1.00  0.00     0.066 C 
HETATM   10  H   UNL     1     -44.902  55.537 -53.217  1.00  0.00     0.161 HD
ENDROOT
BRANCH   7  11
HETATM   11  C   UNL     1     -41.924  54.459 -52.335  1.00  0.00     0.257 C 
HETATM   12  N   UNL     1     -40.640  54.244 -51.893  1.00  0.00    -0.352 N 
HETATM   13  H   UNL     1     -39.891  54.508 -52.519  1.00  0.00     0.163 HD
HETATM   14  O   UNL     1     -42.909  53.985 -51.777  1.00  0.00    -0.267 OA
BRANCH  12  15
HETATM   15  C   UNL     1     -40.365  53.296 -50.842  1.00  0.00     0.161 C 
BRANCH  15  16
HETATM   16  C   UNL     1     -40.081  51.927 -51.398  1.00  0.00    -0.041 A 
HETATM   17  C   UNL     1     -39.884  51.753 -52.775  1.00  0.00     0.009 A 
HETATM   18  C   UNL     1     -39.602  50.491 -53.299  1.00  0.00     0.001 A 
HETATM   19  C   UNL     1     -39.525  49.387 -52.453  1.00  0.00     0.000 A 
HETATM   20  C   UNL     1     -39.734  49.544 -51.083  1.00  0.00     0.001 A 
HETATM   21  C   UNL     1     -40.012  50.807 -50.557  1.00  0.00     0.009 A 
ENDBRANCH  15  16
ENDBRANCH  12  15
ENDBRANCH   7  11
BRANCH   1  22
HETATM   22  C   UNL     1     -44.762  58.754 -53.491  1.00  0.00    -0.033 A 
HETATM   23  C   UNL     1     -44.136  58.818 -52.228  1.00  0.00     0.046 A 
HETATM   24  C   UNL     1     -43.833  60.040 -51.622  1.00  0.00     0.068 A 
HETATM   25  C   UNL     1     -44.179  61.225 -52.268  1.00  0.00     0.037 A 
HETATM   26  C   UNL     1     -44.825  61.192 -53.501  1.00  0.00     0.003 A 
HETATM   27  C   UNL     1     -45.125  59.968 -54.102  1.00  0.00     0.009 A 
BRANCH  24  28
HETATM   28  O   UNL     1     -43.219  60.204 -50.411  1.00  0.00    -0.356 OA
HETATM   29  C   UNL     1     -41.816  60.438 -50.426  1.00  0.00     0.210 C 
ENDBRANCH  24  28
ENDBRANCH   1  22
BRANCH   8  30
HETATM   30  C   UNL     1     -43.214  57.202 -57.507  1.00  0.00     0.409 C 
HETATM   31  F   UNL     1     -44.221  57.702 -58.258  1.00  0.00    -0.169 F 
HETATM   32  F   UNL     1     -42.074  57.810 -57.945  1.00  0.00    -0.169 F 
HETATM   33  F   UNL     1     -43.069  55.894 -57.798  1.00  0.00    -0.169 F 
ENDBRANCH   8  30
TORSDOF 6
ENDMDL
MODEL 6
REMARK VINA RESULT:      -7.8      3.337      8.385
REMARK  6 active torsions:
REMARK  status: ('A' for Active; 'I' for Inactive)
REMARK    1  A    between atoms: O_2  and  C_3 
REMARK    2  A    between atoms: C_5  and  C_6 
REMARK    3  A    between atoms: C_12  and  C_13 
REMARK       I    between atoms: C_13  and  N_14 
REMARK    4  A    between atoms: N_14  and  C_15 
REMARK    5  A    between atoms: C_15  and  C_16 
REMARK    6  A    between atoms: C_23  and  C_24 
ROOT
HETATM    1  C   UNL     1     -42.809  57.045 -60.044  1.00  0.00     0.118 C 
HETATM    2  N   UNL     1     -42.377  56.319 -58.836  1.00  0.00    -0.365 N 
HETATM    3  C   UNL     1     -42.455  56.925 -57.617  1.00  0.00     0.138 A 
HETATM    4  N   UNL     1     -42.682  58.280 -57.517  1.00  0.00    -0.240 N 
HETATM    5  N   UNL     1     -42.774  58.720 -56.256  1.00  0.00    -0.181 NA
HETATM    6  C   UNL     1     -42.543  57.624 -55.529  1.00  0.00     0.160 A 
HETATM    7  C   UNL     1     -42.350  56.463 -56.318  1.00  0.00     0.096 A 
HETATM    8  C   UNL     1     -42.850  59.169 -58.653  1.00  0.00     0.221 C 
HETATM    9  C   UNL     1     -42.308  58.494 -59.928  1.00  0.00     0.066 C 
HETATM   10  H   UNL     1     -41.620  55.654 -59.005  1.00  0.00     0.161 HD
ENDROOT
BRANCH   7  11
HETATM   11  C   UNL     1     -42.160  55.118 -55.806  1.00  0.00     0.257 C 
HETATM   12  N   UNL     1     -40.869  54.802 -55.452  1.00  0.00    -0.352 N 
HETATM   13  H   UNL     1     -40.148  55.459 -55.719  1.00  0.00     0.163 HD
HETATM   14  O   UNL     1     -43.085  54.314 -55.741  1.00  0.00    -0.267 OA
BRANCH  12  15
HETATM   15  C   UNL     1     -40.494  53.443 -55.151  1.00  0.00     0.161 C 
BRANCH  15  16
HETATM   16  C   UNL     1     -40.367  53.223 -53.668  1.00  0.00    -0.041 A 
HETATM   17  C   UNL     1     -39.851  52.016 -53.177  1.00  0.00     0.009 A 
HETATM   18  C   UNL     1     -39.712  51.808 -51.804  1.00  0.00     0.001 A 
HETATM   19  C   UNL     1     -40.097  52.802 -50.907  1.00  0.00     0.000 A 
HETATM   20  C   UNL     1     -40.626  54.001 -51.382  1.00  0.00     0.001 A 
HETATM   21  C   UNL     1     -40.761  54.212 -52.755  1.00  0.00     0.009 A 
ENDBRANCH  15  16
ENDBRANCH  12  15
ENDBRANCH   7  11
BRANCH   1  22
HETATM   22  C   UNL     1     -44.314  56.904 -60.280  1.00  0.00    -0.033 A 
HETATM   23  C   UNL     1     -45.176  58.020 -60.224  1.00  0.00     0.046 A 
HETATM   24  C   UNL     1     -46.551  57.896 -60.433  1.00  0.00     0.068 A 
HETATM   25  C   UNL     1     -47.091  56.635 -60.680  1.00  0.00     0.037 A 
HETATM   26  C   UNL     1     -46.269  55.511 -60.710  1.00  0.00     0.003 A 
HETATM   27  C   UNL     1     -44.895  55.642 -60.500  1.00  0.00     0.009 A 
BRANCH  24  28
HETATM   28  O   UNL     1     -47.462  58.916 -60.411  1.00  0.00    -0.356 OA
HETATM   29  C   UNL     1     -47.189  60.005 -59.539  1.00  0.00     0.210 C 
ENDBRANCH  24  28
ENDBRANCH   1  22
BRANCH   8  30
HETATM   30  C   UNL     1     -42.148  60.496 -58.454  1.00  0.00     0.409 C 
HETATM   31  F   UNL     1     -42.861  61.349 -57.684  1.00  0.00    -0.169 F 
HETATM   32  F   UNL     1     -40.970  60.287 -57.800  1.00  0.00    -0.169 F 
HETATM   33  F   UNL     1     -41.827  61.123 -59.603  1.00  0.00    -0.169 F 
ENDBRANCH   8  30
TORSDOF 6
ENDMDL
MODEL 7
REMARK VINA RESULT:      -7.8      1.806      2.389
REMARK  6 active torsions:
REMARK  status: ('A' for Active; 'I' for Inactive)
REMARK    1  A    between atoms: O_2  and  C_3 
REMARK    2  A    between atoms: C_5  and  C_6 
REMARK    3  A    between atoms: C_12  and  C_13 
REMARK       I    between atoms: C_13  and  N_14 
REMARK    4  A    between atoms: N_14  and  C_15 
REMARK    5  A    between atoms: C_15  and  C_16 
REMARK    6  A    between atoms: C_23  and  C_24 
ROOT
HETATM    1  C   UNL     1     -43.771  55.747 -54.412  1.00  0.00     0.118 C 
HETATM    2  N   UNL     1     -43.669  56.659 -55.564  1.00  0.00    -0.365 N 
HETATM    3  C   UNL     1     -43.029  57.856 -55.426  1.00  0.00     0.138 A 
HETATM    4  N   UNL     1     -42.704  58.341 -54.179  1.00  0.00    -0.240 N 
HETATM    5  N   UNL     1     -42.042  59.505 -54.208  1.00  0.00    -0.181 NA
HETATM    6  C   UNL     1     -41.993  59.798 -55.510  1.00  0.00     0.160 A 
HETATM    7  C   UNL     1     -42.578  58.802 -56.329  1.00  0.00     0.096 A 
HETATM    8  C   UNL     1     -43.002  57.661 -52.931  1.00  0.00     0.221 C 
HETATM    9  C   UNL     1     -44.087  56.591 -53.167  1.00  0.00     0.066 C 
HETATM   10  H   UNL     1     -44.460  56.600 -56.209  1.00  0.00     0.161 HD
ENDROOT
BRANCH   7  11
HETATM   11  C   UNL     1     -42.600  58.809 -57.780  1.00  0.00     0.257 C 
HETATM   12  N   UNL     1     -43.770  59.258 -58.347  1.00  0.00    -0.352 N 
HETATM   13  H   UNL     1     -44.556  59.393 -57.726  1.00  0.00     0.163 HD
HETATM   14  O   UNL     1     -41.653  58.398 -58.443  1.00  0.00    -0.267 OA
BRANCH  12  15
HETATM   15  C   UNL     1     -44.018  59.103 -59.758  1.00  0.00     0.161 C 
BRANCH  15  16
HETATM   16  C   UNL     1     -44.761  57.827 -60.049  1.00  0.00    -0.041 A 
HETATM   17  C   UNL     1     -44.064  56.687 -60.473  1.00  0.00     0.009 A 
HETATM   18  C   UNL     1     -44.741  55.494 -60.728  1.00  0.00     0.001 A 
HETATM   19  C   UNL     1     -46.124  55.431 -60.571  1.00  0.00     0.000 A 
HETATM   20  C   UNL     1     -46.831  56.561 -60.164  1.00  0.00     0.001 A 
HETATM   21  C   UNL     1     -46.154  57.755 -59.905  1.00  0.00     0.009 A 
ENDBRANCH  15  16
ENDBRANCH  12  15
ENDBRANCH   7  11
BRANCH   1  22
HETATM   22  C   UNL     1     -42.534  54.855 -54.286  1.00  0.00    -0.033 A 
HETATM   23  C   UNL     1     -42.231  54.183 -53.083  1.00  0.00     0.046 A 
HETATM   24  C   UNL     1     -41.100  53.372 -52.961  1.00  0.00     0.068 A 
HETATM   25  C   UNL     1     -40.235  53.243 -54.045  1.00  0.00     0.037 A 
HETATM   26  C   UNL     1     -40.492  53.920 -55.235  1.00  0.00     0.003 A 
HETATM   27  C   UNL     1     -41.625  54.728 -55.351  1.00  0.00     0.009 A 
BRANCH  24  28
HETATM   28  O   UNL     1     -40.731  52.673 -51.845  1.00  0.00    -0.356 OA
HETATM   29  C   UNL     1     -39.502  51.961 -51.908  1.00  0.00     0.210 C 
ENDBRANCH  24  28
ENDBRANCH   1  22
BRANCH   8  30
HETATM   30  C   UNL     1     -43.468  58.615 -51.851  1.00  0.00     0.409 C 
HETATM   31  F   UNL     1     -42.440  59.225 -51.221  1.00  0.00    -0.169 F 
HETATM   32  F   UNL     1     -44.209  59.608 -52.420  1.00  0.00    -0.169 F 
HETATM   33  F   UNL     1     -44.263  58.045 -50.924  1.00  0.00    -0.169 F 
ENDBRANCH   8  30
TORSDOF 6
ENDMDL
MODEL 8
REMARK VINA RESULT:      -7.6      3.883      6.743
REMARK  6 active torsions:
REMARK  status: ('A' for Active; 'I' for Inactive)
REMARK    1  A    between atoms: O_2  and  C_3 
REMARK    2  A    between atoms: C_5  and  C_6 
REMARK    3  A    between atoms: C_12  and  C_13 
REMARK       I    between atoms: C_13  and  N_14 
REMARK    4  A    between atoms: N_14  and  C_15 
REMARK    5  A    between atoms: C_15  and  C_16 
REMARK    6  A    between atoms: C_23  and  C_24 
ROOT
HETATM    1  C   UNL     1     -42.838  54.350 -51.933  1.00  0.00     0.118 C 
HETATM    2  N   UNL     1     -43.148  55.779 -51.748  1.00  0.00    -0.365 N 
HETATM    3  C   UNL     1     -42.262  56.584 -51.094  1.00  0.00     0.138 A 
HETATM    4  N   UNL     1     -41.214  56.046 -50.381  1.00  0.00    -0.240 N 
HETATM    5  N   UNL     1     -40.409  56.964 -49.830  1.00  0.00    -0.181 NA
HETATM    6  C   UNL     1     -40.993  58.120 -50.155  1.00  0.00     0.160 A 
HETATM    7  C   UNL     1     -42.148  57.956 -50.957  1.00  0.00     0.096 A 
HETATM    8  C   UNL     1     -40.955  54.623 -50.251  1.00  0.00     0.221 C 
HETATM    9  C   UNL     1     -42.221  53.827 -50.625  1.00  0.00     0.066 C 
HETATM   10  H   UNL     1     -44.146  55.976 -51.659  1.00  0.00     0.161 HD
ENDROOT
BRANCH   7  11
HETATM   11  C   UNL     1     -42.940  59.032 -51.525  1.00  0.00     0.257 C 
HETATM   12  N   UNL     1     -43.178  60.092 -50.683  1.00  0.00    -0.352 N 
HETATM   13  H   UNL     1     -42.926  59.971 -49.712  1.00  0.00     0.163 HD
HETATM   14  O   UNL     1     -43.397  58.967 -52.662  1.00  0.00    -0.267 OA
BRANCH  12  15
HETATM   15  C   UNL     1     -44.134  61.114 -51.030  1.00  0.00     0.161 C 
BRANCH  15  16
HETATM   16  C   UNL     1     -43.965  62.339 -50.172  1.00  0.00    -0.041 A 
HETATM   17  C   UNL     1     -42.823  63.142 -50.309  1.00  0.00     0.009 A 
HETATM   18  C   UNL     1     -42.664  64.290 -49.532  1.00  0.00     0.001 A 
HETATM   19  C   UNL     1     -43.639  64.642 -48.602  1.00  0.00     0.000 A 
HETATM   20  C   UNL     1     -44.772  63.844 -48.445  1.00  0.00     0.001 A 
HETATM   21  C   UNL     1     -44.935  62.698 -49.225  1.00  0.00     0.009 A 
ENDBRANCH  15  16
ENDBRANCH  12  15
ENDBRANCH   7  11
BRANCH   1  22
HETATM   22  C   UNL     1     -41.989  54.113 -53.183  1.00  0.00    -0.033 A 
HETATM   23  C   UNL     1     -41.207  52.947 -53.331  1.00  0.00     0.046 A 
HETATM   24  C   UNL     1     -40.425  52.729 -54.468  1.00  0.00     0.068 A 
HETATM   25  C   UNL     1     -40.396  53.696 -55.471  1.00  0.00     0.037 A 
HETATM   26  C   UNL     1     -41.133  54.870 -55.338  1.00  0.00     0.003 A 
HETATM   27  C   UNL     1     -41.913  55.082 -54.199  1.00  0.00     0.009 A 
BRANCH  24  28
HETATM   28  O   UNL     1     -39.648  51.630 -54.708  1.00  0.00    -0.356 OA
HETATM   29  C   UNL     1     -40.159  50.373 -54.282  1.00  0.00     0.210 C 
ENDBRANCH  24  28
ENDBRANCH   1  22
BRANCH   8  30
HETATM   30  C   UNL     1     -40.521  54.242 -48.851  1.00  0.00     0.409 C 
HETATM   31  F   UNL     1     -40.773  52.945 -48.567  1.00  0.00    -0.169 F 
HETATM   32  F   UNL     1     -39.171  54.401 -48.741  1.00  0.00    -0.169 F 
HETATM   33  F   UNL     1     -41.063  55.007 -47.883  1.00  0.00    -0.169 F 
ENDBRANCH   8  30
TORSDOF 6
ENDMDL
MODEL 9
REMARK VINA RESULT:      -7.6      4.428      8.945
REMARK  6 active torsions:
REMARK  status: ('A' for Active; 'I' for Inactive)
REMARK    1  A    between atoms: O_2  and  C_3 
REMARK    2  A    between atoms: C_5  and  C_6 
REMARK    3  A    between atoms: C_12  and  C_13 
REMARK       I    between atoms: C_13  and  N_14 
REMARK    4  A    between atoms: N_14  and  C_15 
REMARK    5  A    between atoms: C_15  and  C_16 
REMARK    6  A    between atoms: C_23  and  C_24 
ROOT
HETATM    1  C   UNL     1     -46.010  58.500 -58.290  1.00  0.00     0.118 C 
HETATM    2  N   UNL     1     -45.135  57.860 -57.292  1.00  0.00    -0.365 N 
HETATM    3  C   UNL     1     -44.203  56.949 -57.694  1.00  0.00     0.138 A 
HETATM    4  N   UNL     1     -44.234  56.423 -58.967  1.00  0.00    -0.240 N 
HETATM    5  N   UNL     1     -43.231  55.573 -59.224  1.00  0.00    -0.181 NA
HETATM    6  C   UNL     1     -42.573  55.513 -58.064  1.00  0.00     0.160 A 
HETATM    7  C   UNL     1     -43.119  56.359 -57.068  1.00  0.00     0.096 A 
HETATM    8  C   UNL     1     -45.225  56.766 -59.971  1.00  0.00     0.221 C 
HETATM    9  C   UNL     1     -46.446  57.422 -59.297  1.00  0.00     0.066 C 
HETATM   10  H   UNL     1     -45.572  57.742 -56.376  1.00  0.00     0.161 HD
ENDROOT
BRANCH   7  11
HETATM   11  C   UNL     1     -42.570  56.562 -55.740  1.00  0.00     0.257 C 
HETATM   12  N   UNL     1     -41.414  55.867 -55.471  1.00  0.00    -0.352 N 
HETATM   13  H   UNL     1     -41.134  55.167 -56.146  1.00  0.00     0.163 HD
HETATM   14  O   UNL     1     -43.131  57.268 -54.908  1.00  0.00    -0.267 OA
BRANCH  12  15
HETATM   15  C   UNL     1     -40.889  55.789 -54.131  1.00  0.00     0.161 C 
BRANCH  15  16
HETATM   16  C   UNL     1     -40.581  54.368 -53.743  1.00  0.00    -0.041 A 
HETATM   17  C   UNL     1     -40.328  53.408 -54.732  1.00  0.00     0.009 A 
HETATM   18  C   UNL     1     -40.023  52.091 -54.384  1.00  0.00     0.001 A 
HETATM   19  C   UNL     1     -39.979  51.719 -53.042  1.00  0.00     0.000 A 
HETATM   20  C   UNL     1     -40.243  52.661 -52.049  1.00  0.00     0.001 A 
HETATM   21  C   UNL     1     -40.544  53.980 -52.396  1.00  0.00     0.009 A 
ENDBRANCH  15  16
ENDBRANCH  12  15
ENDBRANCH   7  11
BRANCH   1  22
HETATM   22  C   UNL     1     -45.349  59.731 -58.914  1.00  0.00    -0.033 A 
HETATM   23  C   UNL     1     -44.258  60.375 -58.292  1.00  0.00     0.046 A 
HETATM   24  C   UNL     1     -43.655  61.503 -58.855  1.00  0.00     0.068 A 
HETATM   25  C   UNL     1     -44.158  62.020 -60.048  1.00  0.00     0.037 A 
HETATM   26  C   UNL     1     -45.252  61.423 -60.668  1.00  0.00     0.003 A 
HETATM   27  C   UNL     1     -45.850  60.296 -60.100  1.00  0.00     0.009 A 
BRANCH  24  28
HETATM   28  O   UNL     1     -42.590  62.186 -58.337  1.00  0.00    -0.356 OA
HETATM   29  C   UNL     1     -41.338  61.514 -58.324  1.00  0.00     0.210 C 
ENDBRANCH  24  28
ENDBRANCH   1  22
BRANCH   8  30
HETATM   30  C   UNL     1     -45.682  55.560 -60.765  1.00  0.00     0.409 C 
HETATM   31  F   UNL     1     -45.828  54.458 -59.995  1.00  0.00    -0.169 F 
HETATM   32  F   UNL     1     -46.909  55.815 -61.302  1.00  0.00    -0.169 F 
HETATM   33  F   UNL     1     -44.881  55.254 -61.805  1.00  0.00    -0.169 F 
ENDBRANCH   8  30
TORSDOF 6
ENDMDL
MODEL 10
REMARK VINA RESULT:      -7.6      3.860      7.523
REMARK  6 active torsions:
REMARK  status: ('A' for Active; 'I' for Inactive)
REMARK    1  A    between atoms: O_2  and  C_3 
REMARK    2  A    between atoms: C_5  and  C_6 
REMARK    3  A    between atoms: C_12  and  C_13 
REMARK       I    between atoms: C_13  and  N_14 
REMARK    4  A    between atoms: N_14  and  C_15 
REMARK    5  A    between atoms: C_15  and  C_16 
REMARK    6  A    between atoms: C_23  and  C_24 
ROOT
HETATM    1  C   UNL     1     -43.511  54.999 -51.950  1.00  0.00     0.118 C 
HETATM    2  N   UNL     1     -43.683  56.409 -51.559  1.00  0.00    -0.365 N 
HETATM    3  C   UNL     1     -42.624  57.107 -51.056  1.00  0.00     0.138 A 
HETATM    4  N   UNL     1     -41.474  56.457 -50.665  1.00  0.00    -0.240 N 
HETATM    5  N   UNL     1     -40.511  57.280 -50.232  1.00  0.00    -0.181 NA
HETATM    6  C   UNL     1     -41.083  58.485 -50.296  1.00  0.00     0.160 A 
HETATM    7  C   UNL     1     -42.400  58.450 -50.816  1.00  0.00     0.096 A 
HETATM    8  C   UNL     1     -41.279  55.020 -50.739  1.00  0.00     0.221 C 
HETATM    9  C   UNL     1     -42.642  54.315 -50.881  1.00  0.00     0.066 C 
HETATM   10  H   UNL     1     -44.621  56.631 -51.219  1.00  0.00     0.161 HD
ENDROOT
BRANCH   7  11
HETATM   11  C   UNL     1     -43.235  59.609 -51.075  1.00  0.00     0.257 C 
HETATM   12  N   UNL     1     -43.357  60.490 -50.026  1.00  0.00    -0.352 N 
HETATM   13  H   UNL     1     -42.996  60.188 -49.131  1.00  0.00     0.163 HD
HETATM   14  O   UNL     1     -43.822  59.758 -52.142  1.00  0.00    -0.267 OA
BRANCH  12  15
HETATM   15  C   UNL     1     -44.331  61.553 -50.059  1.00  0.00     0.161 C 
BRANCH  15  16
HETATM   16  C   UNL     1     -44.651  62.048 -48.675  1.00  0.00    -0.041 A 
HETATM   17  C   UNL     1     -44.651  63.424 -48.402  1.00  0.00     0.009 A 
HETATM   18  C   UNL     1     -44.964  63.895 -47.127  1.00  0.00     0.001 A 
HETATM   19  C   UNL     1     -45.270  62.996 -46.108  1.00  0.00     0.000 A 
HETATM   20  C   UNL     1     -45.259  61.625 -46.362  1.00  0.00     0.001 A 
HETATM   21  C   UNL     1     -44.950  61.152 -47.639  1.00  0.00     0.009 A 
ENDBRANCH  15  16
ENDBRANCH  12  15
ENDBRANCH   7  11
BRANCH   1  22
HETATM   22  C   UNL     1     -42.987  54.869 -53.381  1.00  0.00    -0.033 A 
HETATM   23  C   UNL     1     -43.411  55.747 -54.402  1.00  0.00     0.046 A 
HETATM   24  C   UNL     1     -42.940  55.630 -55.712  1.00  0.00     0.068 A 
HETATM   25  C   UNL     1     -42.049  54.605 -56.026  1.00  0.00     0.037 A 
HETATM   26  C   UNL     1     -41.638  53.706 -55.046  1.00  0.00     0.003 A 
HETATM   27  C   UNL     1     -42.112  53.829 -53.738  1.00  0.00     0.009 A 
BRANCH  24  28
HETATM   28  O   UNL     1     -43.281  56.436 -56.762  1.00  0.00    -0.356 OA
HETATM   29  C   UNL     1     -43.248  55.854 -58.059  1.00  0.00     0.210 C 
ENDBRANCH  24  28
ENDBRANCH   1  22
BRANCH   8  30
HETATM   30  C   UNL     1     -40.558  54.474 -49.524  1.00  0.00     0.409 C 
HETATM   31  F   UNL     1     -40.712  53.138 -49.389  1.00  0.00    -0.169 F 
HETATM   32  F   UNL     1     -39.219  54.691 -49.662  1.00  0.00    -0.169 F 
HETATM   33  F   UNL     1     -40.911  55.066 -48.366  1.00  0.00    -0.169 F 
ENDBRANCH   8  30
TORSDOF 6
ENDMDL
