MODEL 1
REMARK VINA RESULT:      -9.3      0.000      0.000
REMARK  5 active torsions:
REMARK  status: ('A' for Active; 'I' for Inactive)
REMARK    1  A    between atoms: C_11  and  C_12 
REMARK    2  A    between atoms: C_15  and  N_16 
REMARK    3  A    between atoms: N_16  and  C_17 
REMARK    4  A    between atoms: C_18  and  O_19 
REMARK    5  A    between atoms: O_19  and  C_20 
ROOT
HETATM    1  C   UNL     1     -42.679  58.229 -54.362  1.00  0.00     0.077 C 
HETATM    2  C   UNL     1     -42.598  59.733 -54.160  1.00  0.00     0.023 C 
HETATM    3  N   UNL     1     -42.530  60.982 -53.993  1.00  0.00    -0.096 N 
HETATM    4  C   UNL     1     -43.166  57.794 -55.545  1.00  0.00     0.087 C 
ENDROOT
BRANCH   1   5
HETATM    5  C   UNL     1     -42.317  57.345 -53.298  1.00  0.00     0.118 A 
HETATM    6  N   UNL     1     -41.755  56.154 -53.437  1.00  0.00    -0.239 NA
HETATM    7  C   UNL     1     -41.498  55.559 -52.205  1.00  0.00     0.081 A 
HETATM    8  C   UNL     1     -40.905  54.245 -52.172  1.00  0.00     0.070 A 
HETATM    9  C   UNL     1     -41.898  56.304 -51.118  1.00  0.00     0.084 A 
HETATM   10  C   UNL     1     -40.175  53.784 -50.946  1.00  0.00     0.301 A 
HETATM   11  C   UNL     1     -40.988  53.415 -53.231  1.00  0.00     0.034 A 
HETATM   12  O   UNL     1     -39.679  52.482 -50.940  1.00  0.00    -0.274 OA
HETATM   13  O   UNL     1     -40.005  54.500 -49.962  1.00  0.00    -0.259 OA
HETATM   14  C   UNL     1     -39.798  51.636 -52.051  1.00  0.00     0.089 A 
HETATM   15  C   UNL     1     -40.431  52.075 -53.206  1.00  0.00    -0.001 A 
HETATM   16  C   UNL     1     -39.258  50.357 -51.948  1.00  0.00     0.038 A 
HETATM   17  C   UNL     1     -40.525  51.204 -54.293  1.00  0.00     0.014 A 
HETATM   18  C   UNL     1     -39.989  49.915 -54.207  1.00  0.00     0.001 A 
HETATM   19  C   UNL     1     -39.357  49.491 -53.035  1.00  0.00     0.003 A 
HETATM   20  S   UNL     1     -42.557  57.791 -51.631  1.00  0.00    -0.078 SA
ENDBRANCH   1   5
BRANCH   4  21
HETATM   21  N   UNL     1     -43.585  58.573 -56.609  1.00  0.00    -0.266 NA
HETATM   22  H   UNL     1     -43.668  59.566 -56.370  1.00  0.00     0.133 HD
BRANCH  21  23
HETATM   23  C   UNL     1     -44.721  58.259 -57.411  1.00  0.00     0.046 A 
HETATM   24  C   UNL     1     -44.510  57.705 -58.688  1.00  0.00     0.096 A 
HETATM   25  C   UNL     1     -45.571  57.395 -59.538  1.00  0.00     0.039 A 
HETATM   26  C   UNL     1     -46.877  57.586 -59.096  1.00  0.00     0.003 A 
HETATM   27  C   UNL     1     -47.111  58.082 -57.813  1.00  0.00     0.002 A 
HETATM   28  C   UNL     1     -46.041  58.407 -56.972  1.00  0.00     0.026 A 
BRANCH  24  29
HETATM   29  O   UNL     1     -43.226  57.492 -59.123  1.00  0.00    -0.288 OA
BRANCH  29  30
HETATM   30  C   UNL     1     -43.041  56.097 -59.353  1.00  0.00     0.505 C 
HETATM   31  F   UNL     1     -41.872  55.927 -60.023  1.00  0.00    -0.184 F 
HETATM   32  F   UNL     1     -42.877  55.513 -58.139  1.00  0.00    -0.184 F 
ENDBRANCH  29  30
ENDBRANCH  24  29
ENDBRANCH  21  23
ENDBRANCH   4  21
TORSDOF 5
ENDMDL
MODEL 2
REMARK VINA RESULT:      -9.1      1.883      2.551
REMARK  5 active torsions:
REMARK  status: ('A' for Active; 'I' for Inactive)
REMARK    1  A    between atoms: C_11  and  C_12 
REMARK    2  A    between atoms: C_15  and  N_16 
REMARK    3  A    between atoms: N_16  and  C_17 
REMARK    4  A    between atoms: C_18  and  O_19 
REMARK    5  A    between atoms: O_19  and  C_20 
ROOT
HETATM    1  C   UNL     1     -43.107  57.601 -55.851  1.00  0.00     0.077 C 
HETATM    2  C   UNL     1     -43.601  59.038 -55.842  1.00  0.00     0.023 C 
HETATM    3  N   UNL     1     -44.010  60.231 -55.835  1.00  0.00    -0.096 N 
HETATM    4  C   UNL     1     -43.061  56.975 -57.047  1.00  0.00     0.087 C 
ENDROOT
BRANCH   1   5
HETATM    5  C   UNL     1     -42.785  56.949 -54.620  1.00  0.00     0.118 A 
HETATM    6  N   UNL     1     -42.111  55.816 -54.496  1.00  0.00    -0.239 NA
HETATM    7  C   UNL     1     -41.935  55.465 -53.160  1.00  0.00     0.081 A 
HETATM    8  C   UNL     1     -41.238  54.242 -52.844  1.00  0.00     0.070 A 
HETATM    9  C   UNL     1     -42.510  56.335 -52.262  1.00  0.00     0.084 A 
HETATM   10  C   UNL     1     -40.605  54.070 -51.495  1.00  0.00     0.301 A 
HETATM   11  C   UNL     1     -41.139  53.243 -53.743  1.00  0.00     0.034 A 
HETATM   12  O   UNL     1     -40.003  52.845 -51.216  1.00  0.00    -0.274 OA
HETATM   13  O   UNL     1     -40.602  54.953 -50.642  1.00  0.00    -0.259 OA
HETATM   14  C   UNL     1     -39.931  51.818 -52.166  1.00  0.00     0.089 A 
HETATM   15  C   UNL     1     -40.475  51.990 -53.432  1.00  0.00    -0.001 A 
HETATM   16  C   UNL     1     -39.298  50.636 -51.792  1.00  0.00     0.038 A 
HETATM   17  C   UNL     1     -40.380  50.944 -54.352  1.00  0.00     0.014 A 
HETATM   18  C   UNL     1     -39.747  49.750 -53.993  1.00  0.00     0.001 A 
HETATM   19  C   UNL     1     -39.208  49.595 -52.713  1.00  0.00     0.003 A 
HETATM   20  S   UNL     1     -43.236  57.640 -53.086  1.00  0.00    -0.078 SA
ENDBRANCH   1   5
BRANCH   4  21
HETATM   21  N   UNL     1     -43.399  57.508 -58.279  1.00  0.00    -0.266 NA
HETATM   22  H   UNL     1     -43.700  58.487 -58.222  1.00  0.00     0.133 HD
BRANCH  21  23
HETATM   23  C   UNL     1     -44.287  56.870 -59.193  1.00  0.00     0.046 A 
HETATM   24  C   UNL     1     -45.602  57.361 -59.305  1.00  0.00     0.096 A 
HETATM   25  C   UNL     1     -46.535  56.774 -60.160  1.00  0.00     0.039 A 
HETATM   26  C   UNL     1     -46.145  55.708 -60.965  1.00  0.00     0.003 A 
HETATM   27  C   UNL     1     -44.831  55.240 -60.911  1.00  0.00     0.002 A 
HETATM   28  C   UNL     1     -43.905  55.823 -60.038  1.00  0.00     0.026 A 
BRANCH  24  29
HETATM   29  O   UNL     1     -45.989  58.427 -58.531  1.00  0.00    -0.288 OA
BRANCH  29  30
HETATM   30  C   UNL     1     -47.094  58.034 -57.720  1.00  0.00     0.505 C 
HETATM   31  F   UNL     1     -46.646  57.849 -56.451  1.00  0.00    -0.184 F 
HETATM   32  F   UNL     1     -47.948  59.087 -57.677  1.00  0.00    -0.184 F 
ENDBRANCH  29  30
ENDBRANCH  24  29
ENDBRANCH  21  23
ENDBRANCH   4  21
TORSDOF 5
ENDMDL
MODEL 3
REMARK VINA RESULT:      -9.0      2.553      2.900
REMARK  5 active torsions:
REMARK  status: ('A' for Active; 'I' for Inactive)
REMARK    1  A    between atoms: C_11  and  C_12 
REMARK    2  A    between atoms: C_15  and  N_16 
REMARK    3  A    between atoms: N_16  and  C_17 
REMARK    4  A    between atoms: C_18  and  O_19 
REMARK    5  A    between atoms: O_19  and  C_20 
ROOT
HETATM    1  C   UNL     1     -42.038  58.611 -54.015  1.00  0.00     0.077 C 
HETATM    2  C   UNL     1     -42.339  60.048 -53.623  1.00  0.00     0.023 C 
HETATM    3  N   UNL     1     -42.587  61.241 -53.298  1.00  0.00    -0.096 N 
HETATM    4  C   UNL     1     -42.041  58.321 -55.334  1.00  0.00     0.087 C 
ENDROOT
BRANCH   1   5
HETATM    5  C   UNL     1     -41.839  57.621 -53.002  1.00  0.00     0.118 A 
HETATM    6  N   UNL     1     -41.357  56.403 -53.192  1.00  0.00    -0.239 NA
HETATM    7  C   UNL     1     -41.256  55.696 -51.997  1.00  0.00     0.081 A 
HETATM    8  C   UNL     1     -40.767  54.339 -52.025  1.00  0.00     0.070 A 
HETATM    9  C   UNL     1     -41.694  56.385 -50.889  1.00  0.00     0.084 A 
HETATM   10  C   UNL     1     -40.186  53.728 -50.785  1.00  0.00     0.301 A 
HETATM   11  C   UNL     1     -40.819  53.603 -53.153  1.00  0.00     0.034 A 
HETATM   12  O   UNL     1     -39.791  52.394 -50.847  1.00  0.00    -0.274 OA
HETATM   13  O   UNL     1     -40.052  54.350 -49.735  1.00  0.00    -0.259 OA
HETATM   14  C   UNL     1     -39.873  51.648 -52.031  1.00  0.00     0.089 A 
HETATM   15  C   UNL     1     -40.367  52.223 -53.193  1.00  0.00    -0.001 A 
HETATM   16  C   UNL     1     -39.442  50.325 -51.990  1.00  0.00     0.038 A 
HETATM   17  C   UNL     1     -40.429  51.449 -54.353  1.00  0.00     0.014 A 
HETATM   18  C   UNL     1     -40.000  50.118 -54.331  1.00  0.00     0.001 A 
HETATM   19  C   UNL     1     -39.508  49.555 -53.150  1.00  0.00     0.003 A 
HETATM   20  S   UNL     1     -42.193  57.956 -51.329  1.00  0.00    -0.078 SA
ENDBRANCH   1   5
BRANCH   4  21
HETATM   21  N   UNL     1     -42.271  59.199 -56.379  1.00  0.00    -0.266 NA
HETATM   22  H   UNL     1     -43.118  59.762 -56.248  1.00  0.00     0.133 HD
BRANCH  21  23
HETATM   23  C   UNL     1     -42.260  58.808 -57.749  1.00  0.00     0.046 A 
HETATM   24  C   UNL     1     -42.022  59.793 -58.727  1.00  0.00     0.096 A 
HETATM   25  C   UNL     1     -42.018  59.490 -60.088  1.00  0.00     0.039 A 
HETATM   26  C   UNL     1     -42.202  58.172 -60.494  1.00  0.00     0.003 A 
HETATM   27  C   UNL     1     -42.384  57.169 -59.540  1.00  0.00     0.002 A 
HETATM   28  C   UNL     1     -42.403  57.484 -58.176  1.00  0.00     0.026 A 
BRANCH  24  29
HETATM   29  O   UNL     1     -41.817  61.092 -58.334  1.00  0.00    -0.288 OA
BRANCH  29  30
HETATM   30  C   UNL     1     -41.003  61.746 -59.305  1.00  0.00     0.505 C 
HETATM   31  F   UNL     1     -41.646  62.871 -59.712  1.00  0.00    -0.184 F 
HETATM   32  F   UNL     1     -39.878  62.156 -58.668  1.00  0.00    -0.184 F 
ENDBRANCH  29  30
ENDBRANCH  24  29
ENDBRANCH  21  23
ENDBRANCH   4  21
TORSDOF 5
ENDMDL
MODEL 4
REMARK VINA RESULT:      -8.9      1.616      1.986
REMARK  5 active torsions:
REMARK  status: ('A' for Active; 'I' for Inactive)
REMARK    1  A    between atoms: C_11  and  C_12 
REMARK    2  A    between atoms: C_15  and  N_16 
REMARK    3  A    between atoms: N_16  and  C_17 
REMARK    4  A    between atoms: C_18  and  O_19 
REMARK    5  A    between atoms: O_19  and  C_20 
ROOT
HETATM    1  C   UNL     1     -42.400  58.679 -54.085  1.00  0.00     0.077 C 
HETATM    2  C   UNL     1     -42.517  60.153 -53.732  1.00  0.00     0.023 C 
HETATM    3  N   UNL     1     -42.613  61.376 -53.438  1.00  0.00    -0.096 N 
HETATM    4  C   UNL     1     -42.671  58.332 -55.362  1.00  0.00     0.087 C 
ENDROOT
BRANCH   1   5
HETATM    5  C   UNL     1     -42.087  57.723 -53.069  1.00  0.00     0.118 A 
HETATM    6  N   UNL     1     -41.586  56.514 -53.270  1.00  0.00    -0.239 NA
HETATM    7  C   UNL     1     -41.364  55.843 -52.070  1.00  0.00     0.081 A 
HETATM    8  C   UNL     1     -40.838  54.500 -52.107  1.00  0.00     0.070 A 
HETATM    9  C   UNL     1     -41.729  56.549 -50.947  1.00  0.00     0.084 A 
HETATM   10  C   UNL     1     -40.137  53.939 -50.906  1.00  0.00     0.301 A 
HETATM   11  C   UNL     1     -40.961  53.733 -53.208  1.00  0.00     0.034 A 
HETATM   12  O   UNL     1     -39.709  52.615 -50.968  1.00  0.00    -0.274 OA
HETATM   13  O   UNL     1     -39.934  54.593 -49.886  1.00  0.00    -0.259 OA
HETATM   14  C   UNL     1     -39.867  51.836 -52.122  1.00  0.00     0.089 A 
HETATM   15  C   UNL     1     -40.473  52.366 -53.253  1.00  0.00    -0.001 A 
HETATM   16  C   UNL     1     -39.394  50.527 -52.086  1.00  0.00     0.038 A 
HETATM   17  C   UNL     1     -40.609  51.559 -54.384  1.00  0.00     0.014 A 
HETATM   18  C   UNL     1     -40.139  50.242 -54.365  1.00  0.00     0.001 A 
HETATM   19  C   UNL     1     -39.533  49.725 -53.217  1.00  0.00     0.003 A 
HETATM   20  S   UNL     1     -42.310  58.093 -51.381  1.00  0.00    -0.078 SA
ENDBRANCH   1   5
BRANCH   4  21
HETATM   21  N   UNL     1     -43.029  59.178 -56.397  1.00  0.00    -0.266 NA
HETATM   22  H   UNL     1     -44.026  59.417 -56.392  1.00  0.00     0.133 HD
BRANCH  21  23
HETATM   23  C   UNL     1     -42.682  58.941 -57.759  1.00  0.00     0.046 A 
HETATM   24  C   UNL     1     -42.993  57.689 -58.324  1.00  0.00     0.096 A 
HETATM   25  C   UNL     1     -42.664  57.376 -59.642  1.00  0.00     0.039 A 
HETATM   26  C   UNL     1     -42.061  58.342 -60.441  1.00  0.00     0.003 A 
HETATM   27  C   UNL     1     -41.793  59.609 -59.920  1.00  0.00     0.002 A 
HETATM   28  C   UNL     1     -42.111  59.910 -58.590  1.00  0.00     0.026 A 
BRANCH  24  29
HETATM   29  O   UNL     1     -43.610  56.738 -57.549  1.00  0.00    -0.288 OA
BRANCH  29  30
HETATM   30  C   UNL     1     -42.909  55.504 -57.687  1.00  0.00     0.505 C 
HETATM   31  F   UNL     1     -42.327  55.208 -56.497  1.00  0.00    -0.184 F 
HETATM   32  F   UNL     1     -43.842  54.542 -57.909  1.00  0.00    -0.184 F 
ENDBRANCH  29  30
ENDBRANCH  24  29
ENDBRANCH  21  23
ENDBRANCH   4  21
TORSDOF 5
ENDMDL
MODEL 5
REMARK VINA RESULT:      -8.8      5.643      7.841
REMARK  5 active torsions:
REMARK  status: ('A' for Active; 'I' for Inactive)
REMARK    1  A    between atoms: C_11  and  C_12 
REMARK    2  A    between atoms: C_15  and  N_16 
REMARK    3  A    between atoms: N_16  and  C_17 
REMARK    4  A    between atoms: C_18  and  O_19 
REMARK    5  A    between atoms: O_19  and  C_20 
ROOT
HETATM    1  C   UNL     1     -44.944  59.142 -51.788  1.00  0.00     0.077 C 
HETATM    2  C   UNL     1     -45.834  60.220 -52.385  1.00  0.00     0.023 C 
HETATM    3  N   UNL     1     -46.574  61.114 -52.880  1.00  0.00    -0.096 N 
HETATM    4  C   UNL     1     -45.101  58.874 -50.474  1.00  0.00     0.087 C 
ENDROOT
BRANCH   1   5
HETATM    5  C   UNL     1     -43.945  58.513 -52.596  1.00  0.00     0.118 A 
HETATM    6  N   UNL     1     -43.428  57.311 -52.393  1.00  0.00    -0.239 NA
HETATM    7  C   UNL     1     -42.502  56.976 -53.378  1.00  0.00     0.081 A 
HETATM    8  C   UNL     1     -41.825  55.705 -53.298  1.00  0.00     0.070 A 
HETATM    9  C   UNL     1     -42.298  57.954 -54.324  1.00  0.00     0.084 A 
HETATM   10  C   UNL     1     -41.225  55.098 -54.532  1.00  0.00     0.301 A 
HETATM   11  C   UNL     1     -41.722  55.041 -52.129  1.00  0.00     0.034 A 
HETATM   12  O   UNL     1     -40.523  53.904 -54.388  1.00  0.00    -0.274 OA
HETATM   13  O   UNL     1     -41.325  55.612 -55.643  1.00  0.00    -0.259 OA
HETATM   14  C   UNL     1     -40.419  53.246 -53.155  1.00  0.00     0.089 A 
HETATM   15  C   UNL     1     -41.013  53.779 -52.020  1.00  0.00    -0.001 A 
HETATM   16  C   UNL     1     -39.705  52.051 -53.120  1.00  0.00     0.038 A 
HETATM   17  C   UNL     1     -40.889  53.092 -50.811  1.00  0.00     0.014 A 
HETATM   18  C   UNL     1     -40.176  51.890 -50.757  1.00  0.00     0.001 A 
HETATM   19  C   UNL     1     -39.583  51.370 -51.911  1.00  0.00     0.003 A 
HETATM   20  S   UNL     1     -43.311  59.292 -54.019  1.00  0.00    -0.078 SA
ENDBRANCH   1   5
BRANCH   4  21
HETATM   21  N   UNL     1     -46.003  59.465 -49.606  1.00  0.00    -0.266 NA
HETATM   22  H   UNL     1     -46.865  59.769 -50.071  1.00  0.00     0.133 HD
BRANCH  21  23
HETATM   23  C   UNL     1     -45.652  60.504 -48.697  1.00  0.00     0.046 A 
HETATM   24  C   UNL     1     -45.884  60.302 -47.323  1.00  0.00     0.096 A 
HETATM   25  C   UNL     1     -45.588  61.282 -46.376  1.00  0.00     0.039 A 
HETATM   26  C   UNL     1     -44.998  62.473 -46.790  1.00  0.00     0.003 A 
HETATM   27  C   UNL     1     -44.708  62.673 -48.140  1.00  0.00     0.002 A 
HETATM   28  C   UNL     1     -45.023  61.691 -49.087  1.00  0.00     0.026 A 
BRANCH  24  29
HETATM   29  O   UNL     1     -46.444  59.121 -46.904  1.00  0.00    -0.288 OA
BRANCH  29  30
HETATM   30  C   UNL     1     -46.979  59.302 -45.594  1.00  0.00     0.505 C 
HETATM   31  F   UNL     1     -48.254  58.836 -45.586  1.00  0.00    -0.184 F 
HETATM   32  F   UNL     1     -46.270  58.496 -44.763  1.00  0.00    -0.184 F 
ENDBRANCH  29  30
ENDBRANCH  24  29
ENDBRANCH  21  23
ENDBRANCH   4  21
TORSDOF 5
ENDMDL
MODEL 6
REMARK VINA RESULT:      -8.8      2.823      3.891
REMARK  5 active torsions:
REMARK  status: ('A' for Active; 'I' for Inactive)
REMARK    1  A    between atoms: C_11  and  C_12 
REMARK    2  A    between atoms: C_15  and  N_16 
REMARK    3  A    between atoms: N_16  and  C_17 
REMARK    4  A    between atoms: C_18  and  O_19 
REMARK    5  A    between atoms: O_19  and  C_20 
ROOT
HETATM    1  C   UNL     1     -42.974  56.399 -58.172  1.00  0.00     0.077 C 
HETATM    2  C   UNL     1     -43.754  55.398 -59.008  1.00  0.00     0.023 C 
HETATM    3  N   UNL     1     -44.403  54.568 -59.702  1.00  0.00    -0.096 N 
HETATM    4  C   UNL     1     -42.399  57.430 -58.828  1.00  0.00     0.087 C 
ENDROOT
BRANCH   1   5
HETATM    5  C   UNL     1     -42.815  56.186 -56.767  1.00  0.00     0.118 A 
HETATM    6  N   UNL     1     -42.130  55.203 -56.205  1.00  0.00    -0.239 NA
HETATM    7  C   UNL     1     -42.141  55.296 -54.816  1.00  0.00     0.081 A 
HETATM    8  C   UNL     1     -41.458  54.288 -54.041  1.00  0.00     0.070 A 
HETATM    9  C   UNL     1     -42.871  56.353 -54.322  1.00  0.00     0.084 A 
HETATM   10  C   UNL     1     -41.025  54.591 -52.637  1.00  0.00     0.301 A 
HETATM   11  C   UNL     1     -41.194  53.072 -54.557  1.00  0.00     0.034 A 
HETATM   12  O   UNL     1     -40.430  53.563 -51.909  1.00  0.00    -0.274 OA
HETATM   13  O   UNL     1     -41.177  55.692 -52.115  1.00  0.00    -0.259 OA
HETATM   14  C   UNL     1     -40.184  52.302 -52.468  1.00  0.00     0.089 A 
HETATM   15  C   UNL     1     -40.541  52.032 -53.782  1.00  0.00    -0.001 A 
HETATM   16  C   UNL     1     -39.574  51.346 -51.660  1.00  0.00     0.038 A 
HETATM   17  C   UNL     1     -40.276  50.764 -54.304  1.00  0.00     0.014 A 
HETATM   18  C   UNL     1     -39.663  49.792 -53.506  1.00  0.00     0.001 A 
HETATM   19  C   UNL     1     -39.314  50.082 -52.185  1.00  0.00     0.003 A 
HETATM   20  S   UNL     1     -43.511  57.279 -55.603  1.00  0.00    -0.078 SA
ENDBRANCH   1   5
BRANCH   4  21
HETATM   21  N   UNL     1     -42.457  57.689 -60.187  1.00  0.00    -0.266 NA
HETATM   22  H   UNL     1     -41.606  57.407 -60.684  1.00  0.00     0.133 HD
BRANCH  21  23
HETATM   23  C   UNL     1     -42.837  58.951 -60.730  1.00  0.00     0.046 A 
HETATM   24  C   UNL     1     -44.209  59.254 -60.829  1.00  0.00     0.096 A 
HETATM   25  C   UNL     1     -44.657  60.458 -61.370  1.00  0.00     0.039 A 
HETATM   26  C   UNL     1     -43.728  61.411 -61.776  1.00  0.00     0.003 A 
HETATM   27  C   UNL     1     -42.363  61.155 -61.636  1.00  0.00     0.002 A 
HETATM   28  C   UNL     1     -41.920  59.937 -61.107  1.00  0.00     0.026 A 
BRANCH  24  29
HETATM   29  O   UNL     1     -45.132  58.329 -60.410  1.00  0.00    -0.288 OA
BRANCH  29  30
HETATM   30  C   UNL     1     -45.967  58.924 -59.419  1.00  0.00     0.505 C 
HETATM   31  F   UNL     1     -46.899  58.011 -59.042  1.00  0.00    -0.184 F 
HETATM   32  F   UNL     1     -45.189  59.151 -58.330  1.00  0.00    -0.184 F 
ENDBRANCH  29  30
ENDBRANCH  24  29
ENDBRANCH  21  23
ENDBRANCH   4  21
TORSDOF 5
ENDMDL
MODEL 7
REMARK VINA RESULT:      -8.7      2.108      3.005
REMARK  5 active torsions:
REMARK  status: ('A' for Active; 'I' for Inactive)
REMARK    1  A    between atoms: C_11  and  C_12 
REMARK    2  A    between atoms: C_15  and  N_16 
REMARK    3  A    between atoms: N_16  and  C_17 
REMARK    4  A    between atoms: C_18  and  O_19 
REMARK    5  A    between atoms: O_19  and  C_20 
ROOT
HETATM    1  C   UNL     1     -44.005  57.757 -57.393  1.00  0.00     0.077 C 
HETATM    2  C   UNL     1     -42.753  57.833 -58.251  1.00  0.00     0.023 C 
HETATM    3  N   UNL     1     -41.714  57.895 -58.964  1.00  0.00    -0.096 N 
HETATM    4  C   UNL     1     -45.154  58.205 -57.943  1.00  0.00     0.087 C 
ENDROOT
BRANCH   1   5
HETATM    5  C   UNL     1     -43.918  57.294 -56.042  1.00  0.00     0.118 A 
HETATM    6  N   UNL     1     -43.052  56.405 -55.582  1.00  0.00    -0.239 NA
HETATM    7  C   UNL     1     -43.207  56.196 -54.214  1.00  0.00     0.081 A 
HETATM    8  C   UNL     1     -42.355  55.238 -53.552  1.00  0.00     0.070 A 
HETATM    9  C   UNL     1     -44.226  56.921 -53.639  1.00  0.00     0.084 A 
HETATM   10  C   UNL     1     -42.138  55.329 -52.070  1.00  0.00     0.301 A 
HETATM   11  C   UNL     1     -41.741  54.256 -54.241  1.00  0.00     0.034 A 
HETATM   12  O   UNL     1     -41.363  54.341 -51.469  1.00  0.00    -0.274 OA
HETATM   13  O   UNL     1     -42.616  56.226 -51.381  1.00  0.00    -0.259 OA
HETATM   14  C   UNL     1     -40.751  53.322 -52.211  1.00  0.00     0.089 A 
HETATM   15  C   UNL     1     -40.910  53.260 -53.589  1.00  0.00    -0.001 A 
HETATM   16  C   UNL     1     -39.986  52.388 -51.517  1.00  0.00     0.038 A 
HETATM   17  C   UNL     1     -40.282  52.232 -54.293  1.00  0.00     0.014 A 
HETATM   18  C   UNL     1     -39.510  51.286 -53.612  1.00  0.00     0.001 A 
HETATM   19  C   UNL     1     -39.362  51.363 -52.224  1.00  0.00     0.003 A 
HETATM   20  S   UNL     1     -44.971  57.919 -54.804  1.00  0.00    -0.078 SA
ENDBRANCH   1   5
BRANCH   4  21
HETATM   21  N   UNL     1     -45.324  58.713 -59.219  1.00  0.00    -0.266 NA
HETATM   22  H   UNL     1     -45.379  59.737 -59.238  1.00  0.00     0.133 HD
BRANCH  21  23
HETATM   23  C   UNL     1     -46.318  58.243 -60.125  1.00  0.00     0.046 A 
HETATM   24  C   UNL     1     -46.449  56.854 -60.318  1.00  0.00     0.096 A 
HETATM   25  C   UNL     1     -47.383  56.321 -61.206  1.00  0.00     0.039 A 
HETATM   26  C   UNL     1     -48.247  57.178 -61.881  1.00  0.00     0.003 A 
HETATM   27  C   UNL     1     -48.173  58.554 -61.664  1.00  0.00     0.002 A 
HETATM   28  C   UNL     1     -47.222  59.083 -60.784  1.00  0.00     0.026 A 
BRANCH  24  29
HETATM   29  O   UNL     1     -45.616  56.002 -59.639  1.00  0.00    -0.288 OA
BRANCH  29  30
HETATM   30  C   UNL     1     -44.763  55.344 -60.574  1.00  0.00     0.505 C 
HETATM   31  F   UNL     1     -43.852  56.245 -61.025  1.00  0.00    -0.184 F 
HETATM   32  F   UNL     1     -44.067  54.405 -59.885  1.00  0.00    -0.184 F 
ENDBRANCH  29  30
ENDBRANCH  24  29
ENDBRANCH  21  23
ENDBRANCH   4  21
TORSDOF 5
ENDMDL
MODEL 8
REMARK VINA RESULT:      -8.6      2.889      3.779
REMARK  5 active torsions:
REMARK  status: ('A' for Active; 'I' for Inactive)
REMARK    1  A    between atoms: C_11  and  C_12 
REMARK    2  A    between atoms: C_15  and  N_16 
REMARK    3  A    between atoms: N_16  and  C_17 
REMARK    4  A    between atoms: C_18  and  O_19 
REMARK    5  A    between atoms: O_19  and  C_20 
ROOT
HETATM    1  C   UNL     1     -43.133  56.518 -58.002  1.00  0.00     0.077 C 
HETATM    2  C   UNL     1     -43.745  55.444 -58.887  1.00  0.00     0.023 C 
HETATM    3  N   UNL     1     -44.253  54.554 -59.621  1.00  0.00    -0.096 N 
HETATM    4  C   UNL     1     -42.733  57.657 -58.607  1.00  0.00     0.087 C 
ENDROOT
BRANCH   1   5
HETATM    5  C   UNL     1     -42.937  56.268 -56.607  1.00  0.00     0.118 A 
HETATM    6  N   UNL     1     -42.234  55.273 -56.089  1.00  0.00    -0.239 NA
HETATM    7  C   UNL     1     -42.211  55.329 -54.698  1.00  0.00     0.081 A 
HETATM    8  C   UNL     1     -41.504  54.304 -53.968  1.00  0.00     0.070 A 
HETATM    9  C   UNL     1     -42.932  56.369 -54.158  1.00  0.00     0.084 A 
HETATM   10  C   UNL     1     -41.036  54.571 -52.568  1.00  0.00     0.301 A 
HETATM   11  C   UNL     1     -41.248  53.103 -54.523  1.00  0.00     0.034 A 
HETATM   12  O   UNL     1     -40.419  53.527 -51.884  1.00  0.00    -0.274 OA
HETATM   13  O   UNL     1     -41.180  55.657 -52.013  1.00  0.00    -0.259 OA
HETATM   14  C   UNL     1     -40.183  52.282 -52.482  1.00  0.00     0.089 A 
HETATM   15  C   UNL     1     -40.571  52.046 -53.794  1.00  0.00    -0.001 A 
HETATM   16  C   UNL     1     -39.548  51.309 -51.716  1.00  0.00     0.038 A 
HETATM   17  C   UNL     1     -40.314  50.794 -54.356  1.00  0.00     0.014 A 
HETATM   18  C   UNL     1     -39.678  49.804 -53.600  1.00  0.00     0.001 A 
HETATM   19  C   UNL     1     -39.296  50.060 -52.281  1.00  0.00     0.003 A 
HETATM   20  S   UNL     1     -43.608  57.326 -55.397  1.00  0.00    -0.078 SA
ENDBRANCH   1   5
BRANCH   4  21
HETATM   21  N   UNL     1     -42.837  57.966 -59.952  1.00  0.00    -0.266 NA
HETATM   22  H   UNL     1     -41.944  58.258 -60.364  1.00  0.00     0.133 HD
BRANCH  21  23
HETATM   23  C   UNL     1     -43.827  58.843 -60.482  1.00  0.00     0.046 A 
HETATM   24  C   UNL     1     -43.408  59.940 -61.258  1.00  0.00     0.096 A 
HETATM   25  C   UNL     1     -44.318  60.854 -61.790  1.00  0.00     0.039 A 
HETATM   26  C   UNL     1     -45.680  60.650 -61.596  1.00  0.00     0.003 A 
HETATM   27  C   UNL     1     -46.122  59.538 -60.877  1.00  0.00     0.002 A 
HETATM   28  C   UNL     1     -45.202  58.635 -60.332  1.00  0.00     0.026 A 
BRANCH  24  29
HETATM   29  O   UNL     1     -42.067  60.136 -61.472  1.00  0.00    -0.288 OA
BRANCH  29  30
HETATM   30  C   UNL     1     -41.656  61.319 -60.789  1.00  0.00     0.505 C 
HETATM   31  F   UNL     1     -41.179  60.962 -59.569  1.00  0.00    -0.184 F 
HETATM   32  F   UNL     1     -40.605  61.830 -61.478  1.00  0.00    -0.184 F 
ENDBRANCH  29  30
ENDBRANCH  24  29
ENDBRANCH  21  23
ENDBRANCH   4  21
TORSDOF 5
ENDMDL
MODEL 9
REMARK VINA RESULT:      -8.4      3.280      4.087
REMARK  5 active torsions:
REMARK  status: ('A' for Active; 'I' for Inactive)
REMARK    1  A    between atoms: C_11  and  C_12 
REMARK    2  A    between atoms: C_15  and  N_16 
REMARK    3  A    between atoms: N_16  and  C_17 
REMARK    4  A    between atoms: C_18  and  O_19 
REMARK    5  A    between atoms: O_19  and  C_20 
ROOT
HETATM    1  C   UNL     1     -42.731  57.608 -57.152  1.00  0.00     0.077 C 
HETATM    2  C   UNL     1     -43.137  56.668 -58.275  1.00  0.00     0.023 C 
HETATM    3  N   UNL     1     -43.475  55.888 -59.207  1.00  0.00    -0.096 N 
HETATM    4  C   UNL     1     -42.446  58.883 -57.492  1.00  0.00     0.087 C 
ENDROOT
BRANCH   1   5
HETATM    5  C   UNL     1     -42.596  57.110 -55.818  1.00  0.00     0.118 A 
HETATM    6  N   UNL     1     -41.960  56.005 -55.463  1.00  0.00    -0.239 NA
HETATM    7  C   UNL     1     -41.982  55.818 -54.084  1.00  0.00     0.081 A 
HETATM    8  C   UNL     1     -41.351  54.646 -53.526  1.00  0.00     0.070 A 
HETATM    9  C   UNL     1     -42.671  56.786 -53.389  1.00  0.00     0.084 A 
HETATM   10  C   UNL     1     -40.920  54.641 -52.089  1.00  0.00     0.301 A 
HETATM   11  C   UNL     1     -41.134  53.547 -54.275  1.00  0.00     0.034 A 
HETATM   12  O   UNL     1     -40.379  53.463 -51.582  1.00  0.00    -0.274 OA
HETATM   13  O   UNL     1     -41.031  55.621 -51.357  1.00  0.00    -0.259 OA
HETATM   14  C   UNL     1     -40.182  52.330 -52.382  1.00  0.00     0.089 A 
HETATM   15  C   UNL     1     -40.535  52.345 -53.724  1.00  0.00    -0.001 A 
HETATM   16  C   UNL     1     -39.622  51.205 -51.781  1.00  0.00     0.038 A 
HETATM   17  C   UNL     1     -40.320  51.197 -54.489  1.00  0.00     0.014 A 
HETATM   18  C   UNL     1     -39.759  50.059 -53.902  1.00  0.00     0.001 A 
HETATM   19  C   UNL     1     -39.411  50.062 -52.549  1.00  0.00     0.003 A 
HETATM   20  S   UNL     1     -43.257  57.978 -54.459  1.00  0.00    -0.078 SA
ENDBRANCH   1   5
BRANCH   4  21
HETATM   21  N   UNL     1     -42.501  59.439 -58.759  1.00  0.00    -0.266 NA
HETATM   22  H   UNL     1     -42.372  58.747 -59.505  1.00  0.00     0.133 HD
BRANCH  21  23
HETATM   23  C   UNL     1     -41.749  60.586 -59.145  1.00  0.00     0.046 A 
HETATM   24  C   UNL     1     -41.680  60.915 -60.512  1.00  0.00     0.096 A 
HETATM   25  C   UNL     1     -40.945  62.009 -60.968  1.00  0.00     0.039 A 
HETATM   26  C   UNL     1     -40.304  62.832 -60.046  1.00  0.00     0.003 A 
HETATM   27  C   UNL     1     -40.405  62.557 -58.681  1.00  0.00     0.002 A 
HETATM   28  C   UNL     1     -41.130  61.447 -58.232  1.00  0.00     0.026 A 
BRANCH  24  29
HETATM   29  O   UNL     1     -42.328  60.122 -61.426  1.00  0.00    -0.288 OA
BRANCH  29  30
HETATM   30  C   UNL     1     -43.450  60.835 -61.943  1.00  0.00     0.505 C 
HETATM   31  F   UNL     1     -43.264  61.012 -63.277  1.00  0.00    -0.184 F 
HETATM   32  F   UNL     1     -44.530  60.023 -61.810  1.00  0.00    -0.184 F 
ENDBRANCH  29  30
ENDBRANCH  24  29
ENDBRANCH  21  23
ENDBRANCH   4  21
TORSDOF 5
ENDMDL
MODEL 10
REMARK VINA RESULT:      -8.1      3.079      9.119
REMARK  5 active torsions:
REMARK  status: ('A' for Active; 'I' for Inactive)
REMARK    1  A    between atoms: C_11  and  C_12 
REMARK    2  A    between atoms: C_15  and  N_16 
REMARK    3  A    between atoms: N_16  and  C_17 
REMARK    4  A    between atoms: C_18  and  O_19 
REMARK    5  A    between atoms: O_19  and  C_20 
ROOT
HETATM    1  C   UNL     1     -42.632  56.689 -53.757  1.00  0.00     0.077 C 
HETATM    2  C   UNL     1     -41.848  57.076 -52.514  1.00  0.00     0.023 C 
HETATM    3  N   UNL     1     -41.197  57.397 -51.482  1.00  0.00    -0.096 N 
HETATM    4  C   UNL     1     -43.005  55.395 -53.869  1.00  0.00     0.087 C 
ENDROOT
BRANCH   1   5
HETATM    5  C   UNL     1     -42.883  57.661 -54.775  1.00  0.00     0.118 A 
HETATM    6  N   UNL     1     -43.788  57.561 -55.737  1.00  0.00    -0.239 NA
HETATM    7  C   UNL     1     -43.804  58.692 -56.548  1.00  0.00     0.081 A 
HETATM    8  C   UNL     1     -44.719  58.742 -57.662  1.00  0.00     0.070 A 
HETATM    9  C   UNL     1     -42.876  59.651 -56.208  1.00  0.00     0.084 A 
HETATM   10  C   UNL     1     -45.123  60.065 -58.240  1.00  0.00     0.301 A 
HETATM   11  C   UNL     1     -45.228  57.614 -58.198  1.00  0.00     0.034 A 
HETATM   12  O   UNL     1     -45.955  60.055 -59.357  1.00  0.00    -0.274 OA
HETATM   13  O   UNL     1     -44.749  61.138 -57.774  1.00  0.00    -0.259 OA
HETATM   14  C   UNL     1     -46.453  58.865 -59.903  1.00  0.00     0.089 A 
HETATM   15  C   UNL     1     -46.121  57.639 -59.342  1.00  0.00    -0.001 A 
HETATM   16  C   UNL     1     -47.287  58.964 -61.013  1.00  0.00     0.038 A 
HETATM   17  C   UNL     1     -46.641  56.476 -59.912  1.00  0.00     0.014 A 
HETATM   18  C   UNL     1     -47.480  56.557 -61.028  1.00  0.00     0.001 A 
HETATM   19  C   UNL     1     -47.802  57.799 -61.579  1.00  0.00     0.003 A 
HETATM   20  S   UNL     1     -42.004  59.164 -54.826  1.00  0.00    -0.078 SA
ENDBRANCH   1   5
BRANCH   4  21
HETATM   21  N   UNL     1     -42.765  54.378 -52.962  1.00  0.00    -0.266 NA
HETATM   22  H   UNL     1     -42.763  54.702 -51.989  1.00  0.00     0.133 HD
BRANCH  21  23
HETATM   23  C   UNL     1     -41.680  53.462 -53.079  1.00  0.00     0.046 A 
HETATM   24  C   UNL     1     -40.892  53.204 -51.941  1.00  0.00     0.096 A 
HETATM   25  C   UNL     1     -39.800  52.337 -51.985  1.00  0.00     0.039 A 
HETATM   26  C   UNL     1     -39.509  51.667 -53.169  1.00  0.00     0.003 A 
HETATM   27  C   UNL     1     -40.310  51.865 -54.296  1.00  0.00     0.002 A 
HETATM   28  C   UNL     1     -41.394  52.749 -54.248  1.00  0.00     0.026 A 
BRANCH  24  29
HETATM   29  O   UNL     1     -41.186  53.843 -50.763  1.00  0.00    -0.288 OA
BRANCH  29  30
HETATM   30  C   UNL     1     -40.042  53.795 -49.912  1.00  0.00     0.505 C 
HETATM   31  F   UNL     1     -39.600  55.065 -49.721  1.00  0.00    -0.184 F 
HETATM   32  F   UNL     1     -40.466  53.349 -48.703  1.00  0.00    -0.184 F 
ENDBRANCH  29  30
ENDBRANCH  24  29
ENDBRANCH  21  23
ENDBRANCH   4  21
TORSDOF 5
ENDMDL
