MODEL 1
REMARK VINA RESULT:      -8.3      0.000      0.000
REMARK  7 active torsions:
REMARK  status: ('A' for Active; 'I' for Inactive)
REMARK       I    between atoms: N_2  and  C_3 
REMARK    1  A    between atoms: C_3  and  C_4 
REMARK    2  A    between atoms: C_4  and  C_5 
REMARK    3  A    between atoms: C_5  and  O_6 
REMARK    4  A    between atoms: O_6  and  C_7 
REMARK    5  A    between atoms: C_10  and  N_11 
REMARK       I    between atoms: N_11  and  C_12 
REMARK    6  A    between atoms: C_12  and  C_13 
REMARK    7  A    between atoms: C_15  and  C_16 
ROOT
HETATM    1  N   UNL     1     -42.655  56.939 -52.528  1.00  0.00    -0.323 N 
HETATM    2  C   UNL     1     -41.749  56.026 -52.017  1.00  0.00     0.256 C 
HETATM    3  O   UNL     1     -41.379  55.936 -50.852  1.00  0.00    -0.267 OA
HETATM    4  H   UNL     1     -42.778  56.957 -53.530  1.00  0.00     0.169 HD
ENDROOT
BRANCH   1   5
HETATM    5  C   UNL     1     -43.382  57.914 -51.810  1.00  0.00     0.035 A 
HETATM    6  C   UNL     1     -42.872  59.161 -51.449  1.00  0.00     0.032 A 
HETATM    7  C   UNL     1     -43.658  60.080 -50.739  1.00  0.00     0.039 A 
HETATM    8  C   UNL     1     -44.962  59.757 -50.375  1.00  0.00     0.068 A 
HETATM    9  C   UNL     1     -45.474  58.507 -50.725  1.00  0.00     0.039 A 
HETATM   10  C   UNL     1     -44.692  57.594 -51.440  1.00  0.00     0.032 A 
BRANCH   8  11
HETATM   11  O   UNL     1     -45.826  60.555 -49.678  1.00  0.00    -0.351 OA
BRANCH  11  12
HETATM   12  C   UNL     1     -45.325  61.822 -49.233  1.00  0.00     0.185 C 
BRANCH  12  13
HETATM   13  C   UNL     1     -45.070  61.735 -47.735  1.00  0.00     0.129 C 
BRANCH  13  14
HETATM   14  C   UNL     1     -46.188  61.000 -47.027  1.00  0.00     0.219 C 
HETATM   15  N   UNL     1     -45.893  59.700 -46.691  1.00  0.00    -0.365 N 
HETATM   16  C   UNL     1     -46.821  58.895 -45.941  1.00  0.00     0.149 C 
HETATM   17  H   UNL     1     -44.920  59.409 -46.734  1.00  0.00     0.161 HD
HETATM   18  O   UNL     1     -47.276  61.526 -46.810  1.00  0.00    -0.274 OA
ENDBRANCH  13  14
ENDBRANCH  12  13
ENDBRANCH  11  12
ENDBRANCH   8  11
ENDBRANCH   1   5
BRANCH   2  19
HETATM   19  C   UNL     1     -41.151  55.093 -53.016  1.00  0.00     0.033 A 
HETATM   20  C   UNL     1     -40.853  53.786 -52.600  1.00  0.00     0.029 A 
HETATM   21  C   UNL     1     -40.300  52.858 -53.493  1.00  0.00    -0.023 A 
HETATM   22  C   UNL     1     -40.046  53.261 -54.811  1.00  0.00     0.012 A 
HETATM   23  C   UNL     1     -40.358  54.556 -55.235  1.00  0.00     0.002 A 
HETATM   24  C   UNL     1     -40.917  55.470 -54.343  1.00  0.00     0.017 A 
BRANCH  21  25
HETATM   25  C   UNL     1     -39.990  51.501 -53.072  1.00  0.00    -0.002 A 
HETATM   26  C   UNL     1     -39.924  50.413 -53.921  1.00  0.00     0.153 A 
HETATM   27  O   UNL     1     -39.601  49.284 -53.239  1.00  0.00    -0.334 OA
HETATM   28  C   UNL     1     -39.449  49.640 -51.939  1.00  0.00     0.142 A 
HETATM   29  C   UNL     1     -39.669  50.989 -51.782  1.00  0.00     0.038 A 
ENDBRANCH  21  25
ENDBRANCH   2  19
TORSDOF 7
ENDMDL
MODEL 2
REMARK VINA RESULT:      -8.1      4.717      7.052
REMARK  7 active torsions:
REMARK  status: ('A' for Active; 'I' for Inactive)
REMARK       I    between atoms: N_2  and  C_3 
REMARK    1  A    between atoms: C_3  and  C_4 
REMARK    2  A    between atoms: C_4  and  C_5 
REMARK    3  A    between atoms: C_5  and  O_6 
REMARK    4  A    between atoms: O_6  and  C_7 
REMARK    5  A    between atoms: C_10  and  N_11 
REMARK       I    between atoms: N_11  and  C_12 
REMARK    6  A    between atoms: C_12  and  C_13 
REMARK    7  A    between atoms: C_15  and  C_16 
ROOT
HETATM    1  N   UNL     1     -42.509  55.605 -54.050  1.00  0.00    -0.323 N 
HETATM    2  C   UNL     1     -41.801  55.979 -52.921  1.00  0.00     0.256 C 
HETATM    3  O   UNL     1     -41.638  57.120 -52.504  1.00  0.00    -0.267 OA
HETATM    4  H   UNL     1     -42.465  54.634 -54.322  1.00  0.00     0.169 HD
ENDROOT
BRANCH   1   5
HETATM    5  C   UNL     1     -43.234  56.447 -54.921  1.00  0.00     0.035 A 
HETATM    6  C   UNL     1     -42.791  56.829 -56.187  1.00  0.00     0.032 A 
HETATM    7  C   UNL     1     -43.571  57.667 -56.999  1.00  0.00     0.039 A 
HETATM    8  C   UNL     1     -44.801  58.136 -56.548  1.00  0.00     0.068 A 
HETATM    9  C   UNL     1     -45.245  57.764 -55.278  1.00  0.00     0.039 A 
HETATM   10  C   UNL     1     -44.470  56.924 -54.472  1.00  0.00     0.032 A 
BRANCH   8  11
HETATM   11  O   UNL     1     -45.650  58.961 -57.232  1.00  0.00    -0.351 OA
BRANCH  11  12
HETATM   12  C   UNL     1     -45.861  58.668 -58.619  1.00  0.00     0.185 C 
BRANCH  12  13
HETATM   13  C   UNL     1     -46.970  57.631 -58.724  1.00  0.00     0.129 C 
BRANCH  13  14
HETATM   14  C   UNL     1     -46.629  56.559 -59.738  1.00  0.00     0.219 C 
HETATM   15  N   UNL     1     -45.521  55.807 -59.423  1.00  0.00    -0.365 N 
HETATM   16  C   UNL     1     -45.117  54.698 -60.245  1.00  0.00     0.149 C 
HETATM   17  H   UNL     1     -45.162  55.868 -58.474  1.00  0.00     0.161 HD
HETATM   18  O   UNL     1     -47.278  56.411 -60.769  1.00  0.00    -0.274 OA
ENDBRANCH  13  14
ENDBRANCH  12  13
ENDBRANCH  11  12
ENDBRANCH   8  11
ENDBRANCH   1   5
BRANCH   2  19
HETATM   19  C   UNL     1     -41.153  54.862 -52.174  1.00  0.00     0.033 A 
HETATM   20  C   UNL     1     -40.879  53.676 -52.872  1.00  0.00     0.029 A 
HETATM   21  C   UNL     1     -40.261  52.593 -52.231  1.00  0.00    -0.023 A 
HETATM   22  C   UNL     1     -39.925  52.716 -50.877  1.00  0.00     0.012 A 
HETATM   23  C   UNL     1     -40.179  53.901 -50.181  1.00  0.00     0.002 A 
HETATM   24  C   UNL     1     -40.785  54.977 -50.829  1.00  0.00     0.017 A 
BRANCH  21  25
HETATM   25  C   UNL     1     -39.971  51.360 -52.947  1.00  0.00    -0.002 A 
HETATM   26  C   UNL     1     -39.590  50.177 -52.344  1.00  0.00     0.153 A 
HETATM   27  O   UNL     1     -39.403  49.200 -53.270  1.00  0.00    -0.334 OA
HETATM   28  C   UNL     1     -39.669  49.750 -54.481  1.00  0.00     0.142 A 
HETATM   29  C   UNL     1     -40.028  51.070 -54.340  1.00  0.00     0.038 A 
ENDBRANCH  21  25
ENDBRANCH   2  19
TORSDOF 7
ENDMDL
MODEL 3
REMARK VINA RESULT:      -7.5      5.278      8.518
REMARK  7 active torsions:
REMARK  status: ('A' for Active; 'I' for Inactive)
REMARK       I    between atoms: N_2  and  C_3 
REMARK    1  A    between atoms: C_3  and  C_4 
REMARK    2  A    between atoms: C_4  and  C_5 
REMARK    3  A    between atoms: C_5  and  O_6 
REMARK    4  A    between atoms: O_6  and  C_7 
REMARK    5  A    between atoms: C_10  and  N_11 
REMARK       I    between atoms: N_11  and  C_12 
REMARK    6  A    between atoms: C_12  and  C_13 
REMARK    7  A    between atoms: C_15  and  C_16 
ROOT
HETATM    1  N   UNL     1     -42.170  55.554 -56.383  1.00  0.00    -0.323 N 
HETATM    2  C   UNL     1     -42.280  56.932 -56.463  1.00  0.00     0.256 C 
HETATM    3  O   UNL     1     -42.148  57.731 -55.544  1.00  0.00    -0.267 OA
HETATM    4  H   UNL     1     -42.411  55.023 -57.207  1.00  0.00     0.169 HD
ENDROOT
BRANCH   1   5
HETATM    5  C   UNL     1     -41.829  54.790 -55.246  1.00  0.00     0.035 A 
HETATM    6  C   UNL     1     -42.686  54.565 -54.168  1.00  0.00     0.032 A 
HETATM    7  C   UNL     1     -42.275  53.789 -53.074  1.00  0.00     0.039 A 
HETATM    8  C   UNL     1     -40.999  53.235 -53.043  1.00  0.00     0.068 A 
HETATM    9  C   UNL     1     -40.135  53.464 -54.115  1.00  0.00     0.039 A 
HETATM   10  C   UNL     1     -40.546  54.232 -55.209  1.00  0.00     0.032 A 
BRANCH   8  11
HETATM   11  O   UNL     1     -40.476  52.470 -52.038  1.00  0.00    -0.351 OA
BRANCH  11  12
HETATM   12  C   UNL     1     -39.687  53.147 -51.051  1.00  0.00     0.185 C 
BRANCH  12  13
HETATM   13  C   UNL     1     -40.481  53.189 -49.754  1.00  0.00     0.129 C 
BRANCH  13  14
HETATM   14  C   UNL     1     -40.813  54.612 -49.355  1.00  0.00     0.219 C 
HETATM   15  N   UNL     1     -40.816  55.510 -50.397  1.00  0.00    -0.365 N 
HETATM   16  C   UNL     1     -41.192  56.884 -50.193  1.00  0.00     0.149 C 
HETATM   17  H   UNL     1     -40.821  55.138 -51.343  1.00  0.00     0.161 HD
HETATM   18  O   UNL     1     -41.023  54.927 -48.188  1.00  0.00    -0.274 OA
ENDBRANCH  13  14
ENDBRANCH  12  13
ENDBRANCH  11  12
ENDBRANCH   8  11
ENDBRANCH   1   5
BRANCH   2  19
HETATM   19  C   UNL     1     -42.631  57.467 -57.811  1.00  0.00     0.033 A 
HETATM   20  C   UNL     1     -43.807  57.002 -58.418  1.00  0.00     0.029 A 
HETATM   21  C   UNL     1     -44.198  57.473 -59.679  1.00  0.00    -0.023 A 
HETATM   22  C   UNL     1     -43.389  58.417 -60.325  1.00  0.00     0.012 A 
HETATM   23  C   UNL     1     -42.225  58.896 -59.717  1.00  0.00     0.002 A 
HETATM   24  C   UNL     1     -41.849  58.429 -58.458  1.00  0.00     0.017 A 
BRANCH  21  25
HETATM   25  C   UNL     1     -45.417  56.999 -60.315  1.00  0.00    -0.002 A 
HETATM   26  C   UNL     1     -45.526  55.811 -61.011  1.00  0.00     0.153 A 
HETATM   27  O   UNL     1     -46.790  55.636 -61.478  1.00  0.00    -0.334 OA
HETATM   28  C   UNL     1     -47.509  56.714 -61.077  1.00  0.00     0.142 A 
HETATM   29  C   UNL     1     -46.718  57.577 -60.355  1.00  0.00     0.038 A 
ENDBRANCH  21  25
ENDBRANCH   2  19
TORSDOF 7
ENDMDL
MODEL 4
REMARK VINA RESULT:      -7.3      5.135      8.858
REMARK  7 active torsions:
REMARK  status: ('A' for Active; 'I' for Inactive)
REMARK       I    between atoms: N_2  and  C_3 
REMARK    1  A    between atoms: C_3  and  C_4 
REMARK    2  A    between atoms: C_4  and  C_5 
REMARK    3  A    between atoms: C_5  and  O_6 
REMARK    4  A    between atoms: O_6  and  C_7 
REMARK    5  A    between atoms: C_10  and  N_11 
REMARK       I    between atoms: N_11  and  C_12 
REMARK    6  A    between atoms: C_12  and  C_13 
REMARK    7  A    between atoms: C_15  and  C_16 
ROOT
HETATM    1  N   UNL     1     -42.151  55.126 -56.403  1.00  0.00    -0.323 N 
HETATM    2  C   UNL     1     -42.438  56.471 -56.562  1.00  0.00     0.256 C 
HETATM    3  O   UNL     1     -42.477  57.320 -55.680  1.00  0.00    -0.267 OA
HETATM    4  H   UNL     1     -42.262  54.531 -57.212  1.00  0.00     0.169 HD
ENDROOT
BRANCH   1   5
HETATM    5  C   UNL     1     -41.791  54.465 -55.208  1.00  0.00     0.035 A 
HETATM    6  C   UNL     1     -42.617  54.368 -54.089  1.00  0.00     0.032 A 
HETATM    7  C   UNL     1     -42.190  53.690 -52.937  1.00  0.00     0.039 A 
HETATM    8  C   UNL     1     -40.926  53.107 -52.892  1.00  0.00     0.068 A 
HETATM    9  C   UNL     1     -40.093  53.210 -54.006  1.00  0.00     0.039 A 
HETATM   10  C   UNL     1     -40.522  53.880 -55.157  1.00  0.00     0.032 A 
BRANCH   8  11
HETATM   11  O   UNL     1     -40.389  52.430 -51.834  1.00  0.00    -0.351 OA
BRANCH  11  12
HETATM   12  C   UNL     1     -39.602  53.189 -50.908  1.00  0.00     0.185 C 
BRANCH  12  13
HETATM   13  C   UNL     1     -40.368  53.283 -49.596  1.00  0.00     0.129 C 
BRANCH  13  14
HETATM   14  C   UNL     1     -40.769  54.711 -49.291  1.00  0.00     0.219 C 
HETATM   15  N   UNL     1     -40.733  55.557 -50.375  1.00  0.00    -0.365 N 
HETATM   16  C   UNL     1     -41.164  56.925 -50.265  1.00  0.00     0.149 C 
HETATM   17  H   UNL     1     -40.664  55.140 -51.299  1.00  0.00     0.161 HD
HETATM   18  O   UNL     1     -41.064  55.074 -48.157  1.00  0.00    -0.274 OA
ENDBRANCH  13  14
ENDBRANCH  12  13
ENDBRANCH  11  12
ENDBRANCH   8  11
ENDBRANCH   1   5
BRANCH   2  19
HETATM   19  C   UNL     1     -42.762  56.894 -57.956  1.00  0.00     0.033 A 
HETATM   20  C   UNL     1     -42.296  58.144 -58.389  1.00  0.00     0.029 A 
HETATM   21  C   UNL     1     -42.558  58.595 -59.691  1.00  0.00    -0.023 A 
HETATM   22  C   UNL     1     -43.298  57.774 -60.551  1.00  0.00     0.012 A 
HETATM   23  C   UNL     1     -43.750  56.520 -60.130  1.00  0.00     0.002 A 
HETATM   24  C   UNL     1     -43.477  56.075 -58.837  1.00  0.00     0.017 A 
BRANCH  21  25
HETATM   25  C   UNL     1     -42.077  59.888 -60.150  1.00  0.00    -0.002 A 
HETATM   26  C   UNL     1     -41.681  60.917 -59.317  1.00  0.00     0.153 A 
HETATM   27  O   UNL     1     -41.270  61.994 -60.038  1.00  0.00    -0.334 OA
HETATM   28  C   UNL     1     -41.393  61.660 -61.347  1.00  0.00     0.142 A 
HETATM   29  C   UNL     1     -41.877  60.379 -61.472  1.00  0.00     0.038 A 
ENDBRANCH  21  25
ENDBRANCH   2  19
TORSDOF 7
ENDMDL
MODEL 5
REMARK VINA RESULT:      -7.2      1.602      1.986
REMARK  7 active torsions:
REMARK  status: ('A' for Active; 'I' for Inactive)
REMARK       I    between atoms: N_2  and  C_3 
REMARK    1  A    between atoms: C_3  and  C_4 
REMARK    2  A    between atoms: C_4  and  C_5 
REMARK    3  A    between atoms: C_5  and  O_6 
REMARK    4  A    between atoms: O_6  and  C_7 
REMARK    5  A    between atoms: C_10  and  N_11 
REMARK       I    between atoms: N_11  and  C_12 
REMARK    6  A    between atoms: C_12  and  C_13 
REMARK    7  A    between atoms: C_15  and  C_16 
ROOT
HETATM    1  N   UNL     1     -43.442  58.031 -52.152  1.00  0.00    -0.323 N 
HETATM    2  C   UNL     1     -43.450  56.693 -51.798  1.00  0.00     0.256 C 
HETATM    3  O   UNL     1     -43.674  56.233 -50.684  1.00  0.00    -0.267 OA
HETATM    4  H   UNL     1     -43.135  58.259 -53.087  1.00  0.00     0.169 HD
ENDROOT
BRANCH   1   5
HETATM    5  C   UNL     1     -43.742  59.135 -51.325  1.00  0.00     0.035 A 
HETATM    6  C   UNL     1     -42.792  60.042 -50.856  1.00  0.00     0.032 A 
HETATM    7  C   UNL     1     -43.169  61.119 -50.040  1.00  0.00     0.039 A 
HETATM    8  C   UNL     1     -44.502  61.297 -49.680  1.00  0.00     0.068 A 
HETATM    9  C   UNL     1     -45.455  60.388 -50.141  1.00  0.00     0.039 A 
HETATM   10  C   UNL     1     -45.080  59.317 -50.959  1.00  0.00     0.032 A 
BRANCH   8  11
HETATM   11  O   UNL     1     -44.997  62.295 -48.889  1.00  0.00    -0.351 OA
BRANCH  11  12
HETATM   12  C   UNL     1     -46.346  62.150 -48.428  1.00  0.00     0.185 C 
BRANCH  12  13
HETATM   13  C   UNL     1     -46.347  62.263 -46.911  1.00  0.00     0.129 C 
BRANCH  13  14
HETATM   14  C   UNL     1     -45.980  60.946 -46.259  1.00  0.00     0.219 C 
HETATM   15  N   UNL     1     -47.041  60.093 -46.061  1.00  0.00    -0.365 N 
HETATM   16  C   UNL     1     -46.842  58.771 -45.528  1.00  0.00     0.149 C 
HETATM   17  H   UNL     1     -47.910  60.298 -46.546  1.00  0.00     0.161 HD
HETATM   18  O   UNL     1     -44.832  60.692 -45.910  1.00  0.00    -0.274 OA
ENDBRANCH  13  14
ENDBRANCH  12  13
ENDBRANCH  11  12
ENDBRANCH   8  11
ENDBRANCH   1   5
BRANCH   2  19
HETATM   19  C   UNL     1     -43.115  55.740 -52.895  1.00  0.00     0.033 A 
HETATM   20  C   UNL     1     -42.152  54.752 -52.638  1.00  0.00     0.029 A 
HETATM   21  C   UNL     1     -41.801  53.819 -53.623  1.00  0.00    -0.023 A 
HETATM   22  C   UNL     1     -42.427  53.893 -54.874  1.00  0.00     0.012 A 
HETATM   23  C   UNL     1     -43.399  54.864 -55.130  1.00  0.00     0.002 A 
HETATM   24  C   UNL     1     -43.750  55.782 -54.141  1.00  0.00     0.017 A 
BRANCH  21  25
HETATM   25  C   UNL     1     -40.806  52.790 -53.365  1.00  0.00    -0.002 A 
HETATM   26  C   UNL     1     -40.139  52.629 -52.165  1.00  0.00     0.153 A 
HETATM   27  O   UNL     1     -39.282  51.576 -52.224  1.00  0.00    -0.334 OA
HETATM   28  C   UNL     1     -39.398  51.045 -53.467  1.00  0.00     0.142 A 
HETATM   29  C   UNL     1     -40.322  51.747 -54.205  1.00  0.00     0.038 A 
ENDBRANCH  21  25
ENDBRANCH   2  19
TORSDOF 7
ENDMDL
MODEL 6
REMARK VINA RESULT:      -7.0      3.894      5.838
REMARK  7 active torsions:
REMARK  status: ('A' for Active; 'I' for Inactive)
REMARK       I    between atoms: N_2  and  C_3 
REMARK    1  A    between atoms: C_3  and  C_4 
REMARK    2  A    between atoms: C_4  and  C_5 
REMARK    3  A    between atoms: C_5  and  O_6 
REMARK    4  A    between atoms: O_6  and  C_7 
REMARK    5  A    between atoms: C_10  and  N_11 
REMARK       I    between atoms: N_11  and  C_12 
REMARK    6  A    between atoms: C_12  and  C_13 
REMARK    7  A    between atoms: C_15  and  C_16 
ROOT
HETATM    1  N   UNL     1     -42.198  57.025 -52.430  1.00  0.00    -0.323 N 
HETATM    2  C   UNL     1     -41.269  56.178 -53.008  1.00  0.00     0.256 C 
HETATM    3  O   UNL     1     -40.727  56.321 -54.098  1.00  0.00    -0.267 OA
HETATM    4  H   UNL     1     -42.634  56.716 -51.572  1.00  0.00     0.169 HD
ENDROOT
BRANCH   1   5
HETATM    5  C   UNL     1     -42.673  58.250 -52.945  1.00  0.00     0.035 A 
HETATM    6  C   UNL     1     -41.970  59.453 -52.874  1.00  0.00     0.032 A 
HETATM    7  C   UNL     1     -42.507  60.631 -53.414  1.00  0.00     0.039 A 
HETATM    8  C   UNL     1     -43.757  60.620 -54.024  1.00  0.00     0.068 A 
HETATM    9  C   UNL     1     -44.469  59.421 -54.089  1.00  0.00     0.039 A 
HETATM   10  C   UNL     1     -43.930  58.245 -53.557  1.00  0.00     0.032 A 
BRANCH   8  11
HETATM   11  O   UNL     1     -44.394  61.695 -54.578  1.00  0.00    -0.351 OA
BRANCH  11  12
HETATM   12  C   UNL     1     -43.644  62.485 -55.510  1.00  0.00     0.185 C 
BRANCH  12  13
HETATM   13  C   UNL     1     -43.605  61.744 -56.839  1.00  0.00     0.129 C 
BRANCH  13  14
HETATM   14  C   UNL     1     -42.181  61.473 -57.278  1.00  0.00     0.219 C 
HETATM   15  N   UNL     1     -41.733  62.284 -58.294  1.00  0.00    -0.365 N 
HETATM   16  C   UNL     1     -40.376  62.205 -58.766  1.00  0.00     0.149 C 
HETATM   17  H   UNL     1     -42.278  63.114 -58.512  1.00  0.00     0.161 HD
HETATM   18  O   UNL     1     -41.508  60.574 -56.782  1.00  0.00    -0.274 OA
ENDBRANCH  13  14
ENDBRANCH  12  13
ENDBRANCH  11  12
ENDBRANCH   8  11
ENDBRANCH   1   5
BRANCH   2  19
HETATM   19  C   UNL     1     -40.937  54.957 -52.216  1.00  0.00     0.033 A 
HETATM   20  C   UNL     1     -40.649  53.776 -52.917  1.00  0.00     0.029 A 
HETATM   21  C   UNL     1     -40.320  52.599 -52.232  1.00  0.00    -0.023 A 
HETATM   22  C   UNL     1     -40.287  52.621 -50.832  1.00  0.00     0.012 A 
HETATM   23  C   UNL     1     -40.556  53.799 -50.129  1.00  0.00     0.002 A 
HETATM   24  C   UNL     1     -40.873  54.969 -50.819  1.00  0.00     0.017 A 
BRANCH  21  25
HETATM   25  C   UNL     1     -40.017  51.370 -52.950  1.00  0.00    -0.002 A 
HETATM   26  C   UNL     1     -39.565  50.207 -52.356  1.00  0.00     0.153 A 
HETATM   27  O   UNL     1     -39.384  49.229 -53.281  1.00  0.00    -0.334 OA
HETATM   28  C   UNL     1     -39.726  49.756 -54.482  1.00  0.00     0.142 A 
HETATM   29  C   UNL     1     -40.128  51.064 -54.336  1.00  0.00     0.038 A 
ENDBRANCH  21  25
ENDBRANCH   2  19
TORSDOF 7
ENDMDL
MODEL 7
REMARK VINA RESULT:      -6.9      4.567      7.057
REMARK  7 active torsions:
REMARK  status: ('A' for Active; 'I' for Inactive)
REMARK       I    between atoms: N_2  and  C_3 
REMARK    1  A    between atoms: C_3  and  C_4 
REMARK    2  A    between atoms: C_4  and  C_5 
REMARK    3  A    between atoms: C_5  and  O_6 
REMARK    4  A    between atoms: O_6  and  C_7 
REMARK    5  A    between atoms: C_10  and  N_11 
REMARK       I    between atoms: N_11  and  C_12 
REMARK    6  A    between atoms: C_12  and  C_13 
REMARK    7  A    between atoms: C_15  and  C_16 
ROOT
HETATM    1  N   UNL     1     -42.316  55.818 -53.494  1.00  0.00    -0.323 N 
HETATM    2  C   UNL     1     -41.744  56.009 -52.248  1.00  0.00     0.256 C 
HETATM    3  O   UNL     1     -41.716  57.055 -51.609  1.00  0.00    -0.267 OA
HETATM    4  H   UNL     1     -42.164  54.924 -53.939  1.00  0.00     0.169 HD
ENDROOT
BRANCH   1   5
HETATM    5  C   UNL     1     -43.031  56.764 -54.260  1.00  0.00     0.035 A 
HETATM    6  C   UNL     1     -44.422  56.799 -54.359  1.00  0.00     0.032 A 
HETATM    7  C   UNL     1     -45.062  57.774 -55.138  1.00  0.00     0.039 A 
HETATM    8  C   UNL     1     -44.315  58.721 -55.834  1.00  0.00     0.068 A 
HETATM    9  C   UNL     1     -42.923  58.684 -55.746  1.00  0.00     0.039 A 
HETATM   10  C   UNL     1     -42.285  57.716 -54.963  1.00  0.00     0.032 A 
BRANCH   8  11
HETATM   11  O   UNL     1     -44.813  59.713 -56.631  1.00  0.00    -0.351 OA
BRANCH  11  12
HETATM   12  C   UNL     1     -44.073  60.026 -57.818  1.00  0.00     0.185 C 
BRANCH  12  13
HETATM   13  C   UNL     1     -44.634  59.192 -58.962  1.00  0.00     0.129 C 
BRANCH  13  14
HETATM   14  C   UNL     1     -43.613  59.011 -60.065  1.00  0.00     0.219 C 
HETATM   15  N   UNL     1     -42.999  60.173 -60.470  1.00  0.00    -0.365 N 
HETATM   16  C   UNL     1     -41.948  60.156 -61.453  1.00  0.00     0.149 C 
HETATM   17  H   UNL     1     -43.100  60.994 -59.879  1.00  0.00     0.161 HD
HETATM   18  O   UNL     1     -43.390  57.915 -60.570  1.00  0.00    -0.274 OA
ENDBRANCH  13  14
ENDBRANCH  12  13
ENDBRANCH  11  12
ENDBRANCH   8  11
ENDBRANCH   1   5
BRANCH   2  19
HETATM   19  C   UNL     1     -41.070  54.814 -51.664  1.00  0.00     0.033 A 
HETATM   20  C   UNL     1     -40.857  53.705 -52.498  1.00  0.00     0.029 A 
HETATM   21  C   UNL     1     -40.219  52.555 -52.012  1.00  0.00    -0.023 A 
HETATM   22  C   UNL     1     -39.801  52.531 -50.675  1.00  0.00     0.012 A 
HETATM   23  C   UNL     1     -39.995  53.639 -49.845  1.00  0.00     0.002 A 
HETATM   24  C   UNL     1     -40.622  54.783 -50.339  1.00  0.00     0.017 A 
BRANCH  21  25
HETATM   25  C   UNL     1     -39.991  51.403 -52.869  1.00  0.00    -0.002 A 
HETATM   26  C   UNL     1     -39.574  50.164 -52.421  1.00  0.00     0.153 A 
HETATM   27  O   UNL     1     -39.462  49.287 -53.453  1.00  0.00    -0.334 OA
HETATM   28  C   UNL     1     -39.815  49.958 -54.578  1.00  0.00     0.142 A 
HETATM   29  C   UNL     1     -40.154  51.256 -54.277  1.00  0.00     0.038 A 
ENDBRANCH  21  25
ENDBRANCH   2  19
TORSDOF 7
ENDMDL
MODEL 8
REMARK VINA RESULT:      -6.9      1.757      2.330
REMARK  7 active torsions:
REMARK  status: ('A' for Active; 'I' for Inactive)
REMARK       I    between atoms: N_2  and  C_3 
REMARK    1  A    between atoms: C_3  and  C_4 
REMARK    2  A    between atoms: C_4  and  C_5 
REMARK    3  A    between atoms: C_5  and  O_6 
REMARK    4  A    between atoms: O_6  and  C_7 
REMARK    5  A    between atoms: C_10  and  N_11 
REMARK       I    between atoms: N_11  and  C_12 
REMARK    6  A    between atoms: C_12  and  C_13 
REMARK    7  A    between atoms: C_15  and  C_16 
ROOT
HETATM    1  N   UNL     1     -42.238  57.277 -53.216  1.00  0.00    -0.323 N 
HETATM    2  C   UNL     1     -41.446  56.375 -52.528  1.00  0.00     0.256 C 
HETATM    3  O   UNL     1     -41.070  56.470 -51.365  1.00  0.00    -0.267 OA
HETATM    4  H   UNL     1     -42.375  57.113 -54.203  1.00  0.00     0.169 HD
ENDROOT
BRANCH   1   5
HETATM    5  C   UNL     1     -42.823  58.459 -52.711  1.00  0.00     0.035 A 
HETATM    6  C   UNL     1     -43.815  58.484 -51.731  1.00  0.00     0.032 A 
HETATM    7  C   UNL     1     -44.345  59.701 -51.276  1.00  0.00     0.039 A 
HETATM    8  C   UNL     1     -43.891  60.907 -51.803  1.00  0.00     0.068 A 
HETATM    9  C   UNL     1     -42.905  60.887 -52.790  1.00  0.00     0.039 A 
HETATM   10  C   UNL     1     -42.372  59.674 -53.238  1.00  0.00     0.032 A 
BRANCH   8  11
HETATM   11  O   UNL     1     -44.329  62.154 -51.455  1.00  0.00    -0.351 OA
BRANCH  11  12
HETATM   12  C   UNL     1     -43.335  63.179 -51.327  1.00  0.00     0.185 C 
BRANCH  12  13
HETATM   13  C   UNL     1     -43.087  63.420 -49.845  1.00  0.00     0.129 C 
BRANCH  13  14
HETATM   14  C   UNL     1     -44.386  63.507 -49.074  1.00  0.00     0.219 C 
HETATM   15  N   UNL     1     -44.785  62.325 -48.493  1.00  0.00    -0.365 N 
HETATM   16  C   UNL     1     -45.956  62.264 -47.659  1.00  0.00     0.149 C 
HETATM   17  H   UNL     1     -44.103  61.574 -48.433  1.00  0.00     0.161 HD
HETATM   18  O   UNL     1     -45.037  64.546 -49.013  1.00  0.00    -0.274 OA
ENDBRANCH  13  14
ENDBRANCH  12  13
ENDBRANCH  11  12
ENDBRANCH   8  11
ENDBRANCH   1   5
BRANCH   2  19
HETATM   19  C   UNL     1     -40.988  55.195 -53.317  1.00  0.00     0.033 A 
HETATM   20  C   UNL     1     -40.683  54.015 -52.620  1.00  0.00     0.029 A 
HETATM   21  C   UNL     1     -40.259  52.868 -53.305  1.00  0.00    -0.023 A 
HETATM   22  C   UNL     1     -40.141  52.921 -54.700  1.00  0.00     0.012 A 
HETATM   23  C   UNL     1     -40.461  54.088 -55.400  1.00  0.00     0.002 A 
HETATM   24  C   UNL     1     -40.892  55.222 -54.712  1.00  0.00     0.017 A 
BRANCH  21  25
HETATM   25  C   UNL     1     -39.943  51.640 -52.592  1.00  0.00    -0.002 A 
HETATM   26  C   UNL     1     -39.767  51.552 -51.224  1.00  0.00     0.153 A 
HETATM   27  O   UNL     1     -39.495  50.274 -50.852  1.00  0.00    -0.334 OA
HETATM   28  C   UNL     1     -39.500  49.526 -51.983  1.00  0.00     0.142 A 
HETATM   29  C   UNL     1     -39.775  50.312 -53.078  1.00  0.00     0.038 A 
ENDBRANCH  21  25
ENDBRANCH   2  19
TORSDOF 7
ENDMDL
MODEL 9
REMARK VINA RESULT:      -6.8      2.124     10.134
REMARK  7 active torsions:
REMARK  status: ('A' for Active; 'I' for Inactive)
REMARK       I    between atoms: N_2  and  C_3 
REMARK    1  A    between atoms: C_3  and  C_4 
REMARK    2  A    between atoms: C_4  and  C_5 
REMARK    3  A    between atoms: C_5  and  O_6 
REMARK    4  A    between atoms: O_6  and  C_7 
REMARK    5  A    between atoms: C_10  and  N_11 
REMARK       I    between atoms: N_11  and  C_12 
REMARK    6  A    between atoms: C_12  and  C_13 
REMARK    7  A    between atoms: C_15  and  C_16 
ROOT
HETATM    1  N   UNL     1     -42.869  58.529 -50.989  1.00  0.00    -0.323 N 
HETATM    2  C   UNL     1     -42.479  59.718 -51.580  1.00  0.00     0.256 C 
HETATM    3  O   UNL     1     -41.671  59.851 -52.492  1.00  0.00    -0.267 OA
HETATM    4  H   UNL     1     -43.466  58.591 -50.176  1.00  0.00     0.169 HD
ENDROOT
BRANCH   1   5
HETATM    5  C   UNL     1     -42.466  57.225 -51.348  1.00  0.00     0.035 A 
HETATM    6  C   UNL     1     -41.481  56.499 -50.678  1.00  0.00     0.032 A 
HETATM    7  C   UNL     1     -41.137  55.203 -51.091  1.00  0.00     0.039 A 
HETATM    8  C   UNL     1     -41.772  54.622 -52.185  1.00  0.00     0.068 A 
HETATM    9  C   UNL     1     -42.752  55.347 -52.864  1.00  0.00     0.039 A 
HETATM   10  C   UNL     1     -43.099  56.637 -52.447  1.00  0.00     0.032 A 
BRANCH   8  11
HETATM   11  O   UNL     1     -41.526  53.377 -52.693  1.00  0.00    -0.351 OA
BRANCH  11  12
HETATM   12  C   UNL     1     -40.271  53.183 -53.357  1.00  0.00     0.185 C 
BRANCH  12  13
HETATM   13  C   UNL     1     -40.359  51.906 -54.180  1.00  0.00     0.129 C 
BRANCH  13  14
HETATM   14  C   UNL     1     -39.940  50.697 -53.370  1.00  0.00     0.219 C 
HETATM   15  N   UNL     1     -39.666  50.963 -52.049  1.00  0.00    -0.365 N 
HETATM   16  C   UNL     1     -39.334  49.906 -51.131  1.00  0.00     0.149 C 
HETATM   17  H   UNL     1     -39.968  51.858 -51.674  1.00  0.00     0.161 HD
HETATM   18  O   UNL     1     -39.824  49.585 -53.876  1.00  0.00    -0.274 OA
ENDBRANCH  13  14
ENDBRANCH  12  13
ENDBRANCH  11  12
ENDBRANCH   8  11
ENDBRANCH   1   5
BRANCH   2  19
HETATM   19  C   UNL     1     -43.093  60.950 -51.004  1.00  0.00     0.033 A 
HETATM   20  C   UNL     1     -43.733  60.846 -49.760  1.00  0.00     0.029 A 
HETATM   21  C   UNL     1     -44.321  61.968 -49.160  1.00  0.00    -0.023 A 
HETATM   22  C   UNL     1     -44.260  63.198 -49.828  1.00  0.00     0.012 A 
HETATM   23  C   UNL     1     -43.609  63.311 -51.060  1.00  0.00     0.002 A 
HETATM   24  C   UNL     1     -43.018  62.191 -51.645  1.00  0.00     0.017 A 
BRANCH  21  25
HETATM   25  C   UNL     1     -44.984  61.871 -47.869  1.00  0.00    -0.002 A 
HETATM   26  C   UNL     1     -45.575  60.723 -47.377  1.00  0.00     0.153 A 
HETATM   27  O   UNL     1     -46.100  60.939 -46.142  1.00  0.00    -0.334 OA
HETATM   28  C   UNL     1     -45.844  62.233 -45.827  1.00  0.00     0.142 A 
HETATM   29  C   UNL     1     -45.157  62.848 -46.847  1.00  0.00     0.038 A 
ENDBRANCH  21  25
ENDBRANCH   2  19
TORSDOF 7
ENDMDL
MODEL 10
REMARK VINA RESULT:      -6.8     17.131     20.135
REMARK  7 active torsions:
REMARK  status: ('A' for Active; 'I' for Inactive)
REMARK       I    between atoms: N_2  and  C_3 
REMARK    1  A    between atoms: C_3  and  C_4 
REMARK    2  A    between atoms: C_4  and  C_5 
REMARK    3  A    between atoms: C_5  and  O_6 
REMARK    4  A    between atoms: O_6  and  C_7 
REMARK    5  A    between atoms: C_10  and  N_11 
REMARK       I    between atoms: N_11  and  C_12 
REMARK    6  A    between atoms: C_12  and  C_13 
REMARK    7  A    between atoms: C_15  and  C_16 
ROOT
HETATM    1  N   UNL     1     -34.105  40.206 -51.378  1.00  0.00    -0.323 N 
HETATM    2  C   UNL     1     -32.847  40.142 -50.806  1.00  0.00     0.256 C 
HETATM    3  O   UNL     1     -31.803  40.571 -51.284  1.00  0.00    -0.267 OA
HETATM    4  H   UNL     1     -34.851  39.713 -50.909  1.00  0.00     0.169 HD
ENDROOT
BRANCH   1   5
HETATM    5  C   UNL     1     -34.459  40.824 -52.597  1.00  0.00     0.035 A 
HETATM    6  C   UNL     1     -35.360  41.883 -52.705  1.00  0.00     0.032 A 
HETATM    7  C   UNL     1     -35.658  42.449 -53.953  1.00  0.00     0.039 A 
HETATM    8  C   UNL     1     -35.061  41.956 -55.110  1.00  0.00     0.068 A 
HETATM    9  C   UNL     1     -34.165  40.891 -55.008  1.00  0.00     0.039 A 
HETATM   10  C   UNL     1     -33.863  40.331 -53.763  1.00  0.00     0.032 A 
BRANCH   8  11
HETATM   11  O   UNL     1     -35.271  42.410 -56.382  1.00  0.00    -0.351 OA
BRANCH  11  12
HETATM   12  C   UNL     1     -35.839  41.484 -57.317  1.00  0.00     0.185 C 
BRANCH  12  13
HETATM   13  C   UNL     1     -37.021  42.159 -57.997  1.00  0.00     0.129 C 
BRANCH  13  14
HETATM   14  C   UNL     1     -37.185  41.680 -59.424  1.00  0.00     0.219 C 
HETATM   15  N   UNL     1     -36.997  40.328 -59.597  1.00  0.00    -0.365 N 
HETATM   16  C   UNL     1     -37.198  39.707 -60.879  1.00  0.00     0.149 C 
HETATM   17  H   UNL     1     -36.988  39.742 -58.766  1.00  0.00     0.161 HD
HETATM   18  O   UNL     1     -37.430  42.453 -60.345  1.00  0.00    -0.274 OA
ENDBRANCH  13  14
ENDBRANCH  12  13
ENDBRANCH  11  12
ENDBRANCH   8  11
ENDBRANCH   1   5
BRANCH   2  19
HETATM   19  C   UNL     1     -32.778  39.443 -49.490  1.00  0.00     0.033 A 
HETATM   20  C   UNL     1     -31.728  39.777 -48.621  1.00  0.00     0.029 A 
HETATM   21  C   UNL     1     -31.614  39.164 -47.366  1.00  0.00    -0.023 A 
HETATM   22  C   UNL     1     -32.567  38.208 -46.994  1.00  0.00     0.012 A 
HETATM   23  C   UNL     1     -33.626  37.884 -47.848  1.00  0.00     0.002 A 
HETATM   24  C   UNL     1     -33.737  38.506 -49.092  1.00  0.00     0.017 A 
BRANCH  21  25
HETATM   25  C   UNL     1     -30.530  39.505 -46.457  1.00  0.00    -0.002 A 
HETATM   26  C   UNL     1     -29.243  39.813 -46.855  1.00  0.00     0.153 A 
HETATM   27  O   UNL     1     -28.460  40.101 -45.782  1.00  0.00    -0.334 OA
HETATM   28  C   UNL     1     -29.244  39.987 -44.682  1.00  0.00     0.142 A 
HETATM   29  C   UNL     1     -30.523  39.630 -45.039  1.00  0.00     0.038 A 
ENDBRANCH  21  25
ENDBRANCH   2  19
TORSDOF 7
ENDMDL
