MODEL 1
REMARK VINA RESULT:      -8.0      0.000      0.000
REMARK  5 active torsions:
REMARK  status: ('A' for Active; 'I' for Inactive)
REMARK    1  A    between atoms: C_6  and  C_7 
REMARK    2  A    between atoms: C_12  and  C_13 
REMARK    3  A    between atoms: C_13  and  N_14 
REMARK    4  A    between atoms: C_17  and  O_18 
REMARK    5  A    between atoms: C_17  and  C_19 
ROOT
HETATM    1  C   UNL     1     -41.903  54.288 -54.656  1.00  0.00     0.096 A 
HETATM    2  N   UNL     1     -42.909  53.839 -55.414  1.00  0.00    -0.174 NA
HETATM    3  N   UNL     1     -43.371  54.917 -56.058  1.00  0.00    -0.288 N 
HETATM    4  H   UNL     1     -44.119  54.790 -56.736  1.00  0.00     0.188 HD
HETATM    5  C   UNL     1     -42.757  56.071 -55.671  1.00  0.00     0.120 A 
HETATM    6  C   UNL     1     -41.794  55.712 -54.746  1.00  0.00     0.016 A 
ENDROOT
BRANCH   6   7
HETATM    7  C   UNL     1     -40.876  56.617 -54.007  1.00  0.00     0.277 C 
BRANCH   7   8
HETATM    8  N   UNL     1     -41.594  57.793 -53.389  1.00  0.00    -0.064 N 
HETATM    9  H   UNL     1     -41.979  58.347 -54.167  1.00  0.00     0.280 HD
HETATM   10  C   UNL     1     -40.688  58.707 -52.557  1.00  0.00     0.282 C 
HETATM   11  C   UNL     1     -41.139  58.471 -51.117  1.00  0.00     0.180 C 
HETATM   12  C   UNL     1     -42.640  58.287 -51.277  1.00  0.00     0.076 C 
HETATM   13  C   UNL     1     -42.740  57.373 -52.489  1.00  0.00     0.238 C 
BRANCH  11  14
HETATM   14  O   UNL     1     -40.589  57.217 -50.653  1.00  0.00    -0.379 OA
HETATM   15  H   UNL     1     -39.610  57.288 -50.652  1.00  0.00     0.211 HD
ENDBRANCH  11  14
BRANCH  11  16
HETATM   16  C   UNL     1     -40.746  59.663 -50.251  1.00  0.00     0.419 C 
HETATM   17  F   UNL     1     -39.455  59.997 -50.442  1.00  0.00    -0.168 F 
HETATM   18  F   UNL     1     -41.514  60.730 -50.552  1.00  0.00    -0.168 F 
HETATM   19  F   UNL     1     -40.916  59.376 -48.945  1.00  0.00    -0.168 F 
ENDBRANCH  11  16
ENDBRANCH   7   8
ENDBRANCH   6   7
BRANCH   1  20
HETATM   20  C   UNL     1     -41.133  53.364 -53.826  1.00  0.00    -0.003 A 
HETATM   21  C   UNL     1     -40.635  52.168 -54.354  1.00  0.00     0.037 A 
HETATM   22  C   UNL     1     -39.869  51.319 -53.555  1.00  0.00     0.035 A 
HETATM   23  C   UNL     1     -39.607  51.639 -52.225  1.00  0.00     0.024 A 
HETATM   24 CL   UNL     1     -39.228  49.873 -54.232  1.00  0.00    -0.084 Cl
HETATM   25  C   UNL     1     -40.123  52.816 -51.684  1.00  0.00     0.003 A 
HETATM   26  C   UNL     1     -40.883  53.675 -52.481  1.00  0.00     0.014 A 
ENDBRANCH   1  20
TORSDOF 5
ENDMDL
MODEL 2
REMARK VINA RESULT:      -7.9      3.459      4.981
REMARK  5 active torsions:
REMARK  status: ('A' for Active; 'I' for Inactive)
REMARK    1  A    between atoms: C_6  and  C_7 
REMARK    2  A    between atoms: C_12  and  C_13 
REMARK    3  A    between atoms: C_13  and  N_14 
REMARK    4  A    between atoms: C_17  and  O_18 
REMARK    5  A    between atoms: C_17  and  C_19 
ROOT
HETATM    1  C   UNL     1     -40.363  53.384 -50.801  1.00  0.00     0.096 A 
HETATM    2  N   UNL     1     -39.553  53.935 -49.891  1.00  0.00    -0.174 NA
HETATM    3  N   UNL     1     -40.062  55.149 -49.656  1.00  0.00    -0.288 N 
HETATM    4  H   UNL     1     -39.620  55.730 -48.946  1.00  0.00     0.188 HD
HETATM    5  C   UNL     1     -41.126  55.443 -50.457  1.00  0.00     0.120 A 
HETATM    6  C   UNL     1     -41.356  54.321 -51.232  1.00  0.00     0.016 A 
ENDROOT
BRANCH   6   7
HETATM    7  C   UNL     1     -42.391  54.152 -52.283  1.00  0.00     0.277 C 
BRANCH   7   8
HETATM    8  N   UNL     1     -41.954  54.701 -53.621  1.00  0.00    -0.064 N 
HETATM    9  H   UNL     1     -40.927  54.768 -53.592  1.00  0.00     0.280 HD
HETATM   10  C   UNL     1     -42.513  56.094 -53.933  1.00  0.00     0.282 C 
HETATM   11  C   UNL     1     -43.514  55.853 -55.059  1.00  0.00     0.180 C 
HETATM   12  C   UNL     1     -42.837  54.752 -55.861  1.00  0.00     0.076 C 
HETATM   13  C   UNL     1     -42.342  53.803 -54.779  1.00  0.00     0.238 C 
BRANCH  11  14
HETATM   14  O   UNL     1     -44.728  55.303 -54.498  1.00  0.00    -0.379 OA
HETATM   15  H   UNL     1     -44.781  55.567 -53.554  1.00  0.00     0.211 HD
ENDBRANCH  11  14
BRANCH  11  16
HETATM   16  C   UNL     1     -43.737  57.143 -55.839  1.00  0.00     0.419 C 
HETATM   17  F   UNL     1     -44.871  57.756 -55.447  1.00  0.00    -0.168 F 
HETATM   18  F   UNL     1     -42.704  57.989 -55.645  1.00  0.00    -0.168 F 
HETATM   19  F   UNL     1     -43.832  56.890 -57.159  1.00  0.00    -0.168 F 
ENDBRANCH  11  16
ENDBRANCH   7   8
ENDBRANCH   6   7
BRANCH   1  20
HETATM   20  C   UNL     1     -40.124  52.024 -51.277  1.00  0.00    -0.003 A 
HETATM   21  C   UNL     1     -39.924  51.762 -52.637  1.00  0.00     0.037 A 
HETATM   22  C   UNL     1     -39.658  50.461 -53.064  1.00  0.00     0.035 A 
HETATM   23  C   UNL     1     -39.605  49.410 -52.153  1.00  0.00     0.024 A 
HETATM   24 CL   UNL     1     -39.373  50.163 -54.734  1.00  0.00    -0.084 Cl
HETATM   25  C   UNL     1     -39.830  49.659 -50.799  1.00  0.00     0.003 A 
HETATM   26  C   UNL     1     -40.088  50.960 -50.363  1.00  0.00     0.014 A 
ENDBRANCH   1  20
TORSDOF 5
ENDMDL
MODEL 3
REMARK VINA RESULT:      -7.8      1.146      1.710
REMARK  5 active torsions:
REMARK  status: ('A' for Active; 'I' for Inactive)
REMARK    1  A    between atoms: C_6  and  C_7 
REMARK    2  A    between atoms: C_12  and  C_13 
REMARK    3  A    between atoms: C_13  and  N_14 
REMARK    4  A    between atoms: C_17  and  O_18 
REMARK    5  A    between atoms: C_17  and  C_19 
ROOT
HETATM    1  C   UNL     1     -41.870  54.226 -54.575  1.00  0.00     0.096 A 
HETATM    2  N   UNL     1     -42.875  53.729 -55.303  1.00  0.00    -0.174 NA
HETATM    3  N   UNL     1     -43.364  54.770 -55.986  1.00  0.00    -0.288 N 
HETATM    4  H   UNL     1     -44.117  54.602 -56.650  1.00  0.00     0.188 HD
HETATM    5  C   UNL     1     -42.768  55.950 -55.652  1.00  0.00     0.120 A 
HETATM    6  C   UNL     1     -41.788  55.648 -54.724  1.00  0.00     0.016 A 
ENDROOT
BRANCH   6   7
HETATM    7  C   UNL     1     -40.880  56.598 -54.034  1.00  0.00     0.277 C 
BRANCH   7   8
HETATM    8  N   UNL     1     -41.620  57.757 -53.408  1.00  0.00    -0.064 N 
HETATM    9  H   UNL     1     -42.028  58.300 -54.181  1.00  0.00     0.280 HD
HETATM   10  C   UNL     1     -40.728  58.694 -52.586  1.00  0.00     0.282 C 
HETATM   11  C   UNL     1     -41.155  58.447 -51.142  1.00  0.00     0.180 C 
HETATM   12  C   UNL     1     -42.653  58.225 -51.283  1.00  0.00     0.076 C 
HETATM   13  C   UNL     1     -42.745  57.309 -52.494  1.00  0.00     0.238 C 
BRANCH  11  14
HETATM   14  O   UNL     1     -40.569  57.207 -50.683  1.00  0.00    -0.379 OA
HETATM   15  H   UNL     1     -40.157  56.757 -51.452  1.00  0.00     0.211 HD
ENDBRANCH  11  14
BRANCH  11  16
HETATM   16  C   UNL     1     -40.783  59.649 -50.280  1.00  0.00     0.419 C 
HETATM   17  F   UNL     1     -41.566  60.708 -50.561  1.00  0.00    -0.168 F 
HETATM   18  F   UNL     1     -40.926  59.346 -48.973  1.00  0.00    -0.168 F 
HETATM   19  F   UNL     1     -39.502  60.007 -50.493  1.00  0.00    -0.168 F 
ENDBRANCH  11  16
ENDBRANCH   7   8
ENDBRANCH   6   7
BRANCH   1  20
HETATM   20  C   UNL     1     -41.075  53.351 -53.717  1.00  0.00    -0.003 A 
HETATM   21  C   UNL     1     -41.069  53.519 -52.328  1.00  0.00     0.037 A 
HETATM   22  C   UNL     1     -40.333  52.647 -51.525  1.00  0.00     0.035 A 
HETATM   23  C   UNL     1     -39.587  51.616 -52.090  1.00  0.00     0.024 A 
HETATM   24 CL   UNL     1     -40.370  52.840 -49.816  1.00  0.00    -0.084 Cl
HETATM   25  C   UNL     1     -39.567  51.460 -53.476  1.00  0.00     0.003 A 
HETATM   26  C   UNL     1     -40.307  52.324 -54.286  1.00  0.00     0.014 A 
ENDBRANCH   1  20
TORSDOF 5
ENDMDL
MODEL 4
REMARK VINA RESULT:      -7.7      4.439      5.702
REMARK  5 active torsions:
REMARK  status: ('A' for Active; 'I' for Inactive)
REMARK    1  A    between atoms: C_6  and  C_7 
REMARK    2  A    between atoms: C_12  and  C_13 
REMARK    3  A    between atoms: C_13  and  N_14 
REMARK    4  A    between atoms: C_17  and  O_18 
REMARK    5  A    between atoms: C_17  and  C_19 
ROOT
HETATM    1  C   UNL     1     -41.016  54.835 -52.231  1.00  0.00     0.096 A 
HETATM    2  N   UNL     1     -41.094  55.130 -50.929  1.00  0.00    -0.174 NA
HETATM    3  N   UNL     1     -41.565  56.381 -50.880  1.00  0.00    -0.288 N 
HETATM    4  H   UNL     1     -41.750  56.792 -49.967  1.00  0.00     0.188 HD
HETATM    5  C   UNL     1     -41.708  56.943 -52.114  1.00  0.00     0.120 A 
HETATM    6  C   UNL     1     -41.351  55.973 -53.032  1.00  0.00     0.016 A 
ENDROOT
BRANCH   6   7
HETATM    7  C   UNL     1     -41.312  56.106 -54.511  1.00  0.00     0.277 C 
BRANCH   7   8
HETATM    8  N   UNL     1     -42.679  55.977 -55.140  1.00  0.00    -0.064 N 
HETATM    9  H   UNL     1     -43.259  55.437 -54.482  1.00  0.00     0.280 HD
HETATM   10  C   UNL     1     -42.677  55.242 -56.486  1.00  0.00     0.282 C 
HETATM   11  C   UNL     1     -42.993  56.330 -57.508  1.00  0.00     0.180 C 
HETATM   12  C   UNL     1     -43.982  57.204 -56.751  1.00  0.00     0.076 C 
HETATM   13  C   UNL     1     -43.346  57.319 -55.374  1.00  0.00     0.238 C 
BRANCH  11  14
HETATM   14  O   UNL     1     -41.802  57.117 -57.740  1.00  0.00    -0.379 OA
HETATM   15  H   UNL     1     -41.021  56.527 -57.661  1.00  0.00     0.211 HD
ENDBRANCH  11  14
BRANCH  11  16
HETATM   16  C   UNL     1     -43.561  55.701 -58.775  1.00  0.00     0.419 C 
HETATM   17  F   UNL     1     -42.625  55.631 -59.742  1.00  0.00    -0.168 F 
HETATM   18  F   UNL     1     -44.004  54.454 -58.517  1.00  0.00    -0.168 F 
HETATM   19  F   UNL     1     -44.594  56.427 -59.244  1.00  0.00    -0.168 F 
ENDBRANCH  11  16
ENDBRANCH   7   8
ENDBRANCH   6   7
BRANCH   1  20
HETATM   20  C   UNL     1     -40.563  53.515 -52.664  1.00  0.00    -0.003 A 
HETATM   21  C   UNL     1     -40.144  52.558 -51.734  1.00  0.00     0.037 A 
HETATM   22  C   UNL     1     -39.753  51.290 -52.167  1.00  0.00     0.035 A 
HETATM   23  C   UNL     1     -39.757  50.968 -53.521  1.00  0.00     0.024 A 
HETATM   24 CL   UNL     1     -39.282  50.111 -51.007  1.00  0.00    -0.084 Cl
HETATM   25  C   UNL     1     -40.147  51.927 -54.456  1.00  0.00     0.003 A 
HETATM   26  C   UNL     1     -40.548  53.195 -54.030  1.00  0.00     0.014 A 
ENDBRANCH   1  20
TORSDOF 5
ENDMDL
MODEL 5
REMARK VINA RESULT:      -7.7      4.784      5.941
REMARK  5 active torsions:
REMARK  status: ('A' for Active; 'I' for Inactive)
REMARK    1  A    between atoms: C_6  and  C_7 
REMARK    2  A    between atoms: C_12  and  C_13 
REMARK    3  A    between atoms: C_13  and  N_14 
REMARK    4  A    between atoms: C_17  and  O_18 
REMARK    5  A    between atoms: C_17  and  C_19 
ROOT
HETATM    1  C   UNL     1     -42.912  55.544 -52.402  1.00  0.00     0.096 A 
HETATM    2  N   UNL     1     -43.653  55.879 -51.340  1.00  0.00    -0.174 NA
HETATM    3  N   UNL     1     -44.503  56.811 -51.784  1.00  0.00    -0.288 N 
HETATM    4  H   UNL     1     -45.202  57.175 -51.140  1.00  0.00     0.188 HD
HETATM    5  C   UNL     1     -44.275  57.162 -53.082  1.00  0.00     0.120 A 
HETATM    6  C   UNL     1     -43.235  56.367 -53.528  1.00  0.00     0.016 A 
ENDROOT
BRANCH   6   7
HETATM    7  C   UNL     1     -42.598  56.388 -54.869  1.00  0.00     0.277 C 
BRANCH   7   8
HETATM    8  N   UNL     1     -43.601  56.243 -55.989  1.00  0.00    -0.064 N 
HETATM    9  H   UNL     1     -44.373  55.668 -55.623  1.00  0.00     0.280 HD
HETATM   10  C   UNL     1     -43.042  55.550 -57.238  1.00  0.00     0.282 C 
HETATM   11  C   UNL     1     -42.970  56.661 -58.282  1.00  0.00     0.180 C 
HETATM   12  C   UNL     1     -44.209  57.484 -57.961  1.00  0.00     0.076 C 
HETATM   13  C   UNL     1     -44.171  57.573 -56.443  1.00  0.00     0.238 C 
BRANCH  11  14
HETATM   14  O   UNL     1     -41.814  57.486 -58.011  1.00  0.00    -0.379 OA
HETATM   15  H   UNL     1     -41.464  57.819 -58.866  1.00  0.00     0.211 HD
ENDBRANCH  11  14
BRANCH  11  16
HETATM   16  C   UNL     1     -42.970  56.057 -59.681  1.00  0.00     0.419 C 
HETATM   17  F   UNL     1     -43.494  54.816 -59.673  1.00  0.00    -0.168 F 
HETATM   18  F   UNL     1     -43.697  56.823 -60.519  1.00  0.00    -0.168 F 
HETATM   19  F   UNL     1     -41.714  55.978 -60.164  1.00  0.00    -0.168 F 
ENDBRANCH  11  16
ENDBRANCH   7   8
ENDBRANCH   6   7
BRANCH   1  20
HETATM   20  C   UNL     1     -41.883  54.512 -52.290  1.00  0.00    -0.003 A 
HETATM   21  C   UNL     1     -41.702  53.566 -53.303  1.00  0.00     0.037 A 
HETATM   22  C   UNL     1     -40.688  52.613 -53.194  1.00  0.00     0.035 A 
HETATM   23  C   UNL     1     -39.860  52.581 -52.075  1.00  0.00     0.024 A 
HETATM   24 CL   UNL     1     -40.451  51.483 -54.469  1.00  0.00    -0.084 Cl
HETATM   25  C   UNL     1     -40.052  53.506 -51.048  1.00  0.00     0.003 A 
HETATM   26  C   UNL     1     -41.060  54.467 -51.155  1.00  0.00     0.014 A 
ENDBRANCH   1  20
TORSDOF 5
ENDMDL
MODEL 6
REMARK VINA RESULT:      -7.6      3.065      4.315
REMARK  5 active torsions:
REMARK  status: ('A' for Active; 'I' for Inactive)
REMARK    1  A    between atoms: C_6  and  C_7 
REMARK    2  A    between atoms: C_12  and  C_13 
REMARK    3  A    between atoms: C_13  and  N_14 
REMARK    4  A    between atoms: C_17  and  O_18 
REMARK    5  A    between atoms: C_17  and  C_19 
ROOT
HETATM    1  C   UNL     1     -40.552  54.044 -50.827  1.00  0.00     0.096 A 
HETATM    2  N   UNL     1     -39.503  53.852 -50.019  1.00  0.00    -0.174 NA
HETATM    3  N   UNL     1     -39.912  54.255 -48.811  1.00  0.00    -0.288 N 
HETATM    4  H   UNL     1     -39.275  54.148 -48.024  1.00  0.00     0.188 HD
HETATM    5  C   UNL     1     -41.166  54.793 -48.826  1.00  0.00     0.120 A 
HETATM    6  C   UNL     1     -41.623  54.686 -50.127  1.00  0.00     0.016 A 
ENDROOT
BRANCH   6   7
HETATM    7  C   UNL     1     -42.926  55.155 -50.663  1.00  0.00     0.277 C 
BRANCH   7   8
HETATM    8  N   UNL     1     -43.084  56.655 -50.572  1.00  0.00    -0.064 N 
HETATM    9  H   UNL     1     -43.174  56.883 -49.572  1.00  0.00     0.280 HD
HETATM   10  C   UNL     1     -44.322  57.194 -51.297  1.00  0.00     0.282 C 
HETATM   11  C   UNL     1     -43.755  57.951 -52.495  1.00  0.00     0.180 C 
HETATM   12  C   UNL     1     -42.485  58.558 -51.920  1.00  0.00     0.076 C 
HETATM   13  C   UNL     1     -41.889  57.404 -51.127  1.00  0.00     0.238 C 
BRANCH  11  14
HETATM   14  O   UNL     1     -43.364  56.997 -53.510  1.00  0.00    -0.379 OA
HETATM   15  H   UNL     1     -43.935  57.131 -54.298  1.00  0.00     0.211 HD
ENDBRANCH  11  14
BRANCH  11  16
HETATM   16  C   UNL     1     -44.769  58.977 -52.987  1.00  0.00     0.419 C 
HETATM   17  F   UNL     1     -45.703  59.223 -52.047  1.00  0.00    -0.168 F 
HETATM   18  F   UNL     1     -44.149  60.137 -53.287  1.00  0.00    -0.168 F 
HETATM   19  F   UNL     1     -45.395  58.534 -54.094  1.00  0.00    -0.168 F 
ENDBRANCH  11  16
ENDBRANCH   7   8
ENDBRANCH   6   7
BRANCH   1  20
HETATM   20  C   UNL     1     -40.474  53.677 -52.239  1.00  0.00    -0.003 A 
HETATM   21  C   UNL     1     -40.213  52.358 -52.626  1.00  0.00     0.037 A 
HETATM   22  C   UNL     1     -40.183  52.023 -53.980  1.00  0.00     0.035 A 
HETATM   23  C   UNL     1     -40.392  52.992 -54.958  1.00  0.00     0.024 A 
HETATM   24 CL   UNL     1     -39.903  50.389 -54.438  1.00  0.00    -0.084 Cl
HETATM   25  C   UNL     1     -40.625  54.314 -54.580  1.00  0.00     0.003 A 
HETATM   26  C   UNL     1     -40.666  54.655 -53.226  1.00  0.00     0.014 A 
ENDBRANCH   1  20
TORSDOF 5
ENDMDL
MODEL 7
REMARK VINA RESULT:      -7.4     16.087     17.748
REMARK  5 active torsions:
REMARK  status: ('A' for Active; 'I' for Inactive)
REMARK    1  A    between atoms: C_6  and  C_7 
REMARK    2  A    between atoms: C_12  and  C_13 
REMARK    3  A    between atoms: C_13  and  N_14 
REMARK    4  A    between atoms: C_17  and  O_18 
REMARK    5  A    between atoms: C_17  and  C_19 
ROOT
HETATM    1  C   UNL     1     -37.189  41.303 -55.797  1.00  0.00     0.096 A 
HETATM    2  N   UNL     1     -38.257  41.214 -54.997  1.00  0.00    -0.174 NA
HETATM    3  N   UNL     1     -37.811  41.542 -53.779  1.00  0.00    -0.288 N 
HETATM    4  H   UNL     1     -38.482  41.587 -53.015  1.00  0.00     0.188 HD
HETATM    5  C   UNL     1     -36.464  41.750 -53.745  1.00  0.00     0.120 A 
HETATM    6  C   UNL     1     -36.009  41.595 -55.042  1.00  0.00     0.016 A 
ENDROOT
BRANCH   6   7
HETATM    7  C   UNL     1     -34.607  41.694 -55.520  1.00  0.00     0.277 C 
BRANCH   7   8
HETATM    8  N   UNL     1     -33.945  40.343 -55.656  1.00  0.00    -0.064 N 
HETATM    9  H   UNL     1     -34.548  39.777 -56.270  1.00  0.00     0.280 HD
HETATM   10  C   UNL     1     -33.782  39.594 -54.328  1.00  0.00     0.282 C 
HETATM   11  C   UNL     1     -32.278  39.613 -54.069  1.00  0.00     0.180 C 
HETATM   12  C   UNL     1     -31.709  39.468 -55.472  1.00  0.00     0.076 C 
HETATM   13  C   UNL     1     -32.568  40.425 -56.285  1.00  0.00     0.238 C 
BRANCH  11  14
HETATM   14  O   UNL     1     -31.902  40.920 -53.577  1.00  0.00    -0.379 OA
HETATM   15  H   UNL     1     -30.923  40.959 -53.519  1.00  0.00     0.211 HD
ENDBRANCH  11  14
BRANCH  11  16
HETATM   16  C   UNL     1     -31.901  38.477 -53.124  1.00  0.00     0.419 C 
HETATM   17  F   UNL     1     -32.941  37.642 -52.932  1.00  0.00    -0.168 F 
HETATM   18  F   UNL     1     -30.873  37.769 -53.634  1.00  0.00    -0.168 F 
HETATM   19  F   UNL     1     -31.526  38.963 -51.925  1.00  0.00    -0.168 F 
ENDBRANCH  11  16
ENDBRANCH   7   8
ENDBRANCH   6   7
BRANCH   1  20
HETATM   20  C   UNL     1     -37.315  41.040 -57.229  1.00  0.00    -0.003 A 
HETATM   21  C   UNL     1     -37.282  42.086 -58.158  1.00  0.00     0.037 A 
HETATM   22  C   UNL     1     -37.364  41.809 -59.522  1.00  0.00     0.035 A 
HETATM   23  C   UNL     1     -37.497  40.499 -59.976  1.00  0.00     0.024 A 
HETATM   24 CL   UNL     1     -37.278  43.102 -60.653  1.00  0.00    -0.084 Cl
HETATM   25  C   UNL     1     -37.558  39.454 -59.054  1.00  0.00     0.003 A 
HETATM   26  C   UNL     1     -37.468  39.723 -57.687  1.00  0.00     0.014 A 
ENDBRANCH   1  20
TORSDOF 5
ENDMDL
MODEL 8
REMARK VINA RESULT:      -7.2      5.142      6.700
REMARK  5 active torsions:
REMARK  status: ('A' for Active; 'I' for Inactive)
REMARK    1  A    between atoms: C_6  and  C_7 
REMARK    2  A    between atoms: C_12  and  C_13 
REMARK    3  A    between atoms: C_13  and  N_14 
REMARK    4  A    between atoms: C_17  and  O_18 
REMARK    5  A    between atoms: C_17  and  C_19 
ROOT
HETATM    1  C   UNL     1     -41.295  57.253 -53.954  1.00  0.00     0.096 A 
HETATM    2  N   UNL     1     -40.516  58.163 -53.359  1.00  0.00    -0.174 NA
HETATM    3  N   UNL     1     -41.092  59.342 -53.619  1.00  0.00    -0.288 N 
HETATM    4  H   UNL     1     -40.683  60.180 -53.212  1.00  0.00     0.188 HD
HETATM    5  C   UNL     1     -42.172  59.235 -54.445  1.00  0.00     0.120 A 
HETATM    6  C   UNL     1     -42.339  57.887 -54.700  1.00  0.00     0.016 A 
ENDROOT
BRANCH   6   7
HETATM    7  C   UNL     1     -43.364  57.257 -55.572  1.00  0.00     0.277 C 
BRANCH   7   8
HETATM    8  N   UNL     1     -43.423  57.886 -56.944  1.00  0.00    -0.064 N 
HETATM    9  H   UNL     1     -43.436  58.905 -56.803  1.00  0.00     0.280 HD
HETATM   10  C   UNL     1     -44.669  57.501 -57.750  1.00  0.00     0.282 C 
HETATM   11  C   UNL     1     -44.133  56.607 -58.865  1.00  0.00     0.180 C 
HETATM   12  C   UNL     1     -42.794  57.255 -59.182  1.00  0.00     0.076 C 
HETATM   13  C   UNL     1     -42.222  57.537 -57.801  1.00  0.00     0.238 C 
BRANCH  11  14
HETATM   14  O   UNL     1     -43.867  55.292 -58.325  1.00  0.00    -0.379 OA
HETATM   15  H   UNL     1     -44.207  55.260 -57.405  1.00  0.00     0.211 HD
ENDBRANCH  11  14
BRANCH  11  16
HETATM   16  C   UNL     1     -45.111  56.595 -60.034  1.00  0.00     0.419 C 
HETATM   17  F   UNL     1     -46.284  56.035 -59.679  1.00  0.00    -0.168 F 
HETATM   18  F   UNL     1     -45.349  57.854 -60.455  1.00  0.00    -0.168 F 
HETATM   19  F   UNL     1     -44.607  55.892 -61.068  1.00  0.00    -0.168 F 
ENDBRANCH  11  16
ENDBRANCH   7   8
ENDBRANCH   6   7
BRANCH   1  20
HETATM   20  C   UNL     1     -40.981  55.830 -53.849  1.00  0.00    -0.003 A 
HETATM   21  C   UNL     1     -41.106  55.154 -52.631  1.00  0.00     0.037 A 
HETATM   22  C   UNL     1     -40.839  53.786 -52.564  1.00  0.00     0.035 A 
HETATM   23  C   UNL     1     -40.430  53.084 -53.694  1.00  0.00     0.024 A 
HETATM   24 CL   UNL     1     -41.038  52.960 -51.068  1.00  0.00    -0.084 Cl
HETATM   25  C   UNL     1     -40.278  53.757 -54.906  1.00  0.00     0.003 A 
HETATM   26  C   UNL     1     -40.552  55.125 -54.983  1.00  0.00     0.014 A 
ENDBRANCH   1  20
TORSDOF 5
ENDMDL
MODEL 9
REMARK VINA RESULT:      -7.2      4.813      6.372
REMARK  5 active torsions:
REMARK  status: ('A' for Active; 'I' for Inactive)
REMARK    1  A    between atoms: C_6  and  C_7 
REMARK    2  A    between atoms: C_12  and  C_13 
REMARK    3  A    between atoms: C_13  and  N_14 
REMARK    4  A    between atoms: C_17  and  O_18 
REMARK    5  A    between atoms: C_17  and  C_19 
ROOT
HETATM    1  C   UNL     1     -41.202  57.009 -53.992  1.00  0.00     0.096 A 
HETATM    2  N   UNL     1     -40.531  57.936 -53.299  1.00  0.00    -0.174 NA
HETATM    3  N   UNL     1     -41.070  59.105 -53.663  1.00  0.00    -0.288 N 
HETATM    4  H   UNL     1     -40.735  59.953 -53.212  1.00  0.00     0.188 HD
HETATM    5  C   UNL     1     -42.008  58.974 -54.644  1.00  0.00     0.120 A 
HETATM    6  C   UNL     1     -42.124  57.620 -54.900  1.00  0.00     0.016 A 
ENDROOT
BRANCH   6   7
HETATM    7  C   UNL     1     -42.997  56.967 -55.908  1.00  0.00     0.277 C 
BRANCH   7   8
HETATM    8  N   UNL     1     -42.312  56.795 -57.244  1.00  0.00    -0.064 N 
HETATM    9  H   UNL     1     -41.378  56.407 -57.050  1.00  0.00     0.280 HD
HETATM   10  C   UNL     1     -42.133  58.102 -58.023  1.00  0.00     0.282 C 
HETATM   11  C   UNL     1     -43.095  57.971 -59.201  1.00  0.00     0.180 C 
HETATM   12  C   UNL     1     -42.998  56.490 -59.532  1.00  0.00     0.076 C 
HETATM   13  C   UNL     1     -43.046  55.835 -58.160  1.00  0.00     0.238 C 
BRANCH  11  14
HETATM   14  O   UNL     1     -44.440  58.231 -58.739  1.00  0.00    -0.379 OA
HETATM   15  H   UNL     1     -45.042  58.222 -59.515  1.00  0.00     0.211 HD
ENDBRANCH  11  14
BRANCH  11  16
HETATM   16  C   UNL     1     -42.655  58.892 -60.334  1.00  0.00     0.419 C 
HETATM   17  F   UNL     1     -43.672  59.137 -61.182  1.00  0.00    -0.168 F 
HETATM   18  F   UNL     1     -42.221  60.068 -59.836  1.00  0.00    -0.168 F 
HETATM   19  F   UNL     1     -41.649  58.334 -61.035  1.00  0.00    -0.168 F 
ENDBRANCH  11  16
ENDBRANCH   7   8
ENDBRANCH   6   7
BRANCH   1  20
HETATM   20  C   UNL     1     -40.896  55.591 -53.817  1.00  0.00    -0.003 A 
HETATM   21  C   UNL     1     -41.045  54.971 -52.572  1.00  0.00     0.037 A 
HETATM   22  C   UNL     1     -40.785  53.607 -52.437  1.00  0.00     0.035 A 
HETATM   23  C   UNL     1     -40.360  52.852 -53.528  1.00  0.00     0.024 A 
HETATM   24 CL   UNL     1     -41.014  52.851 -50.909  1.00  0.00    -0.084 Cl
HETATM   25  C   UNL     1     -40.184  53.470 -54.766  1.00  0.00     0.003 A 
HETATM   26  C   UNL     1     -40.450  54.833 -54.910  1.00  0.00     0.014 A 
ENDBRANCH   1  20
TORSDOF 5
ENDMDL
MODEL 10
REMARK VINA RESULT:      -7.2     15.901     17.265
REMARK  5 active torsions:
REMARK  status: ('A' for Active; 'I' for Inactive)
REMARK    1  A    between atoms: C_6  and  C_7 
REMARK    2  A    between atoms: C_12  and  C_13 
REMARK    3  A    between atoms: C_13  and  N_14 
REMARK    4  A    between atoms: C_17  and  O_18 
REMARK    5  A    between atoms: C_17  and  C_19 
ROOT
HETATM    1  C   UNL     1     -37.938  41.057 -56.095  1.00  0.00     0.096 A 
HETATM    2  N   UNL     1     -39.142  41.297 -55.566  1.00  0.00    -0.174 NA
HETATM    3  N   UNL     1     -38.940  41.360 -54.245  1.00  0.00    -0.288 N 
HETATM    4  H   UNL     1     -39.730  41.586 -53.645  1.00  0.00     0.188 HD
HETATM    5  C   UNL     1     -37.655  41.072 -53.891  1.00  0.00     0.120 A 
HETATM    6  C   UNL     1     -36.961  40.857 -55.068  1.00  0.00     0.016 A 
ENDROOT
BRANCH   6   7
HETATM    7  C   UNL     1     -35.531  40.485 -55.213  1.00  0.00     0.277 C 
BRANCH   7   8
HETATM    8  N   UNL     1     -35.015  39.694 -54.033  1.00  0.00    -0.064 N 
HETATM    9  H   UNL     1     -35.833  39.246 -53.597  1.00  0.00     0.280 HD
HETATM   10  C   UNL     1     -34.318  40.549 -52.969  1.00  0.00     0.282 C 
HETATM   11  C   UNL     1     -32.846  40.159 -53.080  1.00  0.00     0.180 C 
HETATM   12  C   UNL     1     -32.931  38.673 -53.392  1.00  0.00     0.076 C 
HETATM   13  C   UNL     1     -34.035  38.610 -54.437  1.00  0.00     0.238 C 
BRANCH  11  14
HETATM   14  O   UNL     1     -32.272  40.817 -54.232  1.00  0.00    -0.379 OA
HETATM   15  H   UNL     1     -32.989  40.992 -54.879  1.00  0.00     0.211 HD
ENDBRANCH  11  14
BRANCH  11  16
HETATM   16  C   UNL     1     -32.126  40.481 -51.776  1.00  0.00     0.419 C 
HETATM   17  F   UNL     1     -31.485  39.397 -51.296  1.00  0.00    -0.168 F 
HETATM   18  F   UNL     1     -31.220  41.460 -51.974  1.00  0.00    -0.168 F 
HETATM   19  F   UNL     1     -33.001  40.899 -50.840  1.00  0.00    -0.168 F 
ENDBRANCH  11  16
ENDBRANCH   7   8
ENDBRANCH   6   7
BRANCH   1  20
HETATM   20  C   UNL     1     -37.773  40.956 -57.543  1.00  0.00    -0.003 A 
HETATM   21  C   UNL     1     -38.144  39.795 -58.230  1.00  0.00     0.037 A 
HETATM   22  C   UNL     1     -38.015  39.735 -59.618  1.00  0.00     0.035 A 
HETATM   23  C   UNL     1     -37.503  40.816 -60.332  1.00  0.00     0.024 A 
HETATM   24 CL   UNL     1     -38.515  38.316 -60.452  1.00  0.00    -0.084 Cl
HETATM   25  C   UNL     1     -37.106  41.966 -59.651  1.00  0.00     0.003 A 
HETATM   26  C   UNL     1     -37.241  42.036 -58.263  1.00  0.00     0.014 A 
ENDBRANCH   1  20
TORSDOF 5
ENDMDL
