MODEL 1
REMARK VINA RESULT:      -7.8      0.000      0.000
REMARK  3 active torsions:
REMARK  status: ('A' for Active; 'I' for Inactive)
REMARK    1  A    between atoms: C_2  and  N_3 
REMARK       I    between atoms: N_3  and  C_4 
REMARK    2  A    between atoms: C_4  and  C_5 
REMARK    3  A    between atoms: C_5  and  C_6 
ROOT
HETATM    1  C   UNL     1     -41.800  57.199 -55.327  1.00  0.00     0.286 C 
HETATM    2  N   UNL     1     -42.113  56.341 -56.551  1.00  0.00    -0.056 N 
HETATM    3  H   UNL     1     -41.276  56.320 -57.146  1.00  0.00     0.278 HD
HETATM    4  H   UNL     1     -42.227  55.357 -56.224  1.00  0.00     0.278 HD
HETATM    5  C   UNL     1     -43.318  56.782 -57.336  1.00  0.00     0.209 C 
HETATM    6  C   UNL     1     -43.107  58.253 -57.769  1.00  0.00     0.115 C 
HETATM    7  N   UNL     1     -42.754  59.101 -56.634  1.00  0.00    -0.353 N 
HETATM    8  C   UNL     1     -41.987  58.708 -55.567  1.00  0.00     0.249 C 
HETATM    9  O   UNL     1     -41.547  59.542 -54.783  1.00  0.00    -0.271 OA
HETATM   10  C   UNL     1     -43.518  55.840 -58.522  1.00  0.00     0.035 C 
HETATM   11  C   UNL     1     -42.457  56.002 -59.608  1.00  0.00     0.002 C 
HETATM   12  C   UNL     1     -42.320  57.455 -60.047  1.00  0.00     0.002 C 
HETATM   13  C   UNL     1     -42.043  58.383 -58.870  1.00  0.00     0.027 C 
HETATM   14  H   UNL     1     -42.834  60.112 -56.736  1.00  0.00     0.163 HD
ENDROOT
BRANCH   1  15
HETATM   15  C   UNL     1     -42.630  56.785 -54.105  1.00  0.00     0.146 C 
BRANCH  15  16
HETATM   16  C   UNL     1     -42.397  55.327 -53.785  1.00  0.00     0.224 C 
HETATM   17  N   UNL     1     -41.175  55.059 -53.214  1.00  0.00    -0.327 N 
HETATM   18  H   UNL     1     -40.507  55.820 -53.130  1.00  0.00     0.169 HD
HETATM   19  O   UNL     1     -43.299  54.526 -54.032  1.00  0.00    -0.273 OA
BRANCH  17  20
HETATM   20  C   UNL     1     -40.697  53.799 -52.785  1.00  0.00     0.034 A 
HETATM   21  C   UNL     1     -40.672  53.561 -51.404  1.00  0.00     0.031 A 
HETATM   22  C   UNL     1     -40.201  52.344 -50.898  1.00  0.00     0.026 A 
HETATM   23  C   UNL     1     -39.766  51.354 -51.773  1.00  0.00     0.034 A 
HETATM   24  C   UNL     1     -39.796  51.573 -53.147  1.00  0.00     0.026 A 
HETATM   25 CL   UNL     1     -39.188  49.858 -51.156  1.00  0.00    -0.084 Cl
HETATM   26  C   UNL     1     -40.259  52.794 -53.651  1.00  0.00     0.031 A 
ENDBRANCH  17  20
ENDBRANCH  15  16
ENDBRANCH   1  15
TORSDOF 3
ENDMDL
MODEL 2
REMARK VINA RESULT:      -7.3      4.232      4.973
REMARK  3 active torsions:
REMARK  status: ('A' for Active; 'I' for Inactive)
REMARK    1  A    between atoms: C_2  and  N_3 
REMARK       I    between atoms: N_3  and  C_4 
REMARK    2  A    between atoms: C_4  and  C_5 
REMARK    3  A    between atoms: C_5  and  C_6 
ROOT
HETATM    1  C   UNL     1     -42.432  57.368 -51.557  1.00  0.00     0.286 C 
HETATM    2  N   UNL     1     -43.733  57.978 -52.073  1.00  0.00    -0.056 N 
HETATM    3  H   UNL     1     -43.552  58.369 -53.006  1.00  0.00     0.278 HD
HETATM    4  H   UNL     1     -44.402  57.195 -52.241  1.00  0.00     0.278 HD
HETATM    5  C   UNL     1     -44.344  59.012 -51.168  1.00  0.00     0.209 C 
HETATM    6  C   UNL     1     -43.301  60.130 -50.930  1.00  0.00     0.115 C 
HETATM    7  N   UNL     1     -42.021  59.584 -50.484  1.00  0.00    -0.353 N 
HETATM    8  C   UNL     1     -41.490  58.390 -50.898  1.00  0.00     0.249 C 
HETATM    9  O   UNL     1     -40.317  58.122 -50.659  1.00  0.00    -0.271 OA
HETATM   10  C   UNL     1     -45.635  59.533 -51.798  1.00  0.00     0.035 C 
HETATM   11  C   UNL     1     -45.397  60.406 -53.028  1.00  0.00     0.002 C 
HETATM   12  C   UNL     1     -44.408  61.529 -52.736  1.00  0.00     0.002 C 
HETATM   13  C   UNL     1     -43.091  60.999 -52.180  1.00  0.00     0.027 C 
HETATM   14  H   UNL     1     -41.343  60.215 -50.059  1.00  0.00     0.163 HD
ENDROOT
BRANCH   1  15
HETATM   15  C   UNL     1     -42.685  56.218 -50.572  1.00  0.00     0.146 C 
BRANCH  15  16
HETATM   16  C   UNL     1     -42.481  54.888 -51.257  1.00  0.00     0.224 C 
HETATM   17  N   UNL     1     -41.182  54.635 -51.634  1.00  0.00    -0.327 N 
HETATM   18  H   UNL     1     -40.493  55.371 -51.505  1.00  0.00     0.169 HD
HETATM   19  O   UNL     1     -43.457  54.151 -51.399  1.00  0.00    -0.273 OA
BRANCH  17  20
HETATM   20  C   UNL     1     -40.693  53.468 -52.263  1.00  0.00     0.034 A 
HETATM   21  C   UNL     1     -40.966  53.316 -53.630  1.00  0.00     0.031 A 
HETATM   22  C   UNL     1     -40.526  52.183 -54.323  1.00  0.00     0.026 A 
HETATM   23  C   UNL     1     -39.799  51.203 -53.656  1.00  0.00     0.034 A 
HETATM   24  C   UNL     1     -39.511  51.347 -52.302  1.00  0.00     0.026 A 
HETATM   25 CL   UNL     1     -39.256  49.810 -54.505  1.00  0.00    -0.084 Cl
HETATM   26  C   UNL     1     -39.959  52.477 -51.607  1.00  0.00     0.031 A 
ENDBRANCH  17  20
ENDBRANCH  15  16
ENDBRANCH   1  15
TORSDOF 3
ENDMDL
MODEL 3
REMARK VINA RESULT:      -7.2      2.681      3.332
REMARK  3 active torsions:
REMARK  status: ('A' for Active; 'I' for Inactive)
REMARK    1  A    between atoms: C_2  and  N_3 
REMARK       I    between atoms: N_3  and  C_4 
REMARK    2  A    between atoms: C_4  and  C_5 
REMARK    3  A    between atoms: C_5  and  C_6 
ROOT
HETATM    1  C   UNL     1     -43.521  56.417 -58.038  1.00  0.00     0.286 C 
HETATM    2  N   UNL     1     -44.759  57.174 -57.562  1.00  0.00    -0.056 N 
HETATM    3  H   UNL     1     -45.588  56.673 -57.905  1.00  0.00     0.278 HD
HETATM    4  H   UNL     1     -44.806  57.079 -56.524  1.00  0.00     0.278 HD
HETATM    5  C   UNL     1     -44.803  58.622 -57.964  1.00  0.00     0.209 C 
HETATM    6  C   UNL     1     -44.701  58.704 -59.506  1.00  0.00     0.115 C 
HETATM    7  N   UNL     1     -43.556  57.948 -60.009  1.00  0.00    -0.353 N 
HETATM    8  C   UNL     1     -43.090  56.777 -59.470  1.00  0.00     0.249 C 
HETATM    9  O   UNL     1     -42.282  56.092 -60.089  1.00  0.00    -0.271 OA
HETATM   10  C   UNL     1     -46.084  59.256 -57.423  1.00  0.00     0.035 C 
HETATM   11  C   UNL     1     -47.345  58.775 -58.136  1.00  0.00     0.002 C 
HETATM   12  C   UNL     1     -47.226  58.925 -59.649  1.00  0.00     0.002 C 
HETATM   13  C   UNL     1     -45.988  58.224 -60.196  1.00  0.00     0.027 C 
HETATM   14  H   UNL     1     -43.235  58.124 -60.960  1.00  0.00     0.163 HD
ENDROOT
BRANCH   1  15
HETATM   15  C   UNL     1     -42.326  56.617 -57.095  1.00  0.00     0.146 C 
BRANCH  15  16
HETATM   16  C   UNL     1     -42.321  55.552 -56.024  1.00  0.00     0.224 C 
HETATM   17  N   UNL     1     -41.073  55.236 -55.542  1.00  0.00    -0.327 N 
HETATM   18  H   UNL     1     -40.264  55.664 -55.986  1.00  0.00     0.169 HD
HETATM   19  O   UNL     1     -43.402  55.085 -55.665  1.00  0.00    -0.273 OA
BRANCH  17  20
HETATM   20  C   UNL     1     -40.766  54.304 -54.525  1.00  0.00     0.034 A 
HETATM   21  C   UNL     1     -40.960  54.719 -53.199  1.00  0.00     0.031 A 
HETATM   22  C   UNL     1     -40.669  53.859 -52.133  1.00  0.00     0.026 A 
HETATM   23  C   UNL     1     -40.196  52.576 -52.389  1.00  0.00     0.034 A 
HETATM   24  C   UNL     1     -40.011  52.148 -53.700  1.00  0.00     0.026 A 
HETATM   25 CL   UNL     1     -39.839  51.517 -51.083  1.00  0.00    -0.084 Cl
HETATM   26  C   UNL     1     -40.294  53.012 -54.765  1.00  0.00     0.031 A 
ENDBRANCH  17  20
ENDBRANCH  15  16
ENDBRANCH   1  15
TORSDOF 3
ENDMDL
MODEL 4
REMARK VINA RESULT:      -7.2      3.237      7.351
REMARK  3 active torsions:
REMARK  status: ('A' for Active; 'I' for Inactive)
REMARK    1  A    between atoms: C_2  and  N_3 
REMARK       I    between atoms: N_3  and  C_4 
REMARK    2  A    between atoms: C_4  and  C_5 
REMARK    3  A    between atoms: C_5  and  C_6 
ROOT
HETATM    1  C   UNL     1     -42.251  54.060 -51.941  1.00  0.00     0.286 C 
HETATM    2  N   UNL     1     -41.737  53.115 -53.025  1.00  0.00    -0.056 N 
HETATM    3  H   UNL     1     -42.138  52.185 -52.851  1.00  0.00     0.278 HD
HETATM    4  H   UNL     1     -42.157  53.417 -53.931  1.00  0.00     0.278 HD
HETATM    5  C   UNL     1     -40.239  53.041 -53.135  1.00  0.00     0.209 C 
HETATM    6  C   UNL     1     -39.669  52.618 -51.759  1.00  0.00     0.115 C 
HETATM    7  N   UNL     1     -40.178  53.466 -50.683  1.00  0.00    -0.353 N 
HETATM    8  C   UNL     1     -41.438  54.002 -50.636  1.00  0.00     0.249 C 
HETATM    9  O   UNL     1     -41.857  54.501 -49.595  1.00  0.00    -0.271 OA
HETATM   10  C   UNL     1     -39.863  52.070 -54.253  1.00  0.00     0.035 C 
HETATM   11  C   UNL     1     -40.147  50.610 -53.906  1.00  0.00     0.002 C 
HETATM   12  C   UNL     1     -39.521  50.218 -52.573  1.00  0.00     0.002 C 
HETATM   13  C   UNL     1     -39.960  51.142 -51.443  1.00  0.00     0.027 C 
HETATM   14  H   UNL     1     -39.697  53.456 -49.785  1.00  0.00     0.163 HD
ENDROOT
BRANCH   1  15
HETATM   15  C   UNL     1     -42.309  55.515 -52.425  1.00  0.00     0.146 C 
BRANCH  15  16
HETATM   16  C   UNL     1     -42.943  55.586 -53.794  1.00  0.00     0.224 C 
HETATM   17  N   UNL     1     -42.244  56.341 -54.706  1.00  0.00    -0.327 N 
HETATM   18  H   UNL     1     -41.426  56.850 -54.382  1.00  0.00     0.169 HD
HETATM   19  O   UNL     1     -43.988  54.963 -53.984  1.00  0.00    -0.273 OA
BRANCH  17  20
HETATM   20  C   UNL     1     -42.580  56.560 -56.062  1.00  0.00     0.034 A 
HETATM   21  C   UNL     1     -42.653  57.892 -56.495  1.00  0.00     0.031 A 
HETATM   22  C   UNL     1     -42.990  58.192 -57.820  1.00  0.00     0.026 A 
HETATM   23  C   UNL     1     -43.243  57.163 -58.720  1.00  0.00     0.034 A 
HETATM   24  C   UNL     1     -43.163  55.837 -58.306  1.00  0.00     0.026 A 
HETATM   25 CL   UNL     1     -43.657  57.528 -60.348  1.00  0.00    -0.084 Cl
HETATM   26  C   UNL     1     -42.833  55.537 -56.978  1.00  0.00     0.031 A 
ENDBRANCH  17  20
ENDBRANCH  15  16
ENDBRANCH   1  15
TORSDOF 3
ENDMDL
MODEL 5
REMARK VINA RESULT:      -7.1      2.114      2.545
REMARK  3 active torsions:
REMARK  status: ('A' for Active; 'I' for Inactive)
REMARK    1  A    between atoms: C_2  and  N_3 
REMARK       I    between atoms: N_3  and  C_4 
REMARK    2  A    between atoms: C_4  and  C_5 
REMARK    3  A    between atoms: C_5  and  C_6 
ROOT
HETATM    1  C   UNL     1     -42.584  56.595 -56.043  1.00  0.00     0.286 C 
HETATM    2  N   UNL     1     -42.078  56.677 -57.481  1.00  0.00    -0.056 N 
HETATM    3  H   UNL     1     -41.686  57.616 -57.627  1.00  0.00     0.278 HD
HETATM    4  H   UNL     1     -41.259  56.036 -57.563  1.00  0.00     0.278 HD
HETATM    5  C   UNL     1     -43.109  56.358 -58.529  1.00  0.00     0.209 C 
HETATM    6  C   UNL     1     -44.309  57.317 -58.341  1.00  0.00     0.115 C 
HETATM    7  N   UNL     1     -44.792  57.309 -56.962  1.00  0.00    -0.353 N 
HETATM    8  C   UNL     1     -44.000  57.167 -55.853  1.00  0.00     0.249 C 
HETATM    9  O   UNL     1     -44.452  57.406 -54.737  1.00  0.00    -0.271 OA
HETATM   10  C   UNL     1     -42.472  56.473 -59.913  1.00  0.00     0.035 C 
HETATM   11  C   UNL     1     -42.162  57.911 -60.318  1.00  0.00     0.002 C 
HETATM   12  C   UNL     1     -43.384  58.811 -60.174  1.00  0.00     0.002 C 
HETATM   13  C   UNL     1     -43.970  58.755 -58.767  1.00  0.00     0.027 C 
HETATM   14  H   UNL     1     -45.715  57.695 -56.766  1.00  0.00     0.163 HD
ENDROOT
BRANCH   1  15
HETATM   15  C   UNL     1     -42.552  55.160 -55.501  1.00  0.00     0.146 C 
BRANCH  15  16
HETATM   16  C   UNL     1     -41.690  55.088 -54.263  1.00  0.00     0.224 C 
HETATM   17  N   UNL     1     -42.323  54.568 -53.158  1.00  0.00    -0.327 N 
HETATM   18  H   UNL     1     -43.314  54.356 -53.228  1.00  0.00     0.169 HD
HETATM   19  O   UNL     1     -40.521  55.467 -54.345  1.00  0.00    -0.273 OA
BRANCH  17  20
HETATM   20  C   UNL     1     -41.760  54.355 -51.879  1.00  0.00     0.034 A 
HETATM   21  C   UNL     1     -42.103  55.266 -50.870  1.00  0.00     0.031 A 
HETATM   22  C   UNL     1     -41.579  55.132 -49.580  1.00  0.00     0.026 A 
HETATM   23  C   UNL     1     -40.720  54.077 -49.288  1.00  0.00     0.034 A 
HETATM   24  C   UNL     1     -40.381  53.159 -50.277  1.00  0.00     0.026 A 
HETATM   25 CL   UNL     1     -40.076  53.908 -47.704  1.00  0.00    -0.084 Cl
HETATM   26  C   UNL     1     -40.899  53.299 -51.570  1.00  0.00     0.031 A 
ENDBRANCH  17  20
ENDBRANCH  15  16
ENDBRANCH   1  15
TORSDOF 3
ENDMDL
MODEL 6
REMARK VINA RESULT:      -7.0      4.568      8.223
REMARK  3 active torsions:
REMARK  status: ('A' for Active; 'I' for Inactive)
REMARK    1  A    between atoms: C_2  and  N_3 
REMARK       I    between atoms: N_3  and  C_4 
REMARK    2  A    between atoms: C_4  and  C_5 
REMARK    3  A    between atoms: C_5  and  C_6 
ROOT
HETATM    1  C   UNL     1     -43.108  55.943 -56.253  1.00  0.00     0.286 C 
HETATM    2  N   UNL     1     -41.962  54.944 -56.101  1.00  0.00    -0.056 N 
HETATM    3  H   UNL     1     -42.371  54.011 -55.966  1.00  0.00     0.278 HD
HETATM    4  H   UNL     1     -41.472  54.886 -57.021  1.00  0.00     0.278 HD
HETATM    5  C   UNL     1     -40.989  55.267 -55.002  1.00  0.00     0.209 C 
HETATM    6  C   UNL     1     -41.773  55.371 -53.671  1.00  0.00     0.115 C 
HETATM    7  N   UNL     1     -42.911  56.279 -53.787  1.00  0.00    -0.353 N 
HETATM    8  C   UNL     1     -43.679  56.435 -54.912  1.00  0.00     0.249 C 
HETATM    9  O   UNL     1     -44.747  57.036 -54.850  1.00  0.00    -0.271 OA
HETATM   10  C   UNL     1     -39.899  54.197 -54.963  1.00  0.00     0.035 C 
HETATM   11  C   UNL     1     -40.395  52.847 -54.451  1.00  0.00     0.002 C 
HETATM   12  C   UNL     1     -41.110  52.984 -53.111  1.00  0.00     0.002 C 
HETATM   13  C   UNL     1     -42.249  53.997 -53.174  1.00  0.00     0.027 C 
HETATM   14  H   UNL     1     -43.349  56.624 -52.934  1.00  0.00     0.163 HD
ENDROOT
BRANCH   1  15
HETATM   15  C   UNL     1     -42.704  57.159 -57.097  1.00  0.00     0.146 C 
BRANCH  15  16
HETATM   16  C   UNL     1     -43.486  57.181 -58.389  1.00  0.00     0.224 C 
HETATM   17  N   UNL     1     -44.846  57.300 -58.229  1.00  0.00    -0.327 N 
HETATM   18  H   UNL     1     -45.222  57.279 -57.285  1.00  0.00     0.169 HD
HETATM   19  O   UNL     1     -42.861  57.116 -59.449  1.00  0.00    -0.273 OA
BRANCH  17  20
HETATM   20  C   UNL     1     -45.819  57.376 -59.252  1.00  0.00     0.034 A 
HETATM   21  C   UNL     1     -46.145  56.184 -59.914  1.00  0.00     0.031 A 
HETATM   22  C   UNL     1     -47.090  56.177 -60.947  1.00  0.00     0.026 A 
HETATM   23  C   UNL     1     -47.722  57.361 -61.314  1.00  0.00     0.034 A 
HETATM   24  C   UNL     1     -47.415  58.549 -60.657  1.00  0.00     0.026 A 
HETATM   25 CL   UNL     1     -48.883  57.356 -62.580  1.00  0.00    -0.084 Cl
HETATM   26  C   UNL     1     -46.464  58.556 -59.630  1.00  0.00     0.031 A 
ENDBRANCH  17  20
ENDBRANCH  15  16
ENDBRANCH   1  15
TORSDOF 3
ENDMDL
MODEL 7
REMARK VINA RESULT:      -7.0      2.624      3.556
REMARK  3 active torsions:
REMARK  status: ('A' for Active; 'I' for Inactive)
REMARK    1  A    between atoms: C_2  and  N_3 
REMARK       I    between atoms: N_3  and  C_4 
REMARK    2  A    between atoms: C_4  and  C_5 
REMARK    3  A    between atoms: C_5  and  C_6 
ROOT
HETATM    1  C   UNL     1     -42.805  57.573 -51.527  1.00  0.00     0.286 C 
HETATM    2  N   UNL     1     -42.145  57.563 -52.904  1.00  0.00    -0.056 N 
HETATM    3  H   UNL     1     -42.196  58.516 -53.287  1.00  0.00     0.278 HD
HETATM    4  H   UNL     1     -41.126  57.391 -52.763  1.00  0.00     0.278 HD
HETATM    5  C   UNL     1     -42.723  56.566 -53.870  1.00  0.00     0.209 C 
HETATM    6  C   UNL     1     -44.237  56.850 -54.018  1.00  0.00     0.115 C 
HETATM    7  N   UNL     1     -44.900  56.920 -52.717  1.00  0.00    -0.353 N 
HETATM    8  C   UNL     1     -44.335  57.425 -51.575  1.00  0.00     0.249 C 
HETATM    9  O   UNL     1     -45.035  57.661 -50.594  1.00  0.00    -0.271 OA
HETATM   10  C   UNL     1     -41.972  56.658 -55.198  1.00  0.00     0.035 C 
HETATM   11  C   UNL     1     -42.272  57.939 -55.973  1.00  0.00     0.002 C 
HETATM   12  C   UNL     1     -43.772  58.152 -56.147  1.00  0.00     0.002 C 
HETATM   13  C   UNL     1     -44.508  58.138 -54.811  1.00  0.00     0.027 C 
HETATM   14  H   UNL     1     -45.916  56.850 -52.683  1.00  0.00     0.163 HD
ENDROOT
BRANCH   1  15
HETATM   15  C   UNL     1     -42.230  56.489 -50.604  1.00  0.00     0.146 C 
BRANCH  15  16
HETATM   16  C   UNL     1     -42.152  55.169 -51.334  1.00  0.00     0.224 C 
HETATM   17  N   UNL     1     -40.874  54.758 -51.632  1.00  0.00    -0.327 N 
HETATM   18  H   UNL     1     -40.106  55.390 -51.423  1.00  0.00     0.169 HD
HETATM   19  O   UNL     1     -43.204  54.576 -51.576  1.00  0.00    -0.273 OA
BRANCH  17  20
HETATM   20  C   UNL     1     -40.497  53.559 -52.278  1.00  0.00     0.034 A 
HETATM   21  C   UNL     1     -40.749  53.469 -53.655  1.00  0.00     0.031 A 
HETATM   22  C   UNL     1     -40.416  52.310 -54.366  1.00  0.00     0.026 A 
HETATM   23  C   UNL     1     -39.817  51.242 -53.706  1.00  0.00     0.034 A 
HETATM   24  C   UNL     1     -39.551  51.323 -52.343  1.00  0.00     0.026 A 
HETATM   25 CL   UNL     1     -39.405  49.818 -54.577  1.00  0.00    -0.084 Cl
HETATM   26  C   UNL     1     -39.892  52.479 -51.631  1.00  0.00     0.031 A 
ENDBRANCH  17  20
ENDBRANCH  15  16
ENDBRANCH   1  15
TORSDOF 3
ENDMDL
MODEL 8
REMARK VINA RESULT:      -7.0      1.093      1.610
REMARK  3 active torsions:
REMARK  status: ('A' for Active; 'I' for Inactive)
REMARK    1  A    between atoms: C_2  and  N_3 
REMARK       I    between atoms: N_3  and  C_4 
REMARK    2  A    between atoms: C_4  and  C_5 
REMARK    3  A    between atoms: C_5  and  C_6 
ROOT
HETATM    1  C   UNL     1     -41.746  57.751 -54.710  1.00  0.00     0.286 C 
HETATM    2  N   UNL     1     -42.281  57.243 -56.048  1.00  0.00    -0.056 N 
HETATM    3  H   UNL     1     -41.504  57.240 -56.720  1.00  0.00     0.278 HD
HETATM    4  H   UNL     1     -42.528  56.237 -55.926  1.00  0.00     0.278 HD
HETATM    5  C   UNL     1     -43.454  58.014 -56.588  1.00  0.00     0.209 C 
HETATM    6  C   UNL     1     -43.043  59.500 -56.719  1.00  0.00     0.115 C 
HETATM    7  N   UNL     1     -42.475  60.013 -55.474  1.00  0.00    -0.353 N 
HETATM    8  C   UNL     1     -41.706  59.285 -54.604  1.00  0.00     0.249 C 
HETATM    9  O   UNL     1     -41.081  59.851 -53.712  1.00  0.00    -0.271 OA
HETATM   10  C   UNL     1     -43.889  57.402 -57.919  1.00  0.00     0.035 C 
HETATM   11  C   UNL     1     -42.898  57.654 -59.052  1.00  0.00     0.002 C 
HETATM   12  C   UNL     1     -42.563  59.136 -59.186  1.00  0.00     0.002 C 
HETATM   13  C   UNL     1     -42.055  59.725 -57.875  1.00  0.00     0.027 C 
HETATM   14  H   UNL     1     -42.400  61.022 -55.351  1.00  0.00     0.163 HD
ENDROOT
BRANCH   1  15
HETATM   15  C   UNL     1     -42.540  57.192 -53.522  1.00  0.00     0.146 C 
BRANCH  15  16
HETATM   16  C   UNL     1     -42.378  55.692 -53.444  1.00  0.00     0.224 C 
HETATM   17  N   UNL     1     -41.076  55.266 -53.321  1.00  0.00    -0.327 N 
HETATM   18  H   UNL     1     -40.336  55.962 -53.375  1.00  0.00     0.169 HD
HETATM   19  O   UNL     1     -43.392  54.995 -53.474  1.00  0.00    -0.273 OA
BRANCH  17  20
HETATM   20  C   UNL     1     -40.627  53.932 -53.198  1.00  0.00     0.034 A 
HETATM   21  C   UNL     1     -40.560  53.169 -54.373  1.00  0.00     0.031 A 
HETATM   22  C   UNL     1     -40.137  51.835 -54.334  1.00  0.00     0.026 A 
HETATM   23  C   UNL     1     -39.766  51.263 -53.122  1.00  0.00     0.034 A 
HETATM   24  C   UNL     1     -39.816  52.012 -51.951  1.00  0.00     0.026 A 
HETATM   25 CL   UNL     1     -39.244  49.626 -53.071  1.00  0.00    -0.084 Cl
HETATM   26  C   UNL     1     -40.248  53.344 -51.989  1.00  0.00     0.031 A 
ENDBRANCH  17  20
ENDBRANCH  15  16
ENDBRANCH   1  15
TORSDOF 3
ENDMDL
MODEL 9
REMARK VINA RESULT:      -6.8     14.940     17.391
REMARK  3 active torsions:
REMARK  status: ('A' for Active; 'I' for Inactive)
REMARK    1  A    between atoms: C_2  and  N_3 
REMARK       I    between atoms: N_3  and  C_4 
REMARK    2  A    between atoms: C_4  and  C_5 
REMARK    3  A    between atoms: C_5  and  C_6 
ROOT
HETATM    1  C   UNL     1     -36.097  41.149 -51.461  1.00  0.00     0.286 C 
HETATM    2  N   UNL     1     -35.300  40.049 -50.763  1.00  0.00    -0.056 N 
HETATM    3  H   UNL     1     -34.735  40.487 -50.025  1.00  0.00     0.278 HD
HETATM    4  H   UNL     1     -35.980  39.446 -50.250  1.00  0.00     0.278 HD
HETATM    5  C   UNL     1     -34.440  39.221 -51.677  1.00  0.00     0.209 C 
HETATM    6  C   UNL     1     -33.475  40.168 -52.430  1.00  0.00     0.115 C 
HETATM    7  N   UNL     1     -34.193  41.268 -53.071  1.00  0.00    -0.353 N 
HETATM    8  C   UNL     1     -35.308  41.881 -52.560  1.00  0.00     0.249 C 
HETATM    9  O   UNL     1     -35.704  42.939 -53.040  1.00  0.00    -0.271 OA
HETATM   10  C   UNL     1     -33.706  38.162 -50.855  1.00  0.00     0.035 C 
HETATM   11  C   UNL     1     -32.612  38.742 -49.962  1.00  0.00     0.002 C 
HETATM   12  C   UNL     1     -31.650  39.622 -50.753  1.00  0.00     0.002 C 
HETATM   13  C   UNL     1     -32.379  40.726 -51.510  1.00  0.00     0.027 C 
HETATM   14  H   UNL     1     -33.717  41.807 -53.793  1.00  0.00     0.163 HD
ENDROOT
BRANCH   1  15
HETATM   15  C   UNL     1     -37.408  40.621 -52.059  1.00  0.00     0.146 C 
BRANCH  15  16
HETATM   16  C   UNL     1     -37.228  40.320 -53.528  1.00  0.00     0.224 C 
HETATM   17  N   UNL     1     -37.693  41.301 -54.371  1.00  0.00    -0.327 N 
HETATM   18  H   UNL     1     -38.185  42.092 -53.963  1.00  0.00     0.169 HD
HETATM   19  O   UNL     1     -36.676  39.264 -53.842  1.00  0.00    -0.273 OA
BRANCH  17  20
HETATM   20  C   UNL     1     -37.633  41.306 -55.783  1.00  0.00     0.034 A 
HETATM   21  C   UNL     1     -36.649  42.109 -56.378  1.00  0.00     0.031 A 
HETATM   22  C   UNL     1     -36.532  42.178 -57.771  1.00  0.00     0.026 A 
HETATM   23  C   UNL     1     -37.389  41.434 -58.575  1.00  0.00     0.034 A 
HETATM   24  C   UNL     1     -38.361  40.623 -57.997  1.00  0.00     0.026 A 
HETATM   25 CL   UNL     1     -37.246  41.514 -60.286  1.00  0.00    -0.084 Cl
HETATM   26  C   UNL     1     -38.484  40.562 -56.604  1.00  0.00     0.031 A 
ENDBRANCH  17  20
ENDBRANCH  15  16
ENDBRANCH   1  15
TORSDOF 3
ENDMDL
MODEL 10
REMARK VINA RESULT:      -6.8     15.151     17.809
REMARK  3 active torsions:
REMARK  status: ('A' for Active; 'I' for Inactive)
REMARK    1  A    between atoms: C_2  and  N_3 
REMARK       I    between atoms: N_3  and  C_4 
REMARK    2  A    between atoms: C_4  and  C_5 
REMARK    3  A    between atoms: C_5  and  C_6 
ROOT
HETATM    1  C   UNL     1     -35.164  40.918 -52.907  1.00  0.00     0.286 C 
HETATM    2  N   UNL     1     -34.568  39.776 -53.727  1.00  0.00    -0.056 N 
HETATM    3  H   UNL     1     -34.653  38.912 -53.176  1.00  0.00     0.278 HD
HETATM    4  H   UNL     1     -35.189  39.624 -54.551  1.00  0.00     0.278 HD
HETATM    5  C   UNL     1     -33.147  39.994 -54.168  1.00  0.00     0.209 C 
HETATM    6  C   UNL     1     -32.279  40.243 -52.911  1.00  0.00     0.115 C 
HETATM    7  N   UNL     1     -32.843  41.295 -52.068  1.00  0.00    -0.353 N 
HETATM    8  C   UNL     1     -34.183  41.523 -51.888  1.00  0.00     0.249 C 
HETATM    9  O   UNL     1     -34.566  42.267 -50.990  1.00  0.00    -0.271 OA
HETATM   10  C   UNL     1     -32.680  38.786 -54.978  1.00  0.00     0.035 C 
HETATM   11  C   UNL     1     -32.474  37.533 -54.130  1.00  0.00     0.002 C 
HETATM   12  C   UNL     1     -31.568  37.806 -52.935  1.00  0.00     0.002 C 
HETATM   13  C   UNL     1     -32.080  38.963 -52.084  1.00  0.00     0.027 C 
HETATM   14  H   UNL     1     -32.250  41.723 -51.358  1.00  0.00     0.163 HD
ENDROOT
BRANCH   1  15
HETATM   15  C   UNL     1     -35.713  42.042 -53.796  1.00  0.00     0.146 C 
BRANCH  15  16
HETATM   16  C   UNL     1     -36.434  41.460 -54.989  1.00  0.00     0.224 C 
HETATM   17  N   UNL     1     -35.850  41.743 -56.201  1.00  0.00    -0.327 N 
HETATM   18  H   UNL     1     -35.052  42.373 -56.214  1.00  0.00     0.169 HD
HETATM   19  O   UNL     1     -37.441  40.781 -54.785  1.00  0.00    -0.273 OA
BRANCH  17  20
HETATM   20  C   UNL     1     -36.284  41.310 -57.474  1.00  0.00     0.034 A 
HETATM   21  C   UNL     1     -36.011  39.980 -57.825  1.00  0.00     0.031 A 
HETATM   22  C   UNL     1     -36.397  39.478 -59.073  1.00  0.00     0.026 A 
HETATM   23  C   UNL     1     -37.070  40.300 -59.971  1.00  0.00     0.034 A 
HETATM   24  C   UNL     1     -37.358  41.618 -59.631  1.00  0.00     0.026 A 
HETATM   25 CL   UNL     1     -37.548  39.686 -61.503  1.00  0.00    -0.084 Cl
HETATM   26  C   UNL     1     -36.963  42.122 -58.386  1.00  0.00     0.031 A 
ENDBRANCH  17  20
ENDBRANCH  15  16
ENDBRANCH   1  15
TORSDOF 3
ENDMDL
