MODEL 1
REMARK VINA RESULT:      -9.5      0.000      0.000
REMARK  5 active torsions:
REMARK  status: ('A' for Active; 'I' for Inactive)
REMARK    1  A    between atoms: C_2  and  C_3 
REMARK    2  A    between atoms: C_3  and  C_4 
REMARK       I    between atoms: C_4  and  N_5 
REMARK    3  A    between atoms: N_5  and  C_6 
REMARK    4  A    between atoms: C_13  and  C_14 
REMARK       I    between atoms: C_14  and  N_15 
REMARK    5  A    between atoms: C_22  and  C_23 
ROOT
HETATM    1  C   UNL     1     -42.530  56.364 -56.762  1.00  0.00     0.035 A 
HETATM    2  C   UNL     1     -43.092  55.725 -57.877  1.00  0.00     0.046 A 
HETATM    3  C   UNL     1     -44.075  56.391 -58.640  1.00  0.00     0.030 A 
HETATM    4  C   UNL     1     -44.431  57.687 -58.288  1.00  0.00     0.063 A 
HETATM    5  N   UNL     1     -45.390  58.054 -59.191  1.00  0.00    -0.277 N 
HETATM    6  H   UNL     1     -45.880  58.941 -59.241  1.00  0.00     0.189 HD
HETATM    7  N   UNL     1     -45.713  57.101 -60.081  1.00  0.00    -0.168 NA
HETATM    8  C   UNL     1     -44.908  56.064 -59.751  1.00  0.00     0.156 A 
HETATM    9  C   UNL     1     -43.866  58.366 -57.206  1.00  0.00     0.034 A 
HETATM   10  C   UNL     1     -42.919  57.670 -56.441  1.00  0.00     0.032 A 
ENDROOT
BRANCH   1  11
HETATM   11  N   UNL     1     -41.661  55.702 -55.869  1.00  0.00    -0.327 N 
HETATM   12  C   UNL     1     -42.027  55.086 -54.684  1.00  0.00     0.226 C 
HETATM   13  O   UNL     1     -43.134  54.619 -54.434  1.00  0.00    -0.273 OA
HETATM   14  H   UNL     1     -40.677  55.697 -56.106  1.00  0.00     0.169 HD
BRANCH  12  15
HETATM   15  C   UNL     1     -40.914  55.080 -53.651  1.00  0.00     0.141 C 
BRANCH  15  16
HETATM   16  C   UNL     1     -40.431  53.731 -53.180  1.00  0.00    -0.049 A 
HETATM   17  C   UNL     1     -40.321  53.492 -51.802  1.00  0.00     0.008 A 
HETATM   18  C   UNL     1     -40.009  52.220 -51.318  1.00  0.00     0.017 A 
HETATM   19  C   UNL     1     -39.800  51.154 -52.201  1.00  0.00     0.047 A 
HETATM   20  C   UNL     1     -39.909  51.390 -53.580  1.00  0.00     0.017 A 
HETATM   21  C   UNL     1     -40.224  52.665 -54.064  1.00  0.00     0.008 A 
BRANCH  19  22
HETATM   22  C   UNL     1     -39.537  49.767 -51.670  1.00  0.00     0.417 C 
HETATM   23  F   UNL     1     -39.294  48.850 -52.648  1.00  0.00    -0.166 F 
HETATM   24  F   UNL     1     -38.461  49.713 -50.836  1.00  0.00    -0.166 F 
HETATM   25  F   UNL     1     -40.588  49.280 -50.953  1.00  0.00    -0.166 F 
ENDBRANCH  19  22
ENDBRANCH  15  16
ENDBRANCH  12  15
ENDBRANCH   1  11
BRANCH   8  26
HETATM   26  C   UNL     1     -44.972  54.786 -60.474  1.00  0.00     0.270 C 
HETATM   27  N   UNL     1     -45.072  53.688 -59.663  1.00  0.00    -0.365 N 
HETATM   28  H   UNL     1     -45.072  53.825 -58.659  1.00  0.00     0.159 HD
HETATM   29  H   UNL     1     -45.086  52.767 -60.072  1.00  0.00     0.159 HD
HETATM   30  O   UNL     1     -44.922  54.669 -61.694  1.00  0.00    -0.266 OA
ENDBRANCH   8  26
TORSDOF 5
ENDMDL
MODEL 2
REMARK VINA RESULT:      -8.8      3.463      5.116
REMARK  5 active torsions:
REMARK  status: ('A' for Active; 'I' for Inactive)
REMARK    1  A    between atoms: C_2  and  C_3 
REMARK    2  A    between atoms: C_3  and  C_4 
REMARK       I    between atoms: C_4  and  N_5 
REMARK    3  A    between atoms: N_5  and  C_6 
REMARK    4  A    between atoms: C_13  and  C_14 
REMARK       I    between atoms: C_14  and  N_15 
REMARK    5  A    between atoms: C_22  and  C_23 
ROOT
HETATM    1  C   UNL     1     -43.578  56.555 -54.179  1.00  0.00     0.035 A 
HETATM    2  C   UNL     1     -44.031  57.198 -53.018  1.00  0.00     0.046 A 
HETATM    3  C   UNL     1     -44.771  58.395 -53.129  1.00  0.00     0.030 A 
HETATM    4  C   UNL     1     -45.069  58.883 -54.395  1.00  0.00     0.063 A 
HETATM    5  N   UNL     1     -45.776  60.033 -54.180  1.00  0.00    -0.277 N 
HETATM    6  H   UNL     1     -46.161  60.658 -54.880  1.00  0.00     0.189 HD
HETATM    7  N   UNL     1     -45.937  60.356 -52.885  1.00  0.00    -0.168 NA
HETATM    8  C   UNL     1     -45.318  59.351 -52.222  1.00  0.00     0.156 A 
HETATM    9  C   UNL     1     -44.665  58.247 -55.572  1.00  0.00     0.034 A 
HETATM   10  C   UNL     1     -43.899  57.081 -55.435  1.00  0.00     0.032 A 
ENDROOT
BRANCH   1  11
HETATM   11  N   UNL     1     -42.705  55.446 -54.137  1.00  0.00    -0.327 N 
HETATM   12  C   UNL     1     -41.327  55.490 -54.262  1.00  0.00     0.226 C 
HETATM   13  O   UNL     1     -40.615  56.448 -53.978  1.00  0.00    -0.273 OA
HETATM   14  H   UNL     1     -43.130  54.533 -54.030  1.00  0.00     0.169 HD
BRANCH  12  15
HETATM   15  C   UNL     1     -40.745  54.218 -54.853  1.00  0.00     0.141 C 
BRANCH  15  16
HETATM   16  C   UNL     1     -40.339  53.141 -53.878  1.00  0.00    -0.049 A 
HETATM   17  C   UNL     1     -40.357  53.427 -52.504  1.00  0.00     0.008 A 
HETATM   18  C   UNL     1     -40.119  52.425 -51.560  1.00  0.00     0.017 A 
HETATM   19  C   UNL     1     -39.860  51.111 -51.968  1.00  0.00     0.047 A 
HETATM   20  C   UNL     1     -39.841  50.822 -53.340  1.00  0.00     0.017 A 
HETATM   21  C   UNL     1     -40.082  51.826 -54.285  1.00  0.00     0.008 A 
BRANCH  19  22
HETATM   22  C   UNL     1     -39.679  50.019 -50.943  1.00  0.00     0.417 C 
HETATM   23  F   UNL     1     -38.377  49.669 -50.749  1.00  0.00    -0.166 F 
HETATM   24  F   UNL     1     -40.158  50.360 -49.713  1.00  0.00    -0.166 F 
HETATM   25  F   UNL     1     -40.328  48.872 -51.288  1.00  0.00    -0.166 F 
ENDBRANCH  19  22
ENDBRANCH  15  16
ENDBRANCH  12  15
ENDBRANCH   1  11
BRANCH   8  26
HETATM   26  C   UNL     1     -45.235  59.340 -50.755  1.00  0.00     0.270 C 
HETATM   27  N   UNL     1     -44.089  59.895 -50.255  1.00  0.00    -0.365 N 
HETATM   28  H   UNL     1     -43.393  60.241 -50.905  1.00  0.00     0.159 HD
HETATM   29  H   UNL     1     -43.931  59.899 -49.259  1.00  0.00     0.159 HD
HETATM   30  O   UNL     1     -46.087  58.867 -50.010  1.00  0.00    -0.266 OA
ENDBRANCH   8  26
TORSDOF 5
ENDMDL
MODEL 3
REMARK VINA RESULT:      -8.6      3.068      4.095
REMARK  5 active torsions:
REMARK  status: ('A' for Active; 'I' for Inactive)
REMARK    1  A    between atoms: C_2  and  C_3 
REMARK    2  A    between atoms: C_3  and  C_4 
REMARK       I    between atoms: C_4  and  N_5 
REMARK    3  A    between atoms: N_5  and  C_6 
REMARK    4  A    between atoms: C_13  and  C_14 
REMARK       I    between atoms: C_14  and  N_15 
REMARK    5  A    between atoms: C_22  and  C_23 
ROOT
HETATM    1  C   UNL     1     -43.387  57.167 -51.678  1.00  0.00     0.035 A 
HETATM    2  C   UNL     1     -43.156  56.971 -53.048  1.00  0.00     0.046 A 
HETATM    3  C   UNL     1     -43.931  57.675 -53.993  1.00  0.00     0.030 A 
HETATM    4  C   UNL     1     -44.881  58.582 -53.538  1.00  0.00     0.063 A 
HETATM    5  N   UNL     1     -45.462  59.090 -54.667  1.00  0.00    -0.277 N 
HETATM    6  H   UNL     1     -46.200  59.783 -54.719  1.00  0.00     0.189 HD
HETATM    7  N   UNL     1     -44.997  58.572 -55.816  1.00  0.00    -0.168 NA
HETATM    8  C   UNL     1     -44.050  57.693 -55.415  1.00  0.00     0.156 A 
HETATM    9  C   UNL     1     -45.112  58.828 -52.183  1.00  0.00     0.034 A 
HETATM   10  C   UNL     1     -44.356  58.088 -51.263  1.00  0.00     0.032 A 
ENDROOT
BRANCH   1  11
HETATM   11  N   UNL     1     -42.759  56.385 -50.685  1.00  0.00    -0.327 N 
HETATM   12  C   UNL     1     -41.406  56.375 -50.393  1.00  0.00     0.226 C 
HETATM   13  O   UNL     1     -40.626  57.302 -50.588  1.00  0.00    -0.273 OA
HETATM   14  H   UNL     1     -43.351  55.757 -50.154  1.00  0.00     0.169 HD
BRANCH  12  15
HETATM   15  C   UNL     1     -40.931  55.045 -49.833  1.00  0.00     0.141 C 
BRANCH  15  16
HETATM   16  C   UNL     1     -40.547  53.985 -50.835  1.00  0.00    -0.049 A 
HETATM   17  C   UNL     1     -40.126  52.730 -50.369  1.00  0.00     0.008 A 
HETATM   18  C   UNL     1     -39.890  51.678 -51.256  1.00  0.00     0.017 A 
HETATM   19  C   UNL     1     -40.071  51.855 -52.634  1.00  0.00     0.047 A 
HETATM   20  C   UNL     1     -40.491  53.109 -53.102  1.00  0.00     0.017 A 
HETATM   21  C   UNL     1     -40.730  54.162 -52.212  1.00  0.00     0.008 A 
BRANCH  19  22
HETATM   22  C   UNL     1     -39.887  50.695 -53.579  1.00  0.00     0.417 C 
HETATM   23  F   UNL     1     -38.749  50.778 -54.323  1.00  0.00    -0.166 F 
HETATM   24  F   UNL     1     -39.823  49.492 -52.940  1.00  0.00    -0.166 F 
HETATM   25  F   UNL     1     -40.911  50.586 -54.471  1.00  0.00    -0.166 F 
ENDBRANCH  19  22
ENDBRANCH  15  16
ENDBRANCH  12  15
ENDBRANCH   1  11
BRANCH   8  26
HETATM   26  C   UNL     1     -43.308  56.873 -56.383  1.00  0.00     0.270 C 
HETATM   27  N   UNL     1     -43.582  55.534 -56.310  1.00  0.00    -0.365 N 
HETATM   28  H   UNL     1     -44.234  55.210 -55.606  1.00  0.00     0.159 HD
HETATM   29  H   UNL     1     -43.091  54.893 -56.914  1.00  0.00     0.159 HD
HETATM   30  O   UNL     1     -42.491  57.309 -57.188  1.00  0.00    -0.266 OA
ENDBRANCH   8  26
TORSDOF 5
ENDMDL
MODEL 4
REMARK VINA RESULT:      -8.5      1.707      2.186
REMARK  5 active torsions:
REMARK  status: ('A' for Active; 'I' for Inactive)
REMARK    1  A    between atoms: C_2  and  C_3 
REMARK    2  A    between atoms: C_3  and  C_4 
REMARK       I    between atoms: C_4  and  N_5 
REMARK    3  A    between atoms: N_5  and  C_6 
REMARK    4  A    between atoms: C_13  and  C_14 
REMARK       I    between atoms: C_14  and  N_15 
REMARK    5  A    between atoms: C_22  and  C_23 
ROOT
HETATM    1  C   UNL     1     -42.853  56.696 -56.256  1.00  0.00     0.035 A 
HETATM    2  C   UNL     1     -43.361  57.094 -57.501  1.00  0.00     0.046 A 
HETATM    3  C   UNL     1     -44.573  57.813 -57.561  1.00  0.00     0.030 A 
HETATM    4  C   UNL     1     -45.212  58.148 -56.374  1.00  0.00     0.063 A 
HETATM    5  N   UNL     1     -46.340  58.823 -56.750  1.00  0.00    -0.277 N 
HETATM    6  H   UNL     1     -47.049  59.221 -56.145  1.00  0.00     0.189 HD
HETATM    7  N   UNL     1     -46.508  58.931 -58.079  1.00  0.00    -0.168 NA
HETATM    8  C   UNL     1     -45.423  58.309 -58.595  1.00  0.00     0.156 A 
HETATM    9  C   UNL     1     -44.715  57.799 -55.116  1.00  0.00     0.034 A 
HETATM   10  C   UNL     1     -43.530  57.051 -55.084  1.00  0.00     0.032 A 
ENDROOT
BRANCH   1  11
HETATM   11  N   UNL     1     -41.733  55.844 -56.133  1.00  0.00    -0.327 N 
HETATM   12  C   UNL     1     -41.715  54.611 -55.503  1.00  0.00     0.226 C 
HETATM   13  O   UNL     1     -42.680  53.867 -55.361  1.00  0.00    -0.273 OA
HETATM   14  H   UNL     1     -40.860  56.177 -56.521  1.00  0.00     0.169 HD
BRANCH  12  15
HETATM   15  C   UNL     1     -40.353  54.259 -54.930  1.00  0.00     0.141 C 
BRANCH  15  16
HETATM   16  C   UNL     1     -40.317  53.179 -53.879  1.00  0.00    -0.049 A 
HETATM   17  C   UNL     1     -40.065  51.856 -54.273  1.00  0.00     0.008 A 
HETATM   18  C   UNL     1     -39.890  50.846 -53.324  1.00  0.00     0.017 A 
HETATM   19  C   UNL     1     -39.962  51.135 -51.956  1.00  0.00     0.047 A 
HETATM   20  C   UNL     1     -40.216  52.457 -51.560  1.00  0.00     0.017 A 
HETATM   21  C   UNL     1     -40.388  53.468 -52.511  1.00  0.00     0.008 A 
BRANCH  19  22
HETATM   22  C   UNL     1     -39.699  50.056 -50.936  1.00  0.00     0.417 C 
HETATM   23  F   UNL     1     -40.312  48.875 -51.227  1.00  0.00    -0.166 F 
HETATM   24  F   UNL     1     -38.374  49.763 -50.803  1.00  0.00    -0.166 F 
HETATM   25  F   UNL     1     -40.129  50.404 -49.691  1.00  0.00    -0.166 F 
ENDBRANCH  19  22
ENDBRANCH  15  16
ENDBRANCH  12  15
ENDBRANCH   1  11
BRANCH   8  26
HETATM   26  C   UNL     1     -45.236  58.173 -60.046  1.00  0.00     0.270 C 
HETATM   27  N   UNL     1     -46.400  58.015 -60.748  1.00  0.00    -0.365 N 
HETATM   28  H   UNL     1     -47.274  57.980 -60.237  1.00  0.00     0.159 HD
HETATM   29  H   UNL     1     -46.365  57.878 -61.746  1.00  0.00     0.159 HD
HETATM   30  O   UNL     1     -44.149  58.175 -60.615  1.00  0.00    -0.266 OA
ENDBRANCH   8  26
TORSDOF 5
ENDMDL
MODEL 5
REMARK VINA RESULT:      -8.3      1.833      2.993
REMARK  5 active torsions:
REMARK  status: ('A' for Active; 'I' for Inactive)
REMARK    1  A    between atoms: C_2  and  C_3 
REMARK    2  A    between atoms: C_3  and  C_4 
REMARK       I    between atoms: C_4  and  N_5 
REMARK    3  A    between atoms: N_5  and  C_6 
REMARK    4  A    between atoms: C_13  and  C_14 
REMARK       I    between atoms: C_14  and  N_15 
REMARK    5  A    between atoms: C_22  and  C_23 
ROOT
HETATM    1  C   UNL     1     -42.949  55.927 -57.253  1.00  0.00     0.035 A 
HETATM    2  C   UNL     1     -43.585  57.095 -56.805  1.00  0.00     0.046 A 
HETATM    3  C   UNL     1     -44.542  57.725 -57.628  1.00  0.00     0.030 A 
HETATM    4  C   UNL     1     -44.862  57.144 -58.849  1.00  0.00     0.063 A 
HETATM    5  N   UNL     1     -45.796  57.972 -59.408  1.00  0.00    -0.277 N 
HETATM    6  H   UNL     1     -46.259  57.860 -60.303  1.00  0.00     0.189 HD
HETATM    7  N   UNL     1     -46.090  59.058 -58.673  1.00  0.00    -0.168 NA
HETATM    8  C   UNL     1     -45.320  58.920 -57.569  1.00  0.00     0.156 A 
HETATM    9  C   UNL     1     -44.275  55.963 -59.309  1.00  0.00     0.034 A 
HETATM   10  C   UNL     1     -43.299  55.376 -58.490  1.00  0.00     0.032 A 
ENDROOT
BRANCH   1  11
HETATM   11  N   UNL     1     -41.875  55.336 -56.553  1.00  0.00    -0.327 N 
HETATM   12  C   UNL     1     -41.949  54.728 -55.311  1.00  0.00     0.226 C 
HETATM   13  O   UNL     1     -42.950  54.205 -54.830  1.00  0.00    -0.273 OA
HETATM   14  H   UNL     1     -40.963  55.381 -56.991  1.00  0.00     0.169 HD
BRANCH  12  15
HETATM   15  C   UNL     1     -40.647  54.810 -54.533  1.00  0.00     0.141 C 
BRANCH  15  16
HETATM   16  C   UNL     1     -40.286  53.614 -53.688  1.00  0.00    -0.049 A 
HETATM   17  C   UNL     1     -40.401  53.710 -52.292  1.00  0.00     0.008 A 
HETATM   18  C   UNL     1     -40.207  52.591 -51.479  1.00  0.00     0.017 A 
HETATM   19  C   UNL     1     -39.895  51.347 -52.042  1.00  0.00     0.047 A 
HETATM   20  C   UNL     1     -39.779  51.250 -53.436  1.00  0.00     0.017 A 
HETATM   21  C   UNL     1     -39.975  52.371 -54.251  1.00  0.00     0.008 A 
BRANCH  19  22
HETATM   22  C   UNL     1     -39.761  50.128 -51.164  1.00  0.00     0.417 C 
HETATM   23  F   UNL     1     -40.436  50.232 -49.986  1.00  0.00    -0.166 F 
HETATM   24  F   UNL     1     -40.226  48.992 -51.758  1.00  0.00    -0.166 F 
HETATM   25  F   UNL     1     -38.466  49.869 -50.832  1.00  0.00    -0.166 F 
ENDBRANCH  19  22
ENDBRANCH  15  16
ENDBRANCH  12  15
ENDBRANCH   1  11
BRANCH   8  26
HETATM   26  C   UNL     1     -45.317  59.935 -56.506  1.00  0.00     0.270 C 
HETATM   27  N   UNL     1     -45.824  59.498 -55.313  1.00  0.00    -0.365 N 
HETATM   28  H   UNL     1     -46.174  58.549 -55.253  1.00  0.00     0.159 HD
HETATM   29  H   UNL     1     -45.894  60.138 -54.537  1.00  0.00     0.159 HD
HETATM   30  O   UNL     1     -44.924  61.089 -56.642  1.00  0.00    -0.266 OA
ENDBRANCH   8  26
TORSDOF 5
ENDMDL
MODEL 6
REMARK VINA RESULT:      -8.3      2.107      2.869
REMARK  5 active torsions:
REMARK  status: ('A' for Active; 'I' for Inactive)
REMARK    1  A    between atoms: C_2  and  C_3 
REMARK    2  A    between atoms: C_3  and  C_4 
REMARK       I    between atoms: C_4  and  N_5 
REMARK    3  A    between atoms: N_5  and  C_6 
REMARK    4  A    between atoms: C_13  and  C_14 
REMARK       I    between atoms: C_14  and  N_15 
REMARK    5  A    between atoms: C_22  and  C_23 
ROOT
HETATM    1  C   UNL     1     -43.801  58.072 -55.437  1.00  0.00     0.035 A 
HETATM    2  C   UNL     1     -43.594  57.305 -56.593  1.00  0.00     0.046 A 
HETATM    3  C   UNL     1     -44.447  57.475 -57.703  1.00  0.00     0.030 A 
HETATM    4  C   UNL     1     -45.450  58.434 -57.637  1.00  0.00     0.063 A 
HETATM    5  N   UNL     1     -46.100  58.359 -58.837  1.00  0.00    -0.277 N 
HETATM    6  H   UNL     1     -46.890  58.915 -59.144  1.00  0.00     0.189 HD
HETATM    7  N   UNL     1     -45.629  57.414 -59.668  1.00  0.00    -0.168 NA
HETATM    8  C   UNL     1     -44.607  56.856 -58.980  1.00  0.00     0.156 A 
HETATM    9  C   UNL     1     -45.662  59.239 -56.515  1.00  0.00     0.034 A 
HETATM   10  C   UNL     1     -44.825  59.025 -55.410  1.00  0.00     0.032 A 
ENDROOT
BRANCH   1  11
HETATM   11  N   UNL     1     -43.087  57.844 -54.240  1.00  0.00    -0.327 N 
HETATM   12  C   UNL     1     -41.797  58.267 -53.970  1.00  0.00     0.226 C 
HETATM   13  O   UNL     1     -41.243  59.239 -54.474  1.00  0.00    -0.273 OA
HETATM   14  H   UNL     1     -43.556  57.303 -53.523  1.00  0.00     0.169 HD
BRANCH  12  15
HETATM   15  C   UNL     1     -41.069  57.359 -52.993  1.00  0.00     0.141 C 
BRANCH  15  16
HETATM   16  C   UNL     1     -41.055  55.886 -53.317  1.00  0.00    -0.049 A 
HETATM   17  C   UNL     1     -40.511  55.465 -54.540  1.00  0.00     0.008 A 
HETATM   18  C   UNL     1     -40.355  54.107 -54.825  1.00  0.00     0.017 A 
HETATM   19  C   UNL     1     -40.737  53.135 -53.891  1.00  0.00     0.047 A 
HETATM   20  C   UNL     1     -41.282  53.554 -52.669  1.00  0.00     0.017 A 
HETATM   21  C   UNL     1     -41.437  54.915 -52.383  1.00  0.00     0.008 A 
BRANCH  19  22
HETATM   22  C   UNL     1     -40.496  51.674 -54.174  1.00  0.00     0.417 C 
HETATM   23  F   UNL     1     -40.080  50.972 -53.083  1.00  0.00    -0.166 F 
HETATM   24  F   UNL     1     -41.610  51.029 -54.626  1.00  0.00    -0.166 F 
HETATM   25  F   UNL     1     -39.544  51.481 -55.129  1.00  0.00    -0.166 F 
ENDBRANCH  19  22
ENDBRANCH  15  16
ENDBRANCH  12  15
ENDBRANCH   1  11
BRANCH   8  26
HETATM   26  C   UNL     1     -43.832  55.737 -59.533  1.00  0.00     0.270 C 
HETATM   27  N   UNL     1     -44.381  54.506 -59.299  1.00  0.00    -0.365 N 
HETATM   28  H   UNL     1     -45.238  54.451 -58.762  1.00  0.00     0.159 HD
HETATM   29  H   UNL     1     -43.898  53.678 -59.612  1.00  0.00     0.159 HD
HETATM   30  O   UNL     1     -42.771  55.852 -60.139  1.00  0.00    -0.266 OA
ENDBRANCH   8  26
TORSDOF 5
ENDMDL
MODEL 7
REMARK VINA RESULT:      -8.2      2.794      3.811
REMARK  5 active torsions:
REMARK  status: ('A' for Active; 'I' for Inactive)
REMARK    1  A    between atoms: C_2  and  C_3 
REMARK    2  A    between atoms: C_3  and  C_4 
REMARK       I    between atoms: C_4  and  N_5 
REMARK    3  A    between atoms: N_5  and  C_6 
REMARK    4  A    between atoms: C_13  and  C_14 
REMARK       I    between atoms: C_14  and  N_15 
REMARK    5  A    between atoms: C_22  and  C_23 
ROOT
HETATM    1  C   UNL     1     -42.636  57.100 -55.490  1.00  0.00     0.035 A 
HETATM    2  C   UNL     1     -42.517  58.445 -55.872  1.00  0.00     0.046 A 
HETATM    3  C   UNL     1     -42.531  58.783 -57.241  1.00  0.00     0.030 A 
HETATM    4  C   UNL     1     -42.705  57.773 -58.179  1.00  0.00     0.063 A 
HETATM    5  N   UNL     1     -42.669  58.399 -59.394  1.00  0.00    -0.277 N 
HETATM    6  H   UNL     1     -42.765  57.972 -60.309  1.00  0.00     0.189 HD
HETATM    7  N   UNL     1     -42.454  59.724 -59.332  1.00  0.00    -0.168 NA
HETATM    8  C   UNL     1     -42.365  59.977 -58.006  1.00  0.00     0.156 A 
HETATM    9  C   UNL     1     -42.863  56.429 -57.832  1.00  0.00     0.034 A 
HETATM   10  C   UNL     1     -42.807  56.113 -56.467  1.00  0.00     0.032 A 
ENDROOT
BRANCH   1  11
HETATM   11  N   UNL     1     -42.474  56.677 -54.153  1.00  0.00    -0.327 N 
HETATM   12  C   UNL     1     -41.291  56.684 -53.434  1.00  0.00     0.226 C 
HETATM   13  O   UNL     1     -40.339  57.432 -53.633  1.00  0.00    -0.273 OA
HETATM   14  H   UNL     1     -43.296  56.314 -53.685  1.00  0.00     0.169 HD
BRANCH  12  15
HETATM   15  C   UNL     1     -41.241  55.607 -52.364  1.00  0.00     0.141 C 
BRANCH  15  16
HETATM   16  C   UNL     1     -40.750  54.247 -52.793  1.00  0.00    -0.049 A 
HETATM   17  C   UNL     1     -40.425  53.301 -51.809  1.00  0.00     0.008 A 
HETATM   18  C   UNL     1     -40.095  51.989 -52.156  1.00  0.00     0.017 A 
HETATM   19  C   UNL     1     -40.085  51.590 -53.498  1.00  0.00     0.047 A 
HETATM   20  C   UNL     1     -40.408  52.534 -54.484  1.00  0.00     0.017 A 
HETATM   21  C   UNL     1     -40.741  53.847 -54.135  1.00  0.00     0.008 A 
BRANCH  19  22
HETATM   22  C   UNL     1     -39.801  50.154 -53.861  1.00  0.00     0.417 C 
HETATM   23  F   UNL     1     -38.694  50.001 -54.639  1.00  0.00    -0.166 F 
HETATM   24  F   UNL     1     -39.601  49.359 -52.772  1.00  0.00    -0.166 F 
HETATM   25  F   UNL     1     -40.826  49.583 -54.553  1.00  0.00    -0.166 F 
ENDBRANCH  19  22
ENDBRANCH  15  16
ENDBRANCH  12  15
ENDBRANCH   1  11
BRANCH   8  26
HETATM   26  C   UNL     1     -42.094  61.330 -57.501  1.00  0.00     0.270 C 
HETATM   27  N   UNL     1     -40.870  61.826 -57.857  1.00  0.00    -0.365 N 
HETATM   28  H   UNL     1     -40.249  61.241 -58.403  1.00  0.00     0.159 HD
HETATM   29  H   UNL     1     -40.585  62.734 -57.525  1.00  0.00     0.159 HD
HETATM   30  O   UNL     1     -42.863  61.983 -56.802  1.00  0.00    -0.266 OA
ENDBRANCH   8  26
TORSDOF 5
ENDMDL
MODEL 8
REMARK VINA RESULT:      -8.2      3.772      5.248
REMARK  5 active torsions:
REMARK  status: ('A' for Active; 'I' for Inactive)
REMARK    1  A    between atoms: C_2  and  C_3 
REMARK    2  A    between atoms: C_3  and  C_4 
REMARK       I    between atoms: C_4  and  N_5 
REMARK    3  A    between atoms: N_5  and  C_6 
REMARK    4  A    between atoms: C_13  and  C_14 
REMARK       I    between atoms: C_14  and  N_15 
REMARK    5  A    between atoms: C_22  and  C_23 
ROOT
HETATM    1  C   UNL     1     -42.702  56.859 -53.082  1.00  0.00     0.035 A 
HETATM    2  C   UNL     1     -43.321  58.083 -53.374  1.00  0.00     0.046 A 
HETATM    3  C   UNL     1     -44.343  58.566 -52.530  1.00  0.00     0.030 A 
HETATM    4  C   UNL     1     -44.682  57.831 -51.401  1.00  0.00     0.063 A 
HETATM    5  N   UNL     1     -45.687  58.537 -50.800  1.00  0.00    -0.277 N 
HETATM    6  H   UNL     1     -46.180  58.300 -49.947  1.00  0.00     0.189 HD
HETATM    7  N   UNL     1     -46.056  59.651 -51.455  1.00  0.00    -0.168 NA
HETATM    8  C   UNL     1     -45.234  59.681 -52.530  1.00  0.00     0.156 A 
HETATM    9  C   UNL     1     -44.062  56.627 -51.060  1.00  0.00     0.034 A 
HETATM   10  C   UNL     1     -43.076  56.149 -51.935  1.00  0.00     0.032 A 
ENDROOT
BRANCH   1  11
HETATM   11  N   UNL     1     -41.787  56.244 -53.963  1.00  0.00    -0.327 N 
HETATM   12  C   UNL     1     -41.984  55.054 -54.642  1.00  0.00     0.226 C 
HETATM   13  O   UNL     1     -43.073  54.585 -54.959  1.00  0.00    -0.273 OA
HETATM   14  H   UNL     1     -40.895  56.706 -54.092  1.00  0.00     0.169 HD
BRANCH  12  15
HETATM   15  C   UNL     1     -40.690  54.315 -54.930  1.00  0.00     0.141 C 
BRANCH  15  16
HETATM   16  C   UNL     1     -40.310  53.212 -53.974  1.00  0.00    -0.049 A 
HETATM   17  C   UNL     1     -40.211  53.505 -52.605  1.00  0.00     0.008 A 
HETATM   18  C   UNL     1     -39.995  52.491 -51.669  1.00  0.00     0.017 A 
HETATM   19  C   UNL     1     -39.874  51.158 -52.079  1.00  0.00     0.047 A 
HETATM   20  C   UNL     1     -39.971  50.863 -53.447  1.00  0.00     0.017 A 
HETATM   21  C   UNL     1     -40.190  51.879 -54.384  1.00  0.00     0.008 A 
BRANCH  19  22
HETATM   22  C   UNL     1     -39.716  50.059 -51.058  1.00  0.00     0.417 C 
HETATM   23  F   UNL     1     -40.366  50.310 -49.888  1.00  0.00    -0.166 F 
HETATM   24  F   UNL     1     -40.187  48.856 -51.493  1.00  0.00    -0.166 F 
HETATM   25  F   UNL     1     -38.412  49.848 -50.723  1.00  0.00    -0.166 F 
ENDBRANCH  19  22
ENDBRANCH  15  16
ENDBRANCH  12  15
ENDBRANCH   1  11
BRANCH   8  26
HETATM   26  C   UNL     1     -45.334  60.744 -53.540  1.00  0.00     0.270 C 
HETATM   27  N   UNL     1     -46.606  60.974 -53.987  1.00  0.00    -0.365 N 
HETATM   28  H   UNL     1     -47.360  60.403 -53.622  1.00  0.00     0.159 HD
HETATM   29  H   UNL     1     -46.764  61.662 -54.706  1.00  0.00     0.159 HD
HETATM   30  O   UNL     1     -44.382  61.378 -53.985  1.00  0.00    -0.266 OA
ENDBRANCH   8  26
TORSDOF 5
ENDMDL
MODEL 9
REMARK VINA RESULT:      -8.0      3.875      5.174
REMARK  5 active torsions:
REMARK  status: ('A' for Active; 'I' for Inactive)
REMARK    1  A    between atoms: C_2  and  C_3 
REMARK    2  A    between atoms: C_3  and  C_4 
REMARK       I    between atoms: C_4  and  N_5 
REMARK    3  A    between atoms: N_5  and  C_6 
REMARK    4  A    between atoms: C_13  and  C_14 
REMARK       I    between atoms: C_14  and  N_15 
REMARK    5  A    between atoms: C_22  and  C_23 
ROOT
HETATM    1  C   UNL     1     -43.603  56.728 -52.470  1.00  0.00     0.035 A 
HETATM    2  C   UNL     1     -44.206  57.979 -52.275  1.00  0.00     0.046 A 
HETATM    3  C   UNL     1     -44.789  58.650 -53.371  1.00  0.00     0.030 A 
HETATM    4  C   UNL     1     -44.787  58.029 -54.614  1.00  0.00     0.063 A 
HETATM    5  N   UNL     1     -45.405  58.911 -55.457  1.00  0.00    -0.277 N 
HETATM    6  H   UNL     1     -45.584  58.791 -56.448  1.00  0.00     0.189 HD
HETATM    7  N   UNL     1     -45.780  60.065 -54.880  1.00  0.00    -0.168 NA
HETATM    8  C   UNL     1     -45.404  59.920 -53.589  1.00  0.00     0.156 A 
HETATM    9  C   UNL     1     -44.229  56.768 -54.836  1.00  0.00     0.034 A 
HETATM   10  C   UNL     1     -43.622  56.139 -53.740  1.00  0.00     0.032 A 
ENDROOT
BRANCH   1  11
HETATM   11  N   UNL     1     -42.869  56.075 -51.457  1.00  0.00    -0.327 N 
HETATM   12  C   UNL     1     -41.490  56.066 -51.328  1.00  0.00     0.226 C 
HETATM   13  O   UNL     1     -40.729  56.934 -51.745  1.00  0.00    -0.273 OA
HETATM   14  H   UNL     1     -43.400  55.547 -50.775  1.00  0.00     0.169 HD
BRANCH  12  15
HETATM   15  C   UNL     1     -40.968  54.816 -50.643  1.00  0.00     0.141 C 
BRANCH  15  16
HETATM   16  C   UNL     1     -40.555  53.674 -51.538  1.00  0.00    -0.049 A 
HETATM   17  C   UNL     1     -39.865  52.588 -50.979  1.00  0.00     0.008 A 
HETATM   18  C   UNL     1     -39.581  51.451 -51.739  1.00  0.00     0.017 A 
HETATM   19  C   UNL     1     -39.982  51.372 -53.078  1.00  0.00     0.047 A 
HETATM   20  C   UNL     1     -40.671  52.458 -53.640  1.00  0.00     0.017 A 
HETATM   21  C   UNL     1     -40.957  53.596 -52.877  1.00  0.00     0.008 A 
BRANCH  19  22
HETATM   22  C   UNL     1     -39.739  50.113 -53.871  1.00  0.00     0.417 C 
HETATM   23  F   UNL     1     -39.494  49.022 -53.094  1.00  0.00    -0.166 F 
HETATM   24  F   UNL     1     -40.793  49.772 -54.666  1.00  0.00    -0.166 F 
HETATM   25  F   UNL     1     -38.668  50.225 -54.706  1.00  0.00    -0.166 F 
ENDBRANCH  19  22
ENDBRANCH  15  16
ENDBRANCH  12  15
ENDBRANCH   1  11
BRANCH   8  26
HETATM   26  C   UNL     1     -45.607  60.994 -52.606  1.00  0.00     0.270 C 
HETATM   27  N   UNL     1     -46.539  60.706 -51.647  1.00  0.00    -0.365 N 
HETATM   28  H   UNL     1     -47.023  59.817 -51.692  1.00  0.00     0.159 HD
HETATM   29  H   UNL     1     -46.769  61.400 -50.953  1.00  0.00     0.159 HD
HETATM   30  O   UNL     1     -45.027  62.075 -52.622  1.00  0.00    -0.266 OA
ENDBRANCH   8  26
TORSDOF 5
ENDMDL
MODEL 10
REMARK VINA RESULT:      -7.9      2.139      2.864
REMARK  5 active torsions:
REMARK  status: ('A' for Active; 'I' for Inactive)
REMARK    1  A    between atoms: C_2  and  C_3 
REMARK    2  A    between atoms: C_3  and  C_4 
REMARK       I    between atoms: C_4  and  N_5 
REMARK    3  A    between atoms: N_5  and  C_6 
REMARK    4  A    between atoms: C_13  and  C_14 
REMARK       I    between atoms: C_14  and  N_15 
REMARK    5  A    between atoms: C_22  and  C_23 
ROOT
HETATM    1  C   UNL     1     -43.378  57.274 -54.318  1.00  0.00     0.035 A 
HETATM    2  C   UNL     1     -43.880  57.192 -55.626  1.00  0.00     0.046 A 
HETATM    3  C   UNL     1     -44.816  58.149 -56.073  1.00  0.00     0.030 A 
HETATM    4  C   UNL     1     -45.185  59.178 -55.215  1.00  0.00     0.063 A 
HETATM    5  N   UNL     1     -46.089  59.925 -55.917  1.00  0.00    -0.277 N 
HETATM    6  H   UNL     1     -46.571  60.760 -55.604  1.00  0.00     0.189 HD
HETATM    7  N   UNL     1     -46.367  59.456 -57.145  1.00  0.00    -0.168 NA
HETATM    8  C   UNL     1     -45.588  58.355 -57.256  1.00  0.00     0.156 A 
HETATM    9  C   UNL     1     -44.677  59.310 -53.920  1.00  0.00     0.034 A 
HETATM   10  C   UNL     1     -43.778  58.325 -53.485  1.00  0.00     0.032 A 
ENDROOT
BRANCH   1  11
HETATM   11  N   UNL     1     -42.564  56.267 -53.757  1.00  0.00    -0.327 N 
HETATM   12  C   UNL     1     -42.671  55.755 -52.475  1.00  0.00     0.226 C 
HETATM   13  O   UNL     1     -43.695  55.729 -51.799  1.00  0.00    -0.273 OA
HETATM   14  H   UNL     1     -41.819  55.904 -54.338  1.00  0.00     0.169 HD
BRANCH  12  15
HETATM   15  C   UNL     1     -41.348  55.250 -51.927  1.00  0.00     0.141 C 
BRANCH  15  16
HETATM   16  C   UNL     1     -40.823  53.958 -52.502  1.00  0.00    -0.049 A 
HETATM   17  C   UNL     1     -40.072  53.104 -51.680  1.00  0.00     0.008 A 
HETATM   18  C   UNL     1     -39.681  51.840 -52.128  1.00  0.00     0.017 A 
HETATM   19  C   UNL     1     -40.033  51.398 -53.409  1.00  0.00     0.047 A 
HETATM   20  C   UNL     1     -40.783  52.251 -54.233  1.00  0.00     0.017 A 
HETATM   21  C   UNL     1     -41.176  53.516 -53.783  1.00  0.00     0.008 A 
BRANCH  19  22
HETATM   22  C   UNL     1     -39.672  50.004 -53.858  1.00  0.00     0.417 C 
HETATM   23  F   UNL     1     -39.725  49.082 -52.857  1.00  0.00    -0.166 F 
HETATM   24  F   UNL     1     -40.492  49.533 -54.840  1.00  0.00    -0.166 F 
HETATM   25  F   UNL     1     -38.409  49.935 -54.365  1.00  0.00    -0.166 F 
ENDBRANCH  19  22
ENDBRANCH  15  16
ENDBRANCH  12  15
ENDBRANCH   1  11
BRANCH   8  26
HETATM   26  C   UNL     1     -45.617  57.514 -58.461  1.00  0.00     0.270 C 
HETATM   27  N   UNL     1     -46.834  56.941 -58.713  1.00  0.00    -0.365 N 
HETATM   28  H   UNL     1     -47.594  57.110 -58.065  1.00  0.00     0.159 HD
HETATM   29  H   UNL     1     -46.937  56.319 -59.500  1.00  0.00     0.159 HD
HETATM   30  O   UNL     1     -44.654  57.303 -59.190  1.00  0.00    -0.266 OA
ENDBRANCH   8  26
TORSDOF 5
ENDMDL
