MODEL 1
REMARK VINA RESULT:      -8.3      0.000      0.000
REMARK  8 active torsions:
REMARK  status: ('A' for Active; 'I' for Inactive)
REMARK    1  A    between atoms: C_2  and  N_3 
REMARK    2  A    between atoms: C_11  and  C_12 
REMARK    3  A    between atoms: C_14  and  O_15 
REMARK    4  A    between atoms: O_15  and  C_16 
REMARK    5  A    between atoms: C_18  and  O_19 
REMARK    6  A    between atoms: O_19  and  C_20 
REMARK    7  A    between atoms: C_20  and  C_21 
REMARK    8  A    between atoms: C_31  and  O_32 
ROOT
HETATM    1  N   UNL     1     -44.212  58.785 -60.943  1.00  0.00    -0.067 N 
HETATM    2  H   UNL     1     -43.853  58.542 -61.874  1.00  0.00     0.280 HD
HETATM    3  C   UNL     1     -42.977  59.123 -60.102  1.00  0.00     0.281 C 
HETATM    4  C   UNL     1     -43.301  59.084 -58.649  1.00  0.00     0.018 A 
HETATM    5  C   UNL     1     -44.403  58.454 -58.094  1.00  0.00    -0.024 A 
HETATM    6  C   UNL     1     -44.422  58.615 -56.673  1.00  0.00     0.057 A 
HETATM    7  C   UNL     1     -43.332  59.320 -56.230  1.00  0.00     0.087 A 
HETATM    8  N   UNL     1     -43.139  59.582 -54.924  1.00  0.00    -0.357 N 
HETATM    9  C   UNL     1     -43.826  58.704 -53.976  1.00  0.00     0.243 C 
HETATM   10  N   UNL     1     -45.164  58.233 -54.403  1.00  0.00    -0.235 NA
HETATM   11  C   UNL     1     -45.363  58.190 -55.669  1.00  0.00     0.173 C 
HETATM   12  S   UNL     1     -42.303  59.818 -57.483  1.00  0.00    -0.074 SA
HETATM   13  C   UNL     1     -45.414  57.748 -58.948  1.00  0.00     0.068 C 
HETATM   14  C   UNL     1     -44.895  57.535 -60.384  1.00  0.00     0.240 C 
HETATM   15  H   UNL     1     -42.238  59.935 -54.617  1.00  0.00     0.162 HD
ENDROOT
BRANCH   9  16
HETATM   16  C   UNL     1     -42.891  57.551 -53.587  1.00  0.00    -0.012 A 
HETATM   17  C   UNL     1     -43.359  56.407 -52.913  1.00  0.00     0.050 A 
HETATM   18  C   UNL     1     -42.510  55.335 -52.623  1.00  0.00     0.103 A 
HETATM   19  C   UNL     1     -41.172  55.399 -53.031  1.00  0.00     0.112 A 
HETATM   20  C   UNL     1     -40.675  56.530 -53.675  1.00  0.00     0.041 A 
HETATM   21  C   UNL     1     -41.525  57.608 -53.927  1.00  0.00     0.014 A 
BRANCH  18  22
HETATM   22  O   UNL     1     -42.911  54.181 -52.000  1.00  0.00    -0.349 OA
BRANCH  22  23
HETATM   23  C   UNL     1     -43.374  54.322 -50.656  1.00  0.00     0.171 C 
HETATM   24  C   UNL     1     -42.192  54.723 -49.791  1.00  0.00     0.034 C 
ENDBRANCH  22  23
ENDBRANCH  18  22
BRANCH  19  25
HETATM   25  O   UNL     1     -40.397  54.231 -52.841  1.00  0.00    -0.272 OA
BRANCH  25  26
HETATM   26  C   UNL     1     -40.213  53.268 -53.820  1.00  0.00     0.298 C 
HETATM   27  O   UNL     1     -40.267  53.423 -55.029  1.00  0.00    -0.259 OA
BRANCH  26  28
HETATM   28  C   UNL     1     -39.995  51.951 -53.163  1.00  0.00     0.039 A 
HETATM   29  C   UNL     1     -39.920  51.914 -51.765  1.00  0.00     0.017 A 
HETATM   30  C   UNL     1     -39.691  50.705 -51.105  1.00  0.00     0.001 A 
HETATM   31  C   UNL     1     -39.545  49.527 -51.837  1.00  0.00     0.000 A 
HETATM   32  C   UNL     1     -39.631  49.554 -53.229  1.00  0.00     0.001 A 
HETATM   33  C   UNL     1     -39.855  50.762 -53.894  1.00  0.00     0.017 A 
ENDBRANCH  26  28
ENDBRANCH  25  26
ENDBRANCH  19  25
ENDBRANCH   9  16
BRANCH  11  34
HETATM   34  O   UNL     1     -46.540  57.715 -56.114  1.00  0.00    -0.344 OA
HETATM   35  H   UNL     1     -46.360  56.831 -56.480  1.00  0.00     0.219 HD
ENDBRANCH  11  34
BRANCH   1  36
HETATM   36  C   UNL     1     -45.107  59.993 -61.125  1.00  0.00     0.231 C 
HETATM   37  C   UNL     1     -44.432  61.049 -61.981  1.00  0.00     0.034 C 
ENDBRANCH   1  36
TORSDOF 8
ENDMDL
MODEL 2
REMARK VINA RESULT:      -8.1      3.438      5.825
REMARK  8 active torsions:
REMARK  status: ('A' for Active; 'I' for Inactive)
REMARK    1  A    between atoms: C_2  and  N_3 
REMARK    2  A    between atoms: C_11  and  C_12 
REMARK    3  A    between atoms: C_14  and  O_15 
REMARK    4  A    between atoms: O_15  and  C_16 
REMARK    5  A    between atoms: C_18  and  O_19 
REMARK    6  A    between atoms: O_19  and  C_20 
REMARK    7  A    between atoms: C_20  and  C_21 
REMARK    8  A    between atoms: C_31  and  O_32 
ROOT
HETATM    1  N   UNL     1     -44.896  62.902 -48.972  1.00  0.00    -0.067 N 
HETATM    2  H   UNL     1     -44.868  63.095 -47.964  1.00  0.00     0.280 HD
HETATM    3  C   UNL     1     -45.400  61.462 -49.102  1.00  0.00     0.281 C 
HETATM    4  C   UNL     1     -45.095  60.915 -50.454  1.00  0.00     0.018 A 
HETATM    5  C   UNL     1     -44.157  61.435 -51.331  1.00  0.00    -0.024 A 
HETATM    6  C   UNL     1     -44.119  60.680 -52.546  1.00  0.00     0.057 A 
HETATM    7  C   UNL     1     -44.997  59.626 -52.512  1.00  0.00     0.087 A 
HETATM    8  N   UNL     1     -45.122  58.774 -53.546  1.00  0.00    -0.357 N 
HETATM    9  C   UNL     1     -43.990  58.702 -54.471  1.00  0.00     0.243 C 
HETATM   10  N   UNL     1     -43.278  59.981 -54.702  1.00  0.00    -0.235 NA
HETATM   11  C   UNL     1     -43.357  60.842 -53.757  1.00  0.00     0.173 C 
HETATM   12  S   UNL     1     -45.883  59.538 -51.069  1.00  0.00    -0.074 SA
HETATM   13  C   UNL     1     -43.351  62.652 -50.986  1.00  0.00     0.068 C 
HETATM   14  C   UNL     1     -43.458  62.997 -49.487  1.00  0.00     0.240 C 
HETATM   15  H   UNL     1     -45.633  57.907 -53.415  1.00  0.00     0.162 HD
ENDROOT
BRANCH   9  16
HETATM   16  C   UNL     1     -43.049  57.574 -54.029  1.00  0.00    -0.012 A 
HETATM   17  C   UNL     1     -43.526  56.412 -53.390  1.00  0.00     0.050 A 
HETATM   18  C   UNL     1     -42.666  55.363 -53.052  1.00  0.00     0.103 A 
HETATM   19  C   UNL     1     -41.307  55.468 -53.375  1.00  0.00     0.112 A 
HETATM   20  C   UNL     1     -40.803  56.616 -53.981  1.00  0.00     0.041 A 
HETATM   21  C   UNL     1     -41.666  57.671 -54.282  1.00  0.00     0.014 A 
BRANCH  18  22
HETATM   22  O   UNL     1     -43.072  54.194 -52.460  1.00  0.00    -0.349 OA
BRANCH  22  23
HETATM   23  C   UNL     1     -43.594  54.311 -51.136  1.00  0.00     0.171 C 
HETATM   24  C   UNL     1     -42.428  54.546 -50.191  1.00  0.00     0.034 C 
ENDBRANCH  22  23
ENDBRANCH  18  22
BRANCH  19  25
HETATM   25  O   UNL     1     -40.512  54.320 -53.142  1.00  0.00    -0.272 OA
BRANCH  25  26
HETATM   26  C   UNL     1     -40.198  53.396 -54.124  1.00  0.00     0.298 C 
HETATM   27  O   UNL     1     -40.143  53.585 -55.328  1.00  0.00    -0.259 OA
BRANCH  26  28
HETATM   28  C   UNL     1     -39.993  52.068 -53.484  1.00  0.00     0.039 A 
HETATM   29  C   UNL     1     -39.805  52.024 -52.097  1.00  0.00     0.017 A 
HETATM   30  C   UNL     1     -39.584  50.803 -51.456  1.00  0.00     0.001 A 
HETATM   31  C   UNL     1     -39.556  49.622 -52.196  1.00  0.00     0.000 A 
HETATM   32  C   UNL     1     -39.754  49.656 -53.576  1.00  0.00     0.001 A 
HETATM   33  C   UNL     1     -39.972  50.875 -54.222  1.00  0.00     0.017 A 
ENDBRANCH  26  28
ENDBRANCH  25  26
ENDBRANCH  19  25
ENDBRANCH   9  16
BRANCH  11  34
HETATM   34  O   UNL     1     -42.682  61.998 -53.888  1.00  0.00    -0.344 OA
HETATM   35  H   UNL     1     -41.878  61.792 -54.397  1.00  0.00     0.219 HD
ENDBRANCH  11  34
BRANCH   1  36
HETATM   36  C   UNL     1     -45.873  63.890 -49.577  1.00  0.00     0.231 C 
HETATM   37  C   UNL     1     -47.295  63.580 -49.149  1.00  0.00     0.034 C 
ENDBRANCH   1  36
TORSDOF 8
ENDMDL
MODEL 3
REMARK VINA RESULT:      -7.9      1.481      2.398
REMARK  8 active torsions:
REMARK  status: ('A' for Active; 'I' for Inactive)
REMARK    1  A    between atoms: C_2  and  N_3 
REMARK    2  A    between atoms: C_11  and  C_12 
REMARK    3  A    between atoms: C_14  and  O_15 
REMARK    4  A    between atoms: O_15  and  C_16 
REMARK    5  A    between atoms: C_18  and  O_19 
REMARK    6  A    between atoms: O_19  and  C_20 
REMARK    7  A    between atoms: C_20  and  C_21 
REMARK    8  A    between atoms: C_31  and  O_32 
ROOT
HETATM    1  N   UNL     1     -45.390  58.107 -59.608  1.00  0.00    -0.067 N 
HETATM    2  H   UNL     1     -45.616  57.537 -60.431  1.00  0.00     0.280 HD
HETATM    3  C   UNL     1     -43.987  57.669 -59.177  1.00  0.00     0.281 C 
HETATM    4  C   UNL     1     -43.707  58.098 -57.778  1.00  0.00     0.018 A 
HETATM    5  C   UNL     1     -44.666  58.468 -56.849  1.00  0.00    -0.024 A 
HETATM    6  C   UNL     1     -44.061  58.833 -55.606  1.00  0.00     0.057 A 
HETATM    7  C   UNL     1     -42.697  58.692 -55.649  1.00  0.00     0.087 A 
HETATM    8  N   UNL     1     -41.921  58.970 -54.584  1.00  0.00    -0.357 N 
HETATM    9  C   UNL     1     -42.578  58.947 -53.277  1.00  0.00     0.243 C 
HETATM   10  N   UNL     1     -43.981  59.426 -53.263  1.00  0.00    -0.235 NA
HETATM   11  C   UNL     1     -44.618  59.318 -54.369  1.00  0.00     0.173 C 
HETATM   12  S   UNL     1     -42.126  58.160 -57.153  1.00  0.00    -0.074 SA
HETATM   13  C   UNL     1     -46.126  58.486 -57.196  1.00  0.00     0.068 C 
HETATM   14  C   UNL     1     -46.404  57.748 -58.520  1.00  0.00     0.240 C 
HETATM   15  H   UNL     1     -40.950  58.677 -54.589  1.00  0.00     0.162 HD
ENDROOT
BRANCH   9  16
HETATM   16  C   UNL     1     -42.426  57.551 -52.660  1.00  0.00    -0.012 A 
HETATM   17  C   UNL     1     -42.502  56.379 -53.439  1.00  0.00     0.050 A 
HETATM   18  C   UNL     1     -42.296  55.116 -52.876  1.00  0.00     0.103 A 
HETATM   19  C   UNL     1     -41.990  55.023 -51.512  1.00  0.00     0.112 A 
HETATM   20  C   UNL     1     -41.935  56.162 -50.712  1.00  0.00     0.041 A 
HETATM   21  C   UNL     1     -42.178  57.413 -51.280  1.00  0.00     0.014 A 
BRANCH  18  22
HETATM   22  O   UNL     1     -42.324  53.942 -53.585  1.00  0.00    -0.349 OA
BRANCH  22  23
HETATM   23  C   UNL     1     -42.097  54.054 -54.990  1.00  0.00     0.171 C 
HETATM   24  C   UNL     1     -40.597  54.038 -55.227  1.00  0.00     0.034 C 
ENDBRANCH  22  23
ENDBRANCH  18  22
BRANCH  19  25
HETATM   25  O   UNL     1     -41.649  53.737 -51.029  1.00  0.00    -0.272 OA
BRANCH  25  26
HETATM   26  C   UNL     1     -40.364  53.374 -50.661  1.00  0.00     0.298 C 
HETATM   27  O   UNL     1     -39.559  54.039 -50.029  1.00  0.00    -0.259 OA
BRANCH  26  28
HETATM   28  C   UNL     1     -40.066  52.030 -51.224  1.00  0.00     0.039 A 
HETATM   29  C   UNL     1     -39.875  51.920 -52.608  1.00  0.00     0.017 A 
HETATM   30  C   UNL     1     -39.618  50.675 -53.185  1.00  0.00     0.001 A 
HETATM   31  C   UNL     1     -39.542  49.537 -52.384  1.00  0.00     0.000 A 
HETATM   32  C   UNL     1     -39.718  49.639 -51.004  1.00  0.00     0.001 A 
HETATM   33  C   UNL     1     -39.980  50.882 -50.422  1.00  0.00     0.017 A 
ENDBRANCH  26  28
ENDBRANCH  25  26
ENDBRANCH  19  25
ENDBRANCH   9  16
BRANCH  11  34
HETATM   34  O   UNL     1     -45.912  59.683 -54.400  1.00  0.00    -0.344 OA
HETATM   35  H   UNL     1     -46.344  59.230 -53.654  1.00  0.00     0.219 HD
ENDBRANCH  11  34
BRANCH   1  36
HETATM   36  C   UNL     1     -45.405  59.552 -60.063  1.00  0.00     0.231 C 
HETATM   37  C   UNL     1     -44.312  59.814 -61.083  1.00  0.00     0.034 C 
ENDBRANCH   1  36
TORSDOF 8
ENDMDL
MODEL 4
REMARK VINA RESULT:      -7.9      3.499      9.641
REMARK  8 active torsions:
REMARK  status: ('A' for Active; 'I' for Inactive)
REMARK    1  A    between atoms: C_2  and  N_3 
REMARK    2  A    between atoms: C_11  and  C_12 
REMARK    3  A    between atoms: C_14  and  O_15 
REMARK    4  A    between atoms: O_15  and  C_16 
REMARK    5  A    between atoms: C_18  and  O_19 
REMARK    6  A    between atoms: O_19  and  C_20 
REMARK    7  A    between atoms: C_20  and  C_21 
REMARK    8  A    between atoms: C_31  and  O_32 
ROOT
HETATM    1  N   UNL     1     -39.643  52.668 -50.753  1.00  0.00    -0.067 N 
HETATM    2  H   UNL     1     -38.712  52.260 -50.611  1.00  0.00     0.280 HD
HETATM    3  C   UNL     1     -39.880  52.634 -52.266  1.00  0.00     0.281 C 
HETATM    4  C   UNL     1     -40.984  53.558 -52.648  1.00  0.00     0.018 A 
HETATM    5  C   UNL     1     -41.466  54.594 -51.863  1.00  0.00    -0.024 A 
HETATM    6  C   UNL     1     -42.534  55.281 -52.521  1.00  0.00     0.057 A 
HETATM    7  C   UNL     1     -42.781  54.756 -53.764  1.00  0.00     0.087 A 
HETATM    8  N   UNL     1     -43.739  55.254 -54.567  1.00  0.00    -0.357 N 
HETATM    9  C   UNL     1     -44.160  56.630 -54.301  1.00  0.00     0.243 C 
HETATM   10  N   UNL     1     -44.170  57.026 -52.874  1.00  0.00    -0.235 NA
HETATM   11  C   UNL     1     -43.371  56.378 -52.109  1.00  0.00     0.173 C 
HETATM   12  S   UNL     1     -41.780  53.442 -54.147  1.00  0.00    -0.074 SA
HETATM   13  C   UNL     1     -40.904  54.869 -50.499  1.00  0.00     0.068 C 
HETATM   14  C   UNL     1     -39.579  54.118 -50.269  1.00  0.00     0.240 C 
HETATM   15  H   UNL     1     -43.767  54.970 -55.541  1.00  0.00     0.162 HD
ENDROOT
BRANCH   9  16
HETATM   16  C   UNL     1     -43.336  57.587 -55.173  1.00  0.00    -0.012 A 
HETATM   17  C   UNL     1     -42.941  57.249 -56.483  1.00  0.00     0.050 A 
HETATM   18  C   UNL     1     -42.247  58.155 -57.290  1.00  0.00     0.103 A 
HETATM   19  C   UNL     1     -41.958  59.430 -56.786  1.00  0.00     0.112 A 
HETATM   20  C   UNL     1     -42.312  59.781 -55.486  1.00  0.00     0.041 A 
HETATM   21  C   UNL     1     -42.973  58.855 -54.679  1.00  0.00     0.014 A 
BRANCH  18  22
HETATM   22  O   UNL     1     -41.864  57.900 -58.582  1.00  0.00    -0.349 OA
BRANCH  22  23
HETATM   23  C   UNL     1     -42.814  57.205 -59.391  1.00  0.00     0.171 C 
HETATM   24  C   UNL     1     -43.557  58.230 -60.229  1.00  0.00     0.034 C 
ENDBRANCH  22  23
ENDBRANCH  18  22
BRANCH  19  25
HETATM   25  O   UNL     1     -41.385  60.352 -57.694  1.00  0.00    -0.272 OA
BRANCH  25  26
HETATM   26  C   UNL     1     -42.131  61.204 -58.491  1.00  0.00     0.298 C 
HETATM   27  O   UNL     1     -43.342  61.357 -58.480  1.00  0.00    -0.259 OA
BRANCH  26  28
HETATM   28  C   UNL     1     -41.219  61.889 -59.446  1.00  0.00     0.039 A 
HETATM   29  C   UNL     1     -40.134  62.606 -58.926  1.00  0.00     0.017 A 
HETATM   30  C   UNL     1     -39.265  63.286 -59.783  1.00  0.00     0.001 A 
HETATM   31  C   UNL     1     -39.472  63.246 -61.161  1.00  0.00     0.000 A 
HETATM   32  C   UNL     1     -40.543  62.524 -61.688  1.00  0.00     0.001 A 
HETATM   33  C   UNL     1     -41.416  61.846 -60.834  1.00  0.00     0.017 A 
ENDBRANCH  26  28
ENDBRANCH  25  26
ENDBRANCH  19  25
ENDBRANCH   9  16
BRANCH  11  34
HETATM   34  O   UNL     1     -43.297  56.733 -50.815  1.00  0.00    -0.344 OA
HETATM   35  H   UNL     1     -44.207  56.710 -50.470  1.00  0.00     0.219 HD
ENDBRANCH  11  34
BRANCH   1  36
HETATM   36  C   UNL     1     -40.624  51.777 -50.018  1.00  0.00     0.231 C 
HETATM   37  C   UNL     1     -40.277  50.312 -50.206  1.00  0.00     0.034 C 
ENDBRANCH   1  36
TORSDOF 8
ENDMDL
MODEL 5
REMARK VINA RESULT:      -7.7     16.377     19.636
REMARK  8 active torsions:
REMARK  status: ('A' for Active; 'I' for Inactive)
REMARK    1  A    between atoms: C_2  and  N_3 
REMARK    2  A    between atoms: C_11  and  C_12 
REMARK    3  A    between atoms: C_14  and  O_15 
REMARK    4  A    between atoms: O_15  and  C_16 
REMARK    5  A    between atoms: C_18  and  O_19 
REMARK    6  A    between atoms: O_19  and  C_20 
REMARK    7  A    between atoms: C_20  and  C_21 
REMARK    8  A    between atoms: C_31  and  O_32 
ROOT
HETATM    1  N   UNL     1     -32.427  38.146 -49.803  1.00  0.00    -0.067 N 
HETATM    2  H   UNL     1     -31.721  37.405 -49.718  1.00  0.00     0.280 HD
HETATM    3  C   UNL     1     -33.598  37.514 -50.561  1.00  0.00     0.281 C 
HETATM    4  C   UNL     1     -34.496  38.566 -51.116  1.00  0.00     0.018 A 
HETATM    5  C   UNL     1     -34.152  39.896 -51.295  1.00  0.00    -0.024 A 
HETATM    6  C   UNL     1     -35.247  40.638 -51.839  1.00  0.00     0.057 A 
HETATM    7  C   UNL     1     -36.336  39.836 -52.069  1.00  0.00     0.087 A 
HETATM    8  N   UNL     1     -37.478  40.322 -52.590  1.00  0.00    -0.357 N 
HETATM    9  C   UNL     1     -37.370  41.574 -53.340  1.00  0.00     0.243 C 
HETATM   10  N   UNL     1     -36.371  42.539 -52.824  1.00  0.00    -0.235 NA
HETATM   11  C   UNL     1     -35.398  42.034 -52.160  1.00  0.00     0.173 C 
HETATM   12  S   UNL     1     -36.084  38.221 -51.622  1.00  0.00    -0.074 SA
HETATM   13  C   UNL     1     -32.798  40.413 -50.910  1.00  0.00     0.068 C 
HETATM   14  C   UNL     1     -31.806  39.264 -50.644  1.00  0.00     0.240 C 
HETATM   15  H   UNL     1     -38.187  39.676 -52.920  1.00  0.00     0.162 HD
ENDROOT
BRANCH   9  16
HETATM   16  C   UNL     1     -37.167  41.254 -54.827  1.00  0.00    -0.012 A 
HETATM   17  C   UNL     1     -35.883  41.131 -55.395  1.00  0.00     0.050 A 
HETATM   18  C   UNL     1     -35.712  40.775 -56.736  1.00  0.00     0.103 A 
HETATM   19  C   UNL     1     -36.844  40.518 -57.520  1.00  0.00     0.112 A 
HETATM   20  C   UNL     1     -38.125  40.659 -56.993  1.00  0.00     0.041 A 
HETATM   21  C   UNL     1     -38.283  41.050 -55.662  1.00  0.00     0.014 A 
BRANCH  18  22
HETATM   22  O   UNL     1     -34.492  40.607 -57.339  1.00  0.00    -0.349 OA
BRANCH  22  23
HETATM   23  C   UNL     1     -33.668  39.568 -56.807  1.00  0.00     0.171 C 
HETATM   24  C   UNL     1     -32.435  40.212 -56.198  1.00  0.00     0.034 C 
ENDBRANCH  22  23
ENDBRANCH  18  22
BRANCH  19  25
HETATM   25  O   UNL     1     -36.609  40.022 -58.824  1.00  0.00    -0.272 OA
BRANCH  25  26
HETATM   26  C   UNL     1     -37.249  40.505 -59.953  1.00  0.00     0.298 C 
HETATM   27  O   UNL     1     -37.294  41.662 -60.341  1.00  0.00    -0.259 OA
BRANCH  26  28
HETATM   28  C   UNL     1     -37.960  39.381 -60.620  1.00  0.00     0.039 A 
HETATM   29  C   UNL     1     -37.582  39.042 -61.926  1.00  0.00     0.017 A 
HETATM   30  C   UNL     1     -38.238  38.011 -62.602  1.00  0.00     0.001 A 
HETATM   31  C   UNL     1     -39.267  37.309 -61.975  1.00  0.00     0.000 A 
HETATM   32  C   UNL     1     -39.640  37.632 -60.670  1.00  0.00     0.001 A 
HETATM   33  C   UNL     1     -38.990  38.666 -59.992  1.00  0.00     0.017 A 
ENDBRANCH  26  28
ENDBRANCH  25  26
ENDBRANCH  19  25
ENDBRANCH   9  16
BRANCH  11  34
HETATM   34  O   UNL     1     -34.432  42.858 -51.717  1.00  0.00    -0.344 OA
HETATM   35  H   UNL     1     -34.623  43.026 -50.777  1.00  0.00     0.219 HD
ENDBRANCH  11  34
BRANCH   1  36
HETATM   36  C   UNL     1     -32.822  38.533 -48.393  1.00  0.00     0.231 C 
HETATM   37  C   UNL     1     -31.627  39.050 -47.613  1.00  0.00     0.034 C 
ENDBRANCH   1  36
TORSDOF 8
ENDMDL
MODEL 6
REMARK VINA RESULT:      -7.4     16.440     19.757
REMARK  8 active torsions:
REMARK  status: ('A' for Active; 'I' for Inactive)
REMARK    1  A    between atoms: C_2  and  N_3 
REMARK    2  A    between atoms: C_11  and  C_12 
REMARK    3  A    between atoms: C_14  and  O_15 
REMARK    4  A    between atoms: O_15  and  C_16 
REMARK    5  A    between atoms: C_18  and  O_19 
REMARK    6  A    between atoms: O_19  and  C_20 
REMARK    7  A    between atoms: C_20  and  C_21 
REMARK    8  A    between atoms: C_31  and  O_32 
ROOT
HETATM    1  N   UNL     1     -35.552  38.395 -50.806  1.00  0.00    -0.067 N 
HETATM    2  H   UNL     1     -35.869  37.591 -50.252  1.00  0.00     0.280 HD
HETATM    3  C   UNL     1     -36.797  38.903 -51.540  1.00  0.00     0.281 C 
HETATM    4  C   UNL     1     -36.415  39.781 -52.681  1.00  0.00     0.018 A 
HETATM    5  C   UNL     1     -35.161  39.827 -53.268  1.00  0.00    -0.024 A 
HETATM    6  C   UNL     1     -35.128  40.783 -54.332  1.00  0.00     0.057 A 
HETATM    7  C   UNL     1     -36.351  41.379 -54.512  1.00  0.00     0.087 A 
HETATM    8  N   UNL     1     -36.555  42.306 -55.467  1.00  0.00    -0.357 N 
HETATM    9  C   UNL     1     -35.615  42.301 -56.589  1.00  0.00     0.243 C 
HETATM   10  N   UNL     1     -34.218  41.947 -56.245  1.00  0.00    -0.235 NA
HETATM   11  C   UNL     1     -34.067  41.218 -55.202  1.00  0.00     0.173 C 
HETATM   12  S   UNL     1     -37.527  40.839 -53.417  1.00  0.00    -0.074 SA
HETATM   13  C   UNL     1     -34.032  38.975 -52.769  1.00  0.00     0.068 C 
HETATM   14  C   UNL     1     -34.531  37.870 -51.818  1.00  0.00     0.240 C 
HETATM   15  H   UNL     1     -37.504  42.582 -55.695  1.00  0.00     0.162 HD
ENDROOT
BRANCH   9  16
HETATM   16  C   UNL     1     -36.183  41.429 -57.718  1.00  0.00    -0.012 A 
HETATM   17  C   UNL     1     -35.714  40.122 -57.959  1.00  0.00     0.050 A 
HETATM   18  C   UNL     1     -36.284  39.316 -58.948  1.00  0.00     0.103 A 
HETATM   19  C   UNL     1     -37.356  39.817 -59.698  1.00  0.00     0.112 A 
HETATM   20  C   UNL     1     -37.822  41.115 -59.500  1.00  0.00     0.041 A 
HETATM   21  C   UNL     1     -37.220  41.922 -58.534  1.00  0.00     0.014 A 
BRANCH  18  22
HETATM   22  O   UNL     1     -35.897  38.026 -59.209  1.00  0.00    -0.349 OA
BRANCH  22  23
HETATM   23  C   UNL     1     -34.577  37.862 -59.729  1.00  0.00     0.171 C 
HETATM   24  C   UNL     1     -34.667  37.854 -61.245  1.00  0.00     0.034 C 
ENDBRANCH  22  23
ENDBRANCH  18  22
BRANCH  19  25
HETATM   25  O   UNL     1     -37.987  38.909 -60.581  1.00  0.00    -0.272 OA
BRANCH  25  26
HETATM   26  C   UNL     1     -39.027  38.076 -60.206  1.00  0.00     0.298 C 
HETATM   27  O   UNL     1     -39.141  37.459 -59.159  1.00  0.00    -0.259 OA
BRANCH  26  28
HETATM   28  C   UNL     1     -39.996  37.981 -61.332  1.00  0.00     0.039 A 
HETATM   29  C   UNL     1     -41.357  38.153 -61.049  1.00  0.00     0.017 A 
HETATM   30  C   UNL     1     -42.306  38.047 -62.068  1.00  0.00     0.001 A 
HETATM   31  C   UNL     1     -41.899  37.778 -63.375  1.00  0.00     0.000 A 
HETATM   32  C   UNL     1     -40.544  37.617 -63.667  1.00  0.00     0.001 A 
HETATM   33  C   UNL     1     -39.592  37.718 -62.649  1.00  0.00     0.017 A 
ENDBRANCH  26  28
ENDBRANCH  25  26
ENDBRANCH  19  25
ENDBRANCH   9  16
BRANCH  11  34
HETATM   34  O   UNL     1     -32.825  40.820 -54.876  1.00  0.00    -0.344 OA
HETATM   35  H   UNL     1     -32.239  41.132 -55.588  1.00  0.00     0.219 HD
ENDBRANCH  11  34
BRANCH   1  36
HETATM   36  C   UNL     1     -35.030  39.422 -49.823  1.00  0.00     0.231 C 
HETATM   37  C   UNL     1     -33.812  38.899 -49.084  1.00  0.00     0.034 C 
ENDBRANCH   1  36
TORSDOF 8
ENDMDL
MODEL 7
REMARK VINA RESULT:      -7.3      6.180     10.150
REMARK  8 active torsions:
REMARK  status: ('A' for Active; 'I' for Inactive)
REMARK    1  A    between atoms: C_2  and  N_3 
REMARK    2  A    between atoms: C_11  and  C_12 
REMARK    3  A    between atoms: C_14  and  O_15 
REMARK    4  A    between atoms: O_15  and  C_16 
REMARK    5  A    between atoms: C_18  and  O_19 
REMARK    6  A    between atoms: O_19  and  C_20 
REMARK    7  A    between atoms: C_20  and  C_21 
REMARK    8  A    between atoms: C_31  and  O_32 
ROOT
HETATM    1  N   UNL     1     -41.258  54.198 -50.428  1.00  0.00    -0.067 N 
HETATM    2  H   UNL     1     -40.944  53.564 -49.684  1.00  0.00     0.280 HD
HETATM    3  C   UNL     1     -40.614  55.552 -50.113  1.00  0.00     0.281 C 
HETATM    4  C   UNL     1     -41.302  56.648 -50.851  1.00  0.00     0.018 A 
HETATM    5  C   UNL     1     -42.567  56.562 -51.411  1.00  0.00    -0.024 A 
HETATM    6  C   UNL     1     -42.926  57.788 -52.054  1.00  0.00     0.057 A 
HETATM    7  C   UNL     1     -41.941  58.734 -51.922  1.00  0.00     0.087 A 
HETATM    8  N   UNL     1     -42.070  59.969 -52.442  1.00  0.00    -0.357 N 
HETATM    9  C   UNL     1     -43.435  60.424 -52.709  1.00  0.00     0.243 C 
HETATM   10  N   UNL     1     -44.376  59.373 -53.163  1.00  0.00    -0.235 NA
HETATM   11  C   UNL     1     -44.095  58.177 -52.800  1.00  0.00     0.173 C 
HETATM   12  S   UNL     1     -40.587  58.176 -51.069  1.00  0.00    -0.074 SA
HETATM   13  C   UNL     1     -43.372  55.298 -51.335  1.00  0.00     0.068 C 
HETATM   14  C   UNL     1     -42.780  54.308 -50.313  1.00  0.00     0.240 C 
HETATM   15  H   UNL     1     -41.416  60.694 -52.165  1.00  0.00     0.162 HD
ENDROOT
BRANCH   9  16
HETATM   16  C   UNL     1     -43.957  61.196 -51.489  1.00  0.00    -0.012 A 
HETATM   17  C   UNL     1     -44.933  62.206 -51.608  1.00  0.00     0.050 A 
HETATM   18  C   UNL     1     -45.447  62.856 -50.483  1.00  0.00     0.103 A 
HETATM   19  C   UNL     1     -44.993  62.477 -49.213  1.00  0.00     0.112 A 
HETATM   20  C   UNL     1     -44.010  61.501 -49.067  1.00  0.00     0.041 A 
HETATM   21  C   UNL     1     -43.479  60.885 -50.201  1.00  0.00     0.014 A 
BRANCH  18  22
HETATM   22  O   UNL     1     -46.420  63.821 -50.528  1.00  0.00    -0.349 OA
BRANCH  22  23
HETATM   23  C   UNL     1     -47.736  63.370 -50.850  1.00  0.00     0.171 C 
HETATM   24  C   UNL     1     -48.708  64.029 -49.887  1.00  0.00     0.034 C 
ENDBRANCH  22  23
ENDBRANCH  18  22
BRANCH  19  25
HETATM   25  O   UNL     1     -45.652  63.063 -48.106  1.00  0.00    -0.272 OA
BRANCH  25  26
HETATM   26  C   UNL     1     -46.327  62.333 -47.143  1.00  0.00     0.298 C 
HETATM   27  O   UNL     1     -47.412  61.786 -47.256  1.00  0.00    -0.259 OA
BRANCH  26  28
HETATM   28  C   UNL     1     -45.543  62.364 -45.879  1.00  0.00     0.039 A 
HETATM   29  C   UNL     1     -45.543  63.548 -45.130  1.00  0.00     0.017 A 
HETATM   30  C   UNL     1     -44.801  63.633 -43.950  1.00  0.00     0.001 A 
HETATM   31  C   UNL     1     -44.064  62.535 -43.509  1.00  0.00     0.000 A 
HETATM   32  C   UNL     1     -44.068  61.348 -44.243  1.00  0.00     0.001 A 
HETATM   33  C   UNL     1     -44.806  61.260 -45.426  1.00  0.00     0.017 A 
ENDBRANCH  26  28
ENDBRANCH  25  26
ENDBRANCH  19  25
ENDBRANCH   9  16
BRANCH  11  34
HETATM   34  O   UNL     1     -44.945  57.191 -53.136  1.00  0.00    -0.344 OA
HETATM   35  H   UNL     1     -45.226  56.773 -52.303  1.00  0.00     0.219 HD
ENDBRANCH  11  34
BRANCH   1  36
HETATM   36  C   UNL     1     -40.741  53.627 -51.732  1.00  0.00     0.231 C 
HETATM   37  C   UNL     1     -39.966  52.344 -51.496  1.00  0.00     0.034 C 
ENDBRANCH   1  36
TORSDOF 8
ENDMDL
MODEL 8
REMARK VINA RESULT:      -7.3      3.783      6.151
REMARK  8 active torsions:
REMARK  status: ('A' for Active; 'I' for Inactive)
REMARK    1  A    between atoms: C_2  and  N_3 
REMARK    2  A    between atoms: C_11  and  C_12 
REMARK    3  A    between atoms: C_14  and  O_15 
REMARK    4  A    between atoms: O_15  and  C_16 
REMARK    5  A    between atoms: C_18  and  O_19 
REMARK    6  A    between atoms: O_19  and  C_20 
REMARK    7  A    between atoms: C_20  and  C_21 
REMARK    8  A    between atoms: C_31  and  O_32 
ROOT
HETATM    1  N   UNL     1     -45.025  63.327 -49.253  1.00  0.00    -0.067 N 
HETATM    2  H   UNL     1     -44.967  63.361 -48.228  1.00  0.00     0.280 HD
HETATM    3  C   UNL     1     -45.631  61.960 -49.585  1.00  0.00     0.281 C 
HETATM    4  C   UNL     1     -45.388  61.608 -51.012  1.00  0.00     0.018 A 
HETATM    5  C   UNL     1     -44.432  62.192 -51.827  1.00  0.00    -0.024 A 
HETATM    6  C   UNL     1     -44.468  61.632 -53.142  1.00  0.00     0.057 A 
HETATM    7  C   UNL     1     -45.416  60.645 -53.243  1.00  0.00     0.087 A 
HETATM    8  N   UNL     1     -45.619  59.971 -54.391  1.00  0.00    -0.357 N 
HETATM    9  C   UNL     1     -44.511  59.967 -55.347  1.00  0.00     0.243 C 
HETATM   10  N   UNL     1     -43.715  61.216 -55.402  1.00  0.00    -0.235 NA
HETATM   11  C   UNL     1     -43.717  61.926 -54.335  1.00  0.00     0.173 C 
HETATM   12  S   UNL     1     -46.280  60.396 -51.806  1.00  0.00    -0.074 SA
HETATM   13  C   UNL     1     -43.538  63.287 -51.323  1.00  0.00     0.068 C 
HETATM   14  C   UNL     1     -43.594  63.405 -49.788  1.00  0.00     0.240 C 
HETATM   15  H   UNL     1     -46.186  59.130 -54.378  1.00  0.00     0.162 HD
ENDROOT
BRANCH   9  16
HETATM   16  C   UNL     1     -43.642  58.725 -55.108  1.00  0.00    -0.012 A 
HETATM   17  C   UNL     1     -42.491  58.765 -54.295  1.00  0.00     0.050 A 
HETATM   18  C   UNL     1     -41.746  57.612 -54.033  1.00  0.00     0.103 A 
HETATM   19  C   UNL     1     -42.168  56.392 -54.576  1.00  0.00     0.112 A 
HETATM   20  C   UNL     1     -43.285  56.328 -55.405  1.00  0.00     0.041 A 
HETATM   21  C   UNL     1     -44.000  57.492 -55.688  1.00  0.00     0.014 A 
BRANCH  18  22
HETATM   22  O   UNL     1     -40.638  57.578 -53.225  1.00  0.00    -0.349 OA
BRANCH  22  23
HETATM   23  C   UNL     1     -40.744  58.282 -51.987  1.00  0.00     0.171 C 
HETATM   24  C   UNL     1     -41.013  57.266 -50.890  1.00  0.00     0.034 C 
ENDBRANCH  22  23
ENDBRANCH  18  22
BRANCH  19  25
HETATM   25  O   UNL     1     -41.463  55.238 -54.160  1.00  0.00    -0.272 OA
BRANCH  25  26
HETATM   26  C   UNL     1     -41.929  54.365 -53.192  1.00  0.00     0.298 C 
HETATM   27  O   UNL     1     -42.831  54.558 -52.393  1.00  0.00    -0.259 OA
BRANCH  26  28
HETATM   28  C   UNL     1     -41.099  53.130 -53.219  1.00  0.00     0.039 A 
HETATM   29  C   UNL     1     -40.308  52.840 -52.100  1.00  0.00     0.017 A 
HETATM   30  C   UNL     1     -39.493  51.706 -52.089  1.00  0.00     0.001 A 
HETATM   31  C   UNL     1     -39.470  50.854 -53.193  1.00  0.00     0.000 A 
HETATM   32  C   UNL     1     -40.263  51.129 -54.307  1.00  0.00     0.001 A 
HETATM   33  C   UNL     1     -41.077  52.265 -54.323  1.00  0.00     0.017 A 
ENDBRANCH  26  28
ENDBRANCH  25  26
ENDBRANCH  19  25
ENDBRANCH   9  16
BRANCH  11  34
HETATM   34  O   UNL     1     -42.967  63.041 -54.309  1.00  0.00    -0.344 OA
HETATM   35  H   UNL     1     -42.353  62.978 -55.062  1.00  0.00     0.219 HD
ENDBRANCH  11  34
BRANCH   1  36
HETATM   36  C   UNL     1     -45.942  64.458 -49.674  1.00  0.00     0.231 C 
HETATM   37  C   UNL     1     -47.365  64.205 -49.212  1.00  0.00     0.034 C 
ENDBRANCH   1  36
TORSDOF 8
ENDMDL
MODEL 9
REMARK VINA RESULT:      -7.3     16.171     18.535
REMARK  8 active torsions:
REMARK  status: ('A' for Active; 'I' for Inactive)
REMARK    1  A    between atoms: C_2  and  N_3 
REMARK    2  A    between atoms: C_11  and  C_12 
REMARK    3  A    between atoms: C_14  and  O_15 
REMARK    4  A    between atoms: O_15  and  C_16 
REMARK    5  A    between atoms: C_18  and  O_19 
REMARK    6  A    between atoms: O_19  and  C_20 
REMARK    7  A    between atoms: C_20  and  C_21 
REMARK    8  A    between atoms: C_31  and  O_32 
ROOT
HETATM    1  N   UNL     1     -36.483  38.607 -59.145  1.00  0.00    -0.067 N 
HETATM    2  H   UNL     1     -36.329  37.763 -59.709  1.00  0.00     0.280 HD
HETATM    3  C   UNL     1     -35.159  38.862 -58.418  1.00  0.00     0.281 C 
HETATM    4  C   UNL     1     -35.358  39.785 -57.266  1.00  0.00     0.018 A 
HETATM    5  C   UNL     1     -36.577  40.061 -56.666  1.00  0.00    -0.024 A 
HETATM    6  C   UNL     1     -36.419  40.994 -55.594  1.00  0.00     0.057 A 
HETATM    7  C   UNL     1     -35.104  41.346 -55.420  1.00  0.00     0.087 A 
HETATM    8  N   UNL     1     -34.721  42.207 -54.459  1.00  0.00    -0.357 N 
HETATM    9  C   UNL     1     -35.636  42.368 -53.328  1.00  0.00     0.243 C 
HETATM   10  N   UNL     1     -37.077  42.290 -53.661  1.00  0.00    -0.235 NA
HETATM   11  C   UNL     1     -37.372  41.614 -54.709  1.00  0.00     0.173 C 
HETATM   12  S   UNL     1     -34.061  40.605 -56.531  1.00  0.00    -0.074 SA
HETATM   13  C   UNL     1     -37.851  39.444 -57.162  1.00  0.00     0.068 C 
HETATM   14  C   UNL     1     -37.577  38.274 -58.128  1.00  0.00     0.240 C 
HETATM   15  H   UNL     1     -33.735  42.296 -54.238  1.00  0.00     0.162 HD
ENDROOT
BRANCH   9  16
HETATM   16  C   UNL     1     -35.235  41.393 -52.212  1.00  0.00    -0.012 A 
HETATM   17  C   UNL     1     -36.000  40.249 -51.912  1.00  0.00     0.050 A 
HETATM   18  C   UNL     1     -35.588  39.334 -50.938  1.00  0.00     0.103 A 
HETATM   19  C   UNL     1     -34.380  39.557 -50.264  1.00  0.00     0.112 A 
HETATM   20  C   UNL     1     -33.618  40.693 -50.521  1.00  0.00     0.041 A 
HETATM   21  C   UNL     1     -34.058  41.617 -51.471  1.00  0.00     0.014 A 
BRANCH  18  22
HETATM   22  O   UNL     1     -36.269  38.186 -50.622  1.00  0.00    -0.349 OA
BRANCH  22  23
HETATM   23  C   UNL     1     -37.614  38.359 -50.173  1.00  0.00     0.171 C 
HETATM   24  C   UNL     1     -37.570  38.846 -48.736  1.00  0.00     0.034 C 
ENDBRANCH  22  23
ENDBRANCH  18  22
BRANCH  19  25
HETATM   25  O   UNL     1     -33.943  38.528 -49.397  1.00  0.00    -0.272 OA
BRANCH  25  26
HETATM   26  C   UNL     1     -32.626  38.106 -49.314  1.00  0.00     0.298 C 
HETATM   27  O   UNL     1     -31.995  37.484 -50.153  1.00  0.00    -0.259 OA
BRANCH  26  28
HETATM   28  C   UNL     1     -32.087  38.475 -47.978  1.00  0.00     0.039 A 
HETATM   29  C   UNL     1     -31.239  39.588 -47.891  1.00  0.00     0.017 A 
HETATM   30  C   UNL     1     -30.688  39.957 -46.662  1.00  0.00     0.001 A 
HETATM   31  C   UNL     1     -30.987  39.224 -45.515  1.00  0.00     0.000 A 
HETATM   32  C   UNL     1     -31.839  38.122 -45.591  1.00  0.00     0.001 A 
HETATM   33  C   UNL     1     -32.390  37.747 -46.818  1.00  0.00     0.017 A 
ENDBRANCH  26  28
ENDBRANCH  25  26
ENDBRANCH  19  25
ENDBRANCH   9  16
BRANCH  11  34
HETATM   34  O   UNL     1     -38.669  41.461 -55.027  1.00  0.00    -0.344 OA
HETATM   35  H   UNL     1     -38.709  40.755 -55.695  1.00  0.00     0.219 HD
ENDBRANCH  11  34
BRANCH   1  36
HETATM   36  C   UNL     1     -36.809  39.725 -60.113  1.00  0.00     0.231 C 
HETATM   37  C   UNL     1     -37.691  39.227 -61.244  1.00  0.00     0.034 C 
ENDBRANCH   1  36
TORSDOF 8
ENDMDL
MODEL 10
REMARK VINA RESULT:      -7.0      3.458      9.419
REMARK  8 active torsions:
REMARK  status: ('A' for Active; 'I' for Inactive)
REMARK    1  A    between atoms: C_2  and  N_3 
REMARK    2  A    between atoms: C_11  and  C_12 
REMARK    3  A    between atoms: C_14  and  O_15 
REMARK    4  A    between atoms: O_15  and  C_16 
REMARK    5  A    between atoms: C_18  and  O_19 
REMARK    6  A    between atoms: O_19  and  C_20 
REMARK    7  A    between atoms: C_20  and  C_21 
REMARK    8  A    between atoms: C_31  and  O_32 
ROOT
HETATM    1  N   UNL     1     -39.740  53.214 -50.835  1.00  0.00    -0.067 N 
HETATM    2  H   UNL     1     -38.782  52.852 -50.765  1.00  0.00     0.280 HD
HETATM    3  C   UNL     1     -40.130  53.067 -52.309  1.00  0.00     0.281 C 
HETATM    4  C   UNL     1     -41.307  53.921 -52.631  1.00  0.00     0.018 A 
HETATM    5  C   UNL     1     -41.750  54.991 -51.870  1.00  0.00    -0.024 A 
HETATM    6  C   UNL     1     -42.909  55.589 -52.454  1.00  0.00     0.057 A 
HETATM    7  C   UNL     1     -43.260  54.970 -53.627  1.00  0.00     0.087 A 
HETATM    8  N   UNL     1     -44.317  55.375 -54.355  1.00  0.00    -0.357 N 
HETATM    9  C   UNL     1     -44.768  56.751 -54.137  1.00  0.00     0.243 C 
HETATM   10  N   UNL     1     -44.648  57.245 -52.746  1.00  0.00    -0.235 NA
HETATM   11  C   UNL     1     -43.747  56.681 -52.029  1.00  0.00     0.173 C 
HETATM   12  S   UNL     1     -42.247  53.671 -54.027  1.00  0.00    -0.074 SA
HETATM   13  C   UNL     1     -41.063  55.381 -50.594  1.00  0.00     0.068 C 
HETATM   14  C   UNL     1     -39.689  54.696 -50.456  1.00  0.00     0.240 C 
HETATM   15  H   UNL     1     -44.433  55.024 -55.300  1.00  0.00     0.162 HD
ENDROOT
BRANCH   9  16
HETATM   16  C   UNL     1     -44.081  57.674 -55.153  1.00  0.00    -0.012 A 
HETATM   17  C   UNL     1     -44.226  59.075 -55.104  1.00  0.00     0.050 A 
HETATM   18  C   UNL     1     -43.543  59.908 -55.994  1.00  0.00     0.103 A 
HETATM   19  C   UNL     1     -42.683  59.333 -56.939  1.00  0.00     0.112 A 
HETATM   20  C   UNL     1     -42.542  57.950 -57.028  1.00  0.00     0.041 A 
HETATM   21  C   UNL     1     -43.257  57.128 -56.156  1.00  0.00     0.014 A 
BRANCH  18  22
HETATM   22  O   UNL     1     -43.615  61.277 -55.977  1.00  0.00    -0.349 OA
BRANCH  22  23
HETATM   23  C   UNL     1     -44.088  61.865 -54.765  1.00  0.00     0.171 C 
HETATM   24  C   UNL     1     -42.924  61.932 -53.791  1.00  0.00     0.034 C 
ENDBRANCH  22  23
ENDBRANCH  18  22
BRANCH  19  25
HETATM   25  O   UNL     1     -41.909  60.227 -57.715  1.00  0.00    -0.272 OA
BRANCH  25  26
HETATM   26  C   UNL     1     -42.285  60.672 -58.971  1.00  0.00     0.298 C 
HETATM   27  O   UNL     1     -43.257  60.322 -59.620  1.00  0.00    -0.259 OA
BRANCH  26  28
HETATM   28  C   UNL     1     -41.259  61.630 -59.468  1.00  0.00     0.039 A 
HETATM   29  C   UNL     1     -41.184  61.860 -60.847  1.00  0.00     0.017 A 
HETATM   30  C   UNL     1     -40.221  62.731 -61.363  1.00  0.00     0.001 A 
HETATM   31  C   UNL     1     -39.336  63.380 -60.503  1.00  0.00     0.000 A 
HETATM   32  C   UNL     1     -39.412  63.165 -59.127  1.00  0.00     0.001 A 
HETATM   33  C   UNL     1     -40.371  62.292 -58.608  1.00  0.00     0.017 A 
ENDBRANCH  26  28
ENDBRANCH  25  26
ENDBRANCH  19  25
ENDBRANCH   9  16
BRANCH  11  34
HETATM   34  O   UNL     1     -43.555  57.129 -50.776  1.00  0.00    -0.344 OA
HETATM   35  H   UNL     1     -42.778  57.715 -50.809  1.00  0.00     0.219 HD
ENDBRANCH  11  34
BRANCH   1  36
HETATM   36  C   UNL     1     -40.600  52.342 -49.943  1.00  0.00     0.231 C 
HETATM   37  C   UNL     1     -40.328  50.870 -50.195  1.00  0.00     0.034 C 
ENDBRANCH   1  36
TORSDOF 8
ENDMDL
