MODEL 1
REMARK VINA RESULT:      -7.0      0.000      0.000
REMARK  2 active torsions:
REMARK  status: ('A' for Active; 'I' for Inactive)
REMARK    1  A    between atoms: N_6  and  C_7 
REMARK    2  A    between atoms: C_11  and  N_12 
ROOT
HETATM    1  C   UNL     1     -40.871  53.922 -52.928  1.00  0.00     0.048 A 
HETATM    2  C   UNL     1     -40.217  53.158 -51.929  1.00  0.00     0.040 A 
HETATM    3 BR   UNL     1     -39.903  53.867 -50.186  1.00  0.00    -0.049 Br
HETATM    4  C   UNL     1     -39.819  51.836 -52.156  1.00  0.00     0.057 A 
HETATM    5  C   UNL     1     -40.075  51.251 -53.398  1.00  0.00     0.104 A 
HETATM    6  C   UNL     1     -40.720  51.978 -54.404  1.00  0.00     0.038 A 
HETATM    7  C   UNL     1     -41.111  53.302 -54.166  1.00  0.00     0.033 A 
ENDROOT
BRANCH   1   8
HETATM    8  N   UNL     1     -41.258  55.248 -52.680  1.00  0.00    -0.377 N 
HETATM    9  C   UNL     1     -40.890  56.186 -53.762  1.00  0.00     0.150 C 
HETATM   10  C   UNL     1     -40.917  57.630 -53.216  1.00  0.00     0.254 C 
HETATM   11  N   UNL     1     -42.281  57.947 -52.591  1.00  0.00    -0.072 N 
HETATM   12  C   UNL     1     -42.326  59.343 -52.044  1.00  0.00     0.269 C 
HETATM   13  H   UNL     1     -42.980  57.882 -53.340  1.00  0.00     0.279 HD
HETATM   14  C   UNL     1     -42.657  56.910 -51.526  1.00  0.00     0.254 C 
HETATM   15  C   UNL     1     -42.595  55.480 -52.109  1.00  0.00     0.150 C 
ENDBRANCH   1   8
BRANCH   5  16
HETATM   16  N   UNL     1     -39.670  49.862 -53.646  1.00  0.00    -0.116 N 
HETATM   17  O   UNL     1     -39.567  49.496 -54.825  1.00  0.00    -0.532 OA
HETATM   18  O   UNL     1     -39.459  49.142 -52.660  1.00  0.00    -0.532 OA
ENDBRANCH   5  16
TORSDOF 2
ENDMDL
MODEL 2
REMARK VINA RESULT:      -6.6      1.623      2.110
REMARK  2 active torsions:
REMARK  status: ('A' for Active; 'I' for Inactive)
REMARK    1  A    between atoms: N_6  and  C_7 
REMARK    2  A    between atoms: C_11  and  N_12 
ROOT
HETATM    1  C   UNL     1     -40.793  53.821 -52.358  1.00  0.00     0.048 A 
HETATM    2  C   UNL     1     -40.700  53.452 -53.723  1.00  0.00     0.040 A 
HETATM    3 BR   UNL     1     -41.046  54.710 -55.115  1.00  0.00    -0.049 Br
HETATM    4  C   UNL     1     -40.300  52.170 -54.113  1.00  0.00     0.057 A 
HETATM    5  C   UNL     1     -39.981  51.228 -53.133  1.00  0.00     0.104 A 
HETATM    6  C   UNL     1     -40.062  51.562 -51.776  1.00  0.00     0.038 A 
HETATM    7  C   UNL     1     -40.466  52.848 -51.398  1.00  0.00     0.033 A 
ENDROOT
BRANCH   1   8
HETATM    8  N   UNL     1     -41.200  55.113 -51.988  1.00  0.00    -0.377 N 
HETATM    9  C   UNL     1     -42.632  55.380 -52.241  1.00  0.00     0.150 C 
HETATM   10  C   UNL     1     -42.872  56.904 -52.258  1.00  0.00     0.254 C 
HETATM   11  N   UNL     1     -42.367  57.547 -50.961  1.00  0.00    -0.072 N 
HETATM   12  C   UNL     1     -42.580  59.031 -50.961  1.00  0.00     0.269 C 
HETATM   13  H   UNL     1     -42.920  57.151 -50.192  1.00  0.00     0.279 HD
HETATM   14  C   UNL     1     -40.900  57.187 -50.699  1.00  0.00     0.254 C 
HETATM   15  C   UNL     1     -40.703  55.654 -50.713  1.00  0.00     0.150 C 
ENDBRANCH   1   8
BRANCH   5  16
HETATM   16  N   UNL     1     -39.552  49.881 -53.529  1.00  0.00    -0.116 N 
HETATM   17  O   UNL     1     -39.379  49.665 -54.736  1.00  0.00    -0.532 OA
HETATM   18  O   UNL     1     -39.393  49.044 -52.629  1.00  0.00    -0.532 OA
ENDBRANCH   5  16
TORSDOF 2
ENDMDL
MODEL 3
REMARK VINA RESULT:      -6.1      1.999      2.922
REMARK  2 active torsions:
REMARK  status: ('A' for Active; 'I' for Inactive)
REMARK    1  A    between atoms: N_6  and  C_7 
REMARK    2  A    between atoms: C_11  and  N_12 
ROOT
HETATM    1  C   UNL     1     -41.289  55.331 -51.745  1.00  0.00     0.048 A 
HETATM    2  C   UNL     1     -41.114  54.795 -53.045  1.00  0.00     0.040 A 
HETATM    3 BR   UNL     1     -41.546  55.812 -54.601  1.00  0.00    -0.049 Br
HETATM    4  C   UNL     1     -40.570  53.524 -53.251  1.00  0.00     0.057 A 
HETATM    5  C   UNL     1     -40.186  52.760 -52.146  1.00  0.00     0.104 A 
HETATM    6  C   UNL     1     -40.344  53.261 -50.850  1.00  0.00     0.038 A 
HETATM    7  C   UNL     1     -40.892  54.535 -50.657  1.00  0.00     0.033 A 
ENDROOT
BRANCH   1   8
HETATM    8  N   UNL     1     -41.840  56.608 -51.561  1.00  0.00    -0.377 N 
HETATM    9  C   UNL     1     -43.258  56.590 -51.144  1.00  0.00     0.150 C 
HETATM   10  C   UNL     1     -43.891  57.969 -51.424  1.00  0.00     0.254 C 
HETATM   11  N   UNL     1     -43.085  59.083 -50.744  1.00  0.00    -0.072 N 
HETATM   12  C   UNL     1     -43.677  60.435 -51.012  1.00  0.00     0.269 C 
HETATM   13  H   UNL     1     -43.133  58.916 -49.732  1.00  0.00     0.279 HD
HETATM   14  C   UNL     1     -41.608  59.023 -51.147  1.00  0.00     0.254 C 
HETATM   15  C   UNL     1     -41.022  57.619 -50.870  1.00  0.00     0.150 C 
ENDBRANCH   1   8
BRANCH   5  16
HETATM   16  N   UNL     1     -39.606  51.426 -52.349  1.00  0.00    -0.116 N 
HETATM   17  O   UNL     1     -39.572  50.662 -51.375  1.00  0.00    -0.532 OA
HETATM   18  O   UNL     1     -39.186  51.151 -53.481  1.00  0.00    -0.532 OA
ENDBRANCH   5  16
TORSDOF 2
ENDMDL
MODEL 4
REMARK VINA RESULT:      -6.1      1.434      1.859
REMARK  2 active torsions:
REMARK  status: ('A' for Active; 'I' for Inactive)
REMARK    1  A    between atoms: N_6  and  C_7 
REMARK    2  A    between atoms: C_11  and  N_12 
ROOT
HETATM    1  C   UNL     1     -41.437  54.904 -51.895  1.00  0.00     0.048 A 
HETATM    2  C   UNL     1     -40.895  54.157 -50.820  1.00  0.00     0.040 A 
HETATM    3 BR   UNL     1     -41.072  54.748 -49.015  1.00  0.00    -0.049 Br
HETATM    4  C   UNL     1     -40.255  52.930 -51.024  1.00  0.00     0.057 A 
HETATM    5  C   UNL     1     -40.148  52.426 -52.322  1.00  0.00     0.104 A 
HETATM    6  C   UNL     1     -40.673  53.139 -53.405  1.00  0.00     0.038 A 
HETATM    7  C   UNL     1     -41.309  54.367 -53.188  1.00  0.00     0.033 A 
ENDROOT
BRANCH   1   8
HETATM    8  N   UNL     1     -42.071  56.135 -51.668  1.00  0.00    -0.377 N 
HETATM    9  C   UNL     1     -41.269  57.304 -52.086  1.00  0.00     0.150 C 
HETATM   10  C   UNL     1     -41.809  58.570 -51.388  1.00  0.00     0.254 C 
HETATM   11  N   UNL     1     -43.307  58.746 -51.667  1.00  0.00    -0.072 N 
HETATM   12  C   UNL     1     -43.856  59.965 -50.988  1.00  0.00     0.269 C 
HETATM   13  H   UNL     1     -43.412  58.877 -52.680  1.00  0.00     0.279 HD
HETATM   14  C   UNL     1     -44.093  57.485 -51.287  1.00  0.00     0.254 C 
HETATM   15  C   UNL     1     -43.504  56.241 -51.990  1.00  0.00     0.150 C 
ENDBRANCH   1   8
BRANCH   5  16
HETATM   16  N   UNL     1     -39.485  51.135 -52.549  1.00  0.00    -0.116 N 
HETATM   17  O   UNL     1     -39.240  50.433 -51.559  1.00  0.00    -0.532 OA
HETATM   18  O   UNL     1     -39.211  50.832 -53.719  1.00  0.00    -0.532 OA
ENDBRANCH   5  16
TORSDOF 2
ENDMDL
MODEL 5
REMARK VINA RESULT:      -5.8      3.534      4.721
REMARK  2 active torsions:
REMARK  status: ('A' for Active; 'I' for Inactive)
REMARK    1  A    between atoms: N_6  and  C_7 
REMARK    2  A    between atoms: C_11  and  N_12 
ROOT
HETATM    1  C   UNL     1     -41.917  55.016 -52.865  1.00  0.00     0.048 A 
HETATM    2  C   UNL     1     -41.086  53.909 -52.560  1.00  0.00     0.040 A 
HETATM    3 BR   UNL     1     -40.313  52.842 -53.940  1.00  0.00    -0.049 Br
HETATM    4  C   UNL     1     -40.751  53.580 -51.243  1.00  0.00     0.057 A 
HETATM    5  C   UNL     1     -41.246  54.364 -50.198  1.00  0.00     0.104 A 
HETATM    6  C   UNL     1     -42.068  55.464 -50.465  1.00  0.00     0.038 A 
HETATM    7  C   UNL     1     -42.399  55.781 -51.789  1.00  0.00     0.033 A 
ENDROOT
BRANCH   1   8
HETATM    8  N   UNL     1     -42.244  55.326 -54.194  1.00  0.00    -0.377 N 
HETATM    9  C   UNL     1     -43.337  54.498 -54.746  1.00  0.00     0.150 C 
HETATM   10  C   UNL     1     -43.303  54.570 -56.287  1.00  0.00     0.254 C 
HETATM   11  N   UNL     1     -43.360  56.026 -56.764  1.00  0.00    -0.072 N 
HETATM   12  C   UNL     1     -43.317  56.120 -58.260  1.00  0.00     0.269 C 
HETATM   13  H   UNL     1     -44.260  56.411 -56.452  1.00  0.00     0.279 HD
HETATM   14  C   UNL     1     -42.255  56.866 -56.113  1.00  0.00     0.254 C 
HETATM   15  C   UNL     1     -42.314  56.747 -54.573  1.00  0.00     0.150 C 
ENDBRANCH   1   8
BRANCH   5  16
HETATM   16  N   UNL     1     -40.896  54.034 -48.811  1.00  0.00    -0.116 N 
HETATM   17  O   UNL     1     -40.552  52.870 -48.567  1.00  0.00    -0.532 OA
HETATM   18  O   UNL     1     -40.970  54.942 -47.971  1.00  0.00    -0.532 OA
ENDBRANCH   5  16
TORSDOF 2
ENDMDL
MODEL 6
REMARK VINA RESULT:      -5.8      3.772      4.709
REMARK  2 active torsions:
REMARK  status: ('A' for Active; 'I' for Inactive)
REMARK    1  A    between atoms: N_6  and  C_7 
REMARK    2  A    between atoms: C_11  and  N_12 
ROOT
HETATM    1  C   UNL     1     -42.430  55.615 -52.883  1.00  0.00     0.048 A 
HETATM    2  C   UNL     1     -41.552  56.392 -52.088  1.00  0.00     0.040 A 
HETATM    3 BR   UNL     1     -41.026  58.148 -52.619  1.00  0.00    -0.049 Br
HETATM    4  C   UNL     1     -41.072  55.934 -50.857  1.00  0.00     0.057 A 
HETATM    5  C   UNL     1     -41.472  54.677 -50.396  1.00  0.00     0.104 A 
HETATM    6  C   UNL     1     -42.339  53.886 -51.157  1.00  0.00     0.038 A 
HETATM    7  C   UNL     1     -42.810  54.356 -52.389  1.00  0.00     0.033 A 
ENDROOT
BRANCH   1   8
HETATM    8  N   UNL     1     -42.896  56.094 -54.118  1.00  0.00    -0.377 N 
HETATM    9  C   UNL     1     -42.627  55.181 -55.249  1.00  0.00     0.150 C 
HETATM   10  C   UNL     1     -42.732  55.966 -56.574  1.00  0.00     0.254 C 
HETATM   11  N   UNL     1     -44.093  56.665 -56.683  1.00  0.00    -0.072 N 
HETATM   12  C   UNL     1     -44.212  57.443 -57.960  1.00  0.00     0.269 C 
HETATM   13  H   UNL     1     -44.810  55.930 -56.697  1.00  0.00     0.279 HD
HETATM   14  C   UNL     1     -44.364  57.544 -55.458  1.00  0.00     0.254 C 
HETATM   15  C   UNL     1     -44.226  56.724 -54.155  1.00  0.00     0.150 C 
ENDBRANCH   1   8
BRANCH   5  16
HETATM   16  N   UNL     1     -40.982  54.186 -49.102  1.00  0.00    -0.116 N 
HETATM   17  O   UNL     1     -41.046  54.956 -48.135  1.00  0.00    -0.532 OA
HETATM   18  O   UNL     1     -40.534  53.032 -49.060  1.00  0.00    -0.532 OA
ENDBRANCH   5  16
TORSDOF 2
ENDMDL
MODEL 7
REMARK VINA RESULT:      -5.7      2.202      3.014
REMARK  2 active torsions:
REMARK  status: ('A' for Active; 'I' for Inactive)
REMARK    1  A    between atoms: N_6  and  C_7 
REMARK    2  A    between atoms: C_11  and  N_12 
ROOT
HETATM    1  C   UNL     1     -41.975  55.211 -53.050  1.00  0.00     0.048 A 
HETATM    2  C   UNL     1     -41.978  54.408 -54.218  1.00  0.00     0.040 A 
HETATM    3 BR   UNL     1     -42.860  54.981 -55.810  1.00  0.00    -0.049 Br
HETATM    4  C   UNL     1     -41.295  53.189 -54.277  1.00  0.00     0.057 A 
HETATM    5  C   UNL     1     -40.587  52.751 -53.155  1.00  0.00     0.104 A 
HETATM    6  C   UNL     1     -40.563  53.520 -51.987  1.00  0.00     0.038 A 
HETATM    7  C   UNL     1     -41.254  54.737 -51.940  1.00  0.00     0.033 A 
ENDROOT
BRANCH   1   8
HETATM    8  N   UNL     1     -42.670  56.429 -53.012  1.00  0.00    -0.377 N 
HETATM    9  C   UNL     1     -43.609  56.542 -51.876  1.00  0.00     0.150 C 
HETATM   10  C   UNL     1     -44.637  57.655 -52.171  1.00  0.00     0.254 C 
HETATM   11  N   UNL     1     -43.927  58.976 -52.491  1.00  0.00    -0.072 N 
HETATM   12  C   UNL     1     -44.907  60.071 -52.793  1.00  0.00     0.269 C 
HETATM   13  H   UNL     1     -43.402  59.249 -51.651  1.00  0.00     0.279 HD
HETATM   14  C   UNL     1     -42.911  58.799 -53.625  1.00  0.00     0.254 C 
HETATM   15  C   UNL     1     -41.918  57.662 -53.297  1.00  0.00     0.150 C 
ENDBRANCH   1   8
BRANCH   5  16
HETATM   16  N   UNL     1     -39.859  51.477 -53.206  1.00  0.00    -0.116 N 
HETATM   17  O   UNL     1     -39.133  51.193 -52.244  1.00  0.00    -0.532 OA
HETATM   18  O   UNL     1     -40.017  50.767 -54.209  1.00  0.00    -0.532 OA
ENDBRANCH   5  16
TORSDOF 2
ENDMDL
MODEL 8
REMARK VINA RESULT:      -5.5      3.992      6.570
REMARK  2 active torsions:
REMARK  status: ('A' for Active; 'I' for Inactive)
REMARK    1  A    between atoms: N_6  and  C_7 
REMARK    2  A    between atoms: C_11  and  N_12 
ROOT
HETATM    1  C   UNL     1     -41.384  55.081 -52.988  1.00  0.00     0.048 A 
HETATM    2  C   UNL     1     -42.519  55.488 -52.243  1.00  0.00     0.040 A 
HETATM    3 BR   UNL     1     -43.431  54.275 -51.086  1.00  0.00    -0.049 Br
HETATM    4  C   UNL     1     -42.990  56.804 -52.278  1.00  0.00     0.057 A 
HETATM    5  C   UNL     1     -42.324  57.745 -53.067  1.00  0.00     0.104 A 
HETATM    6  C   UNL     1     -41.200  57.375 -53.814  1.00  0.00     0.038 A 
HETATM    7  C   UNL     1     -40.740  56.053 -53.772  1.00  0.00     0.033 A 
ENDROOT
BRANCH   1   8
HETATM    8  N   UNL     1     -40.931  53.753 -52.940  1.00  0.00    -0.377 N 
HETATM    9  C   UNL     1     -40.543  53.210 -54.260  1.00  0.00     0.150 C 
HETATM   10  C   UNL     1     -40.521  51.668 -54.190  1.00  0.00     0.254 C 
HETATM   11  N   UNL     1     -39.605  51.190 -53.057  1.00  0.00    -0.072 N 
HETATM   12  C   UNL     1     -39.576  49.694 -52.963  1.00  0.00     0.269 C 
HETATM   13  H   UNL     1     -38.654  51.508 -53.282  1.00  0.00     0.279 HD
HETATM   14  C   UNL     1     -39.995  51.833 -51.721  1.00  0.00     0.254 C 
HETATM   15  C   UNL     1     -40.026  53.373 -51.843  1.00  0.00     0.150 C 
ENDBRANCH   1   8
BRANCH   5  16
HETATM   16  N   UNL     1     -42.803  59.132 -53.107  1.00  0.00    -0.116 N 
HETATM   17  O   UNL     1     -41.990  60.028 -52.845  1.00  0.00    -0.532 OA
HETATM   18  O   UNL     1     -43.993  59.317 -53.399  1.00  0.00    -0.532 OA
ENDBRANCH   5  16
TORSDOF 2
ENDMDL
MODEL 9
REMARK VINA RESULT:      -5.4     14.559     15.788
REMARK  2 active torsions:
REMARK  status: ('A' for Active; 'I' for Inactive)
REMARK    1  A    between atoms: N_6  and  C_7 
REMARK    2  A    between atoms: C_11  and  N_12 
ROOT
HETATM    1  C   UNL     1     -34.998  40.677 -56.204  1.00  0.00     0.048 A 
HETATM    2  C   UNL     1     -35.262  39.580 -57.061  1.00  0.00     0.040 A 
HETATM    3 BR   UNL     1     -34.709  37.811 -56.606  1.00  0.00    -0.049 Br
HETATM    4  C   UNL     1     -35.984  39.730 -58.250  1.00  0.00     0.057 A 
HETATM    5  C   UNL     1     -36.459  40.996 -58.601  1.00  0.00     0.104 A 
HETATM    6  C   UNL     1     -36.216  42.099 -57.776  1.00  0.00     0.038 A 
HETATM    7  C   UNL     1     -35.490  41.935 -56.590  1.00  0.00     0.033 A 
ENDROOT
BRANCH   1   8
HETATM    8  N   UNL     1     -34.268  40.503 -55.018  1.00  0.00    -0.377 N 
HETATM    9  C   UNL     1     -32.806  40.642 -55.193  1.00  0.00     0.150 C 
HETATM   10  C   UNL     1     -32.084  39.987 -53.997  1.00  0.00     0.254 C 
HETATM   11  N   UNL     1     -32.584  40.577 -52.673  1.00  0.00    -0.072 N 
HETATM   12  C   UNL     1     -31.903  39.946 -51.495  1.00  0.00     0.269 C 
HETATM   13  H   UNL     1     -32.342  41.575 -52.676  1.00  0.00     0.279 HD
HETATM   14  C   UNL     1     -34.110  40.479 -52.563  1.00  0.00     0.254 C 
HETATM   15  C   UNL     1     -34.790  41.126 -53.790  1.00  0.00     0.150 C 
ENDBRANCH   1   8
BRANCH   5  16
HETATM   16  N   UNL     1     -37.225  41.167 -59.842  1.00  0.00    -0.116 N 
HETATM   17  O   UNL     1     -37.588  40.145 -60.439  1.00  0.00    -0.532 OA
HETATM   18  O   UNL     1     -37.457  42.325 -60.216  1.00  0.00    -0.532 OA
ENDBRANCH   5  16
TORSDOF 2
ENDMDL
MODEL 10
REMARK VINA RESULT:      -5.4      2.985      3.886
REMARK  2 active torsions:
REMARK  status: ('A' for Active; 'I' for Inactive)
REMARK    1  A    between atoms: N_6  and  C_7 
REMARK    2  A    between atoms: C_11  and  N_12 
ROOT
HETATM    1  C   UNL     1     -41.942  55.603 -52.759  1.00  0.00     0.048 A 
HETATM    2  C   UNL     1     -41.058  54.564 -53.143  1.00  0.00     0.040 A 
HETATM    3 BR   UNL     1     -40.386  54.443 -54.924  1.00  0.00    -0.049 Br
HETATM    4  C   UNL     1     -40.597  53.613 -52.227  1.00  0.00     0.057 A 
HETATM    5  C   UNL     1     -41.016  53.690 -50.897  1.00  0.00     0.104 A 
HETATM    6  C   UNL     1     -41.887  54.704 -50.486  1.00  0.00     0.038 A 
HETATM    7  C   UNL     1     -42.344  55.649 -51.413  1.00  0.00     0.033 A 
ENDROOT
BRANCH   1   8
HETATM    8  N   UNL     1     -42.395  56.544 -53.696  1.00  0.00    -0.377 N 
HETATM    9  C   UNL     1     -43.868  56.596 -53.823  1.00  0.00     0.150 C 
HETATM   10  C   UNL     1     -44.241  57.276 -55.157  1.00  0.00     0.254 C 
HETATM   11  N   UNL     1     -43.586  58.658 -55.263  1.00  0.00    -0.072 N 
HETATM   12  C   UNL     1     -43.927  59.334 -56.558  1.00  0.00     0.269 C 
HETATM   13  H   UNL     1     -43.967  59.232 -54.501  1.00  0.00     0.279 HD
HETATM   14  C   UNL     1     -42.070  58.570 -55.054  1.00  0.00     0.254 C 
HETATM   15  C   UNL     1     -41.742  57.864 -53.719  1.00  0.00     0.150 C 
ENDBRANCH   1   8
BRANCH   5  16
HETATM   16  N   UNL     1     -40.534  52.703 -49.923  1.00  0.00    -0.116 N 
HETATM   17  O   UNL     1     -40.499  53.040 -48.732  1.00  0.00    -0.532 OA
HETATM   18  O   UNL     1     -40.189  51.594 -50.355  1.00  0.00    -0.532 OA
ENDBRANCH   5  16
TORSDOF 2
ENDMDL
