MODEL 1
REMARK VINA RESULT:      -7.9      0.000      0.000
REMARK  6 active torsions:
REMARK  status: ('A' for Active; 'I' for Inactive)
REMARK    1  A    between atoms: C_2  and  C_3 
REMARK    2  A    between atoms: C_3  and  O_4 
REMARK    3  A    between atoms: O_4  and  C_5 
REMARK    4  A    between atoms: C_6  and  O_7 
REMARK    5  A    between atoms: C_10  and  C_11 
REMARK    6  A    between atoms: C_25  and  O_26 
ROOT
HETATM    1  C   UNL     1     -43.688  55.819 -53.481  1.00  0.00     0.269 C 
HETATM    2  N   UNL     1     -44.228  56.190 -52.119  1.00  0.00    -0.061 N 
HETATM    3  H   UNL     1     -44.925  55.483 -51.865  1.00  0.00     0.278 HD
HETATM    4  H   UNL     1     -44.719  57.087 -52.195  1.00  0.00     0.278 HD
HETATM    5  C   UNL     1     -43.195  56.264 -51.019  1.00  0.00     0.238 C 
HETATM    6  C   UNL     1     -42.517  54.897 -50.810  1.00  0.00     0.069 C 
HETATM    7  C   UNL     1     -42.121  54.313 -52.122  1.00  0.00    -0.019 A 
HETATM    8  C   UNL     1     -42.659  54.755 -53.316  1.00  0.00     0.052 A 
HETATM    9  N   UNL     1     -42.089  54.031 -54.332  1.00  0.00    -0.356 N 
HETATM   10  H   UNL     1     -42.262  54.137 -55.325  1.00  0.00     0.166 HD
HETATM   11  C   UNL     1     -41.216  53.103 -53.804  1.00  0.00     0.043 A 
HETATM   12  C   UNL     1     -41.224  53.255 -52.417  1.00  0.00     0.002 A 
HETATM   13  C   UNL     1     -40.427  52.143 -54.447  1.00  0.00     0.033 A 
HETATM   14  C   UNL     1     -39.642  51.300 -53.649  1.00  0.00     0.039 A 
HETATM   15  C   UNL     1     -39.641  51.415 -52.260  1.00  0.00     0.069 A 
HETATM   16  C   UNL     1     -40.421  52.400 -51.640  1.00  0.00     0.051 A 
ENDROOT
BRANCH   1  17
HETATM   17  C   UNL     1     -43.250  57.053 -54.244  1.00  0.00    -0.019 A 
HETATM   18  C   UNL     1     -42.190  57.816 -53.729  1.00  0.00     0.049 A 
HETATM   19  C   UNL     1     -41.725  58.940 -54.415  1.00  0.00     0.102 A 
HETATM   20  C   UNL     1     -42.274  59.321 -55.645  1.00  0.00     0.102 A 
HETATM   21  C   UNL     1     -43.322  58.562 -56.166  1.00  0.00     0.040 A 
HETATM   22  C   UNL     1     -43.804  57.438 -55.475  1.00  0.00     0.012 A 
BRANCH  19  23
HETATM   23  O   UNL     1     -40.645  59.603 -53.892  1.00  0.00    -0.353 OA
HETATM   24  C   UNL     1     -40.117  58.890 -52.774  1.00  0.00     0.210 C 
ENDBRANCH  19  23
BRANCH  20  25
HETATM   25  O   UNL     1     -41.721  60.423 -56.236  1.00  0.00    -0.348 OA
BRANCH  25  26
HETATM   26  C   UNL     1     -41.707  60.482 -57.663  1.00  0.00     0.175 C 
BRANCH  26  27
HETATM   27  C   UNL     1     -41.627  61.951 -58.069  1.00  0.00     0.022 C 
HETATM   28  C   UNL     1     -40.312  62.280 -58.752  1.00  0.00     0.007 C 
ENDBRANCH  26  27
ENDBRANCH  25  26
ENDBRANCH  20  25
ENDBRANCH   1  17
BRANCH  15  29
HETATM   29  O   UNL     1     -38.926  50.637 -51.390  1.00  0.00    -0.356 OA
HETATM   30  C   UNL     1     -39.652  49.662 -50.650  1.00  0.00     0.210 C 
ENDBRANCH  15  29
TORSDOF 6
ENDMDL
MODEL 2
REMARK VINA RESULT:      -7.8      3.057      7.989
REMARK  6 active torsions:
REMARK  status: ('A' for Active; 'I' for Inactive)
REMARK    1  A    between atoms: C_2  and  C_3 
REMARK    2  A    between atoms: C_3  and  O_4 
REMARK    3  A    between atoms: O_4  and  C_5 
REMARK    4  A    between atoms: C_6  and  O_7 
REMARK    5  A    between atoms: C_10  and  C_11 
REMARK    6  A    between atoms: C_25  and  O_26 
ROOT
HETATM    1  C   UNL     1     -41.855  57.084 -54.784  1.00  0.00     0.269 C 
HETATM    2  N   UNL     1     -42.681  57.871 -53.793  1.00  0.00    -0.061 N 
HETATM    3  H   UNL     1     -42.529  58.865 -53.991  1.00  0.00     0.278 HD
HETATM    4  H   UNL     1     -42.320  57.690 -52.850  1.00  0.00     0.278 HD
HETATM    5  C   UNL     1     -44.165  57.593 -53.835  1.00  0.00     0.238 C 
HETATM    6  C   UNL     1     -44.754  57.960 -55.209  1.00  0.00     0.069 C 
HETATM    7  C   UNL     1     -43.896  57.414 -56.298  1.00  0.00    -0.019 A 
HETATM    8  C   UNL     1     -42.591  57.017 -56.077  1.00  0.00     0.052 A 
HETATM    9  N   UNL     1     -42.080  56.558 -57.264  1.00  0.00    -0.356 N 
HETATM   10  H   UNL     1     -41.154  56.178 -57.421  1.00  0.00     0.166 HD
HETATM   11  C   UNL     1     -43.029  56.688 -58.257  1.00  0.00     0.043 A 
HETATM   12  C   UNL     1     -44.177  57.231 -57.676  1.00  0.00     0.002 A 
HETATM   13  C   UNL     1     -42.957  56.371 -59.617  1.00  0.00     0.033 A 
HETATM   14  C   UNL     1     -44.081  56.638 -60.412  1.00  0.00     0.039 A 
HETATM   15  C   UNL     1     -45.236  57.196 -59.866  1.00  0.00     0.069 A 
HETATM   16  C   UNL     1     -45.293  57.482 -58.496  1.00  0.00     0.051 A 
ENDROOT
BRANCH   1  17
HETATM   17  C   UNL     1     -41.424  55.756 -54.196  1.00  0.00    -0.019 A 
HETATM   18  C   UNL     1     -41.899  55.401 -52.924  1.00  0.00     0.049 A 
HETATM   19  C   UNL     1     -41.562  54.171 -52.357  1.00  0.00     0.102 A 
HETATM   20  C   UNL     1     -40.771  53.244 -53.045  1.00  0.00     0.102 A 
HETATM   21  C   UNL     1     -40.301  53.587 -54.313  1.00  0.00     0.040 A 
HETATM   22  C   UNL     1     -40.626  54.828 -54.885  1.00  0.00     0.012 A 
BRANCH  19  23
HETATM   23  O   UNL     1     -42.113  53.859 -51.140  1.00  0.00    -0.353 OA
HETATM   24  C   UNL     1     -43.461  54.321 -51.071  1.00  0.00     0.210 C 
ENDBRANCH  19  23
BRANCH  20  25
HETATM   25  O   UNL     1     -40.527  52.064 -52.400  1.00  0.00    -0.348 OA
BRANCH  25  26
HETATM   26  C   UNL     1     -39.299  51.389 -52.679  1.00  0.00     0.175 C 
BRANCH  26  27
HETATM   27  C   UNL     1     -39.639  49.970 -53.128  1.00  0.00     0.022 C 
HETATM   28  C   UNL     1     -39.939  49.902 -54.615  1.00  0.00     0.007 C 
ENDBRANCH  26  27
ENDBRANCH  25  26
ENDBRANCH  20  25
ENDBRANCH   1  17
BRANCH  15  29
HETATM   29  O   UNL     1     -46.378  57.507 -60.552  1.00  0.00    -0.356 OA
HETATM   30  C   UNL     1     -47.218  56.423 -60.933  1.00  0.00     0.210 C 
ENDBRANCH  15  29
TORSDOF 6
ENDMDL
MODEL 3
REMARK VINA RESULT:      -7.6      1.252      1.393
REMARK  6 active torsions:
REMARK  status: ('A' for Active; 'I' for Inactive)
REMARK    1  A    between atoms: C_2  and  C_3 
REMARK    2  A    between atoms: C_3  and  O_4 
REMARK    3  A    between atoms: O_4  and  C_5 
REMARK    4  A    between atoms: C_6  and  O_7 
REMARK    5  A    between atoms: C_10  and  C_11 
REMARK    6  A    between atoms: C_25  and  O_26 
ROOT
HETATM    1  C   UNL     1     -43.709  55.809 -54.696  1.00  0.00     0.269 C 
HETATM    2  N   UNL     1     -44.481  56.368 -53.523  1.00  0.00    -0.061 N 
HETATM    3  H   UNL     1     -45.204  55.683 -53.280  1.00  0.00     0.278 HD
HETATM    4  H   UNL     1     -44.960  57.223 -53.824  1.00  0.00     0.278 HD
HETATM    5  C   UNL     1     -43.655  56.652 -52.291  1.00  0.00     0.238 C 
HETATM    6  C   UNL     1     -43.009  55.362 -51.752  1.00  0.00     0.069 C 
HETATM    7  C   UNL     1     -42.385  54.596 -52.868  1.00  0.00    -0.019 A 
HETATM    8  C   UNL     1     -42.713  54.824 -54.191  1.00  0.00     0.052 A 
HETATM    9  N   UNL     1     -41.967  53.973 -54.966  1.00  0.00    -0.356 N 
HETATM   10  H   UNL     1     -41.967  53.915 -55.978  1.00  0.00     0.166 HD
HETATM   11  C   UNL     1     -41.189  53.173 -54.156  1.00  0.00     0.043 A 
HETATM   12  C   UNL     1     -41.439  53.539 -52.832  1.00  0.00     0.002 A 
HETATM   13  C   UNL     1     -40.290  52.155 -54.493  1.00  0.00     0.033 A 
HETATM   14  C   UNL     1     -39.647  51.478 -53.448  1.00  0.00     0.039 A 
HETATM   15  C   UNL     1     -39.888  51.809 -52.116  1.00  0.00     0.069 A 
HETATM   16  C   UNL     1     -40.774  52.848 -51.803  1.00  0.00     0.051 A 
ENDROOT
BRANCH   1  17
HETATM   17  C   UNL     1     -43.158  56.925 -55.562  1.00  0.00    -0.019 A 
HETATM   18  C   UNL     1     -42.694  58.091 -54.935  1.00  0.00     0.049 A 
HETATM   19  C   UNL     1     -42.142  59.131 -55.686  1.00  0.00     0.102 A 
HETATM   20  C   UNL     1     -42.006  59.032 -57.075  1.00  0.00     0.102 A 
HETATM   21  C   UNL     1     -42.459  57.872 -57.704  1.00  0.00     0.040 A 
HETATM   22  C   UNL     1     -43.026  56.827 -56.957  1.00  0.00     0.012 A 
BRANCH  19  23
HETATM   23  O   UNL     1     -41.647  60.214 -55.006  1.00  0.00    -0.353 OA
HETATM   24  C   UNL     1     -42.027  60.156 -53.632  1.00  0.00     0.210 C 
ENDBRANCH  19  23
BRANCH  20  25
HETATM   25  O   UNL     1     -41.428  60.101 -57.702  1.00  0.00    -0.348 OA
BRANCH  25  26
HETATM   26  C   UNL     1     -42.276  60.985 -58.438  1.00  0.00     0.175 C 
BRANCH  26  27
HETATM   27  C   UNL     1     -41.650  61.193 -59.814  1.00  0.00     0.022 C 
HETATM   28  C   UNL     1     -41.957  60.045 -60.758  1.00  0.00     0.007 C 
ENDBRANCH  26  27
ENDBRANCH  25  26
ENDBRANCH  20  25
ENDBRANCH   1  17
BRANCH  15  29
HETATM   29  O   UNL     1     -39.326  51.204 -51.024  1.00  0.00    -0.356 OA
HETATM   30  C   UNL     1     -39.595  49.818 -50.844  1.00  0.00     0.210 C 
ENDBRANCH  15  29
TORSDOF 6
ENDMDL
MODEL 4
REMARK VINA RESULT:      -7.6      1.610      2.399
REMARK  6 active torsions:
REMARK  status: ('A' for Active; 'I' for Inactive)
REMARK    1  A    between atoms: C_2  and  C_3 
REMARK    2  A    between atoms: C_3  and  O_4 
REMARK    3  A    between atoms: O_4  and  C_5 
REMARK    4  A    between atoms: C_6  and  O_7 
REMARK    5  A    between atoms: C_10  and  C_11 
REMARK    6  A    between atoms: C_25  and  O_26 
ROOT
HETATM    1  C   UNL     1     -43.614  55.790 -54.734  1.00  0.00     0.269 C 
HETATM    2  N   UNL     1     -44.322  56.408 -53.550  1.00  0.00    -0.061 N 
HETATM    3  H   UNL     1     -45.056  55.754 -53.259  1.00  0.00     0.278 HD
HETATM    4  H   UNL     1     -44.787  57.267 -53.860  1.00  0.00     0.278 HD
HETATM    5  C   UNL     1     -43.441  56.703 -52.360  1.00  0.00     0.238 C 
HETATM    6  C   UNL     1     -42.814  55.411 -51.806  1.00  0.00     0.069 C 
HETATM    7  C   UNL     1     -42.257  54.591 -52.919  1.00  0.00    -0.019 A 
HETATM    8  C   UNL     1     -42.629  54.790 -54.235  1.00  0.00     0.052 A 
HETATM    9  N   UNL     1     -41.940  53.892 -55.011  1.00  0.00    -0.356 N 
HETATM   10  H   UNL     1     -41.981  53.804 -56.020  1.00  0.00     0.166 HD
HETATM   11  C   UNL     1     -41.155  53.093 -54.206  1.00  0.00     0.043 A 
HETATM   12  C   UNL     1     -41.342  53.508 -52.887  1.00  0.00     0.002 A 
HETATM   13  C   UNL     1     -40.301  52.039 -54.545  1.00  0.00     0.033 A 
HETATM   14  C   UNL     1     -39.638  51.373 -53.505  1.00  0.00     0.039 A 
HETATM   15  C   UNL     1     -39.817  51.752 -52.175  1.00  0.00     0.069 A 
HETATM   16  C   UNL     1     -40.659  52.827 -51.862  1.00  0.00     0.051 A 
ENDROOT
BRANCH   1  17
HETATM   17  C   UNL     1     -43.064  56.860 -55.655  1.00  0.00    -0.019 A 
HETATM   18  C   UNL     1     -43.016  56.598 -57.032  1.00  0.00     0.049 A 
HETATM   19  C   UNL     1     -42.554  57.567 -57.925  1.00  0.00     0.102 A 
HETATM   20  C   UNL     1     -42.155  58.834 -57.482  1.00  0.00     0.102 A 
HETATM   21  C   UNL     1     -42.207  59.104 -56.114  1.00  0.00     0.040 A 
HETATM   22  C   UNL     1     -42.659  58.130 -55.209  1.00  0.00     0.012 A 
BRANCH  19  23
HETATM   23  O   UNL     1     -42.595  57.271 -59.263  1.00  0.00    -0.353 OA
HETATM   24  C   UNL     1     -42.890  55.889 -59.459  1.00  0.00     0.210 C 
ENDBRANCH  19  23
BRANCH  20  25
HETATM   25  O   UNL     1     -41.745  59.709 -58.449  1.00  0.00    -0.348 OA
BRANCH  25  26
HETATM   26  C   UNL     1     -41.788  61.105 -58.152  1.00  0.00     0.175 C 
BRANCH  26  27
HETATM   27  C   UNL     1     -41.180  61.853 -59.335  1.00  0.00     0.022 C 
HETATM   28  C   UNL     1     -39.896  62.569 -58.955  1.00  0.00     0.007 C 
ENDBRANCH  26  27
ENDBRANCH  25  26
ENDBRANCH  20  25
ENDBRANCH   1  17
BRANCH  15  29
HETATM   29  O   UNL     1     -39.231  51.164 -51.087  1.00  0.00    -0.356 OA
HETATM   30  C   UNL     1     -39.592  49.815 -50.810  1.00  0.00     0.210 C 
ENDBRANCH  15  29
TORSDOF 6
ENDMDL
MODEL 5
REMARK VINA RESULT:      -7.2      2.406      7.954
REMARK  6 active torsions:
REMARK  status: ('A' for Active; 'I' for Inactive)
REMARK    1  A    between atoms: C_2  and  C_3 
REMARK    2  A    between atoms: C_3  and  O_4 
REMARK    3  A    between atoms: O_4  and  C_5 
REMARK    4  A    between atoms: C_6  and  O_7 
REMARK    5  A    between atoms: C_10  and  C_11 
REMARK    6  A    between atoms: C_25  and  O_26 
ROOT
HETATM    1  C   UNL     1     -41.869  57.194 -51.892  1.00  0.00     0.269 C 
HETATM    2  N   UNL     1     -42.880  57.435 -50.795  1.00  0.00    -0.061 N 
HETATM    3  H   UNL     1     -42.802  58.419 -50.518  1.00  0.00     0.278 HD
HETATM    4  H   UNL     1     -42.620  56.869 -49.980  1.00  0.00     0.278 HD
HETATM    5  C   UNL     1     -44.315  57.155 -51.174  1.00  0.00     0.238 C 
HETATM    6  C   UNL     1     -44.768  58.070 -52.326  1.00  0.00     0.069 C 
HETATM    7  C   UNL     1     -43.737  58.090 -53.402  1.00  0.00    -0.019 A 
HETATM    8  C   UNL     1     -42.436  57.680 -53.181  1.00  0.00     0.052 A 
HETATM    9  N   UNL     1     -41.744  57.809 -54.359  1.00  0.00    -0.356 N 
HETATM   10  H   UNL     1     -40.773  57.568 -54.523  1.00  0.00     0.166 HD
HETATM   11  C   UNL     1     -42.575  58.331 -55.327  1.00  0.00     0.043 A 
HETATM   12  C   UNL     1     -43.831  58.524 -54.749  1.00  0.00     0.002 A 
HETATM   13  C   UNL     1     -42.310  58.650 -56.664  1.00  0.00     0.033 A 
HETATM   14  C   UNL     1     -43.351  59.202 -57.424  1.00  0.00     0.039 A 
HETATM   15  C   UNL     1     -44.611  59.423 -56.870  1.00  0.00     0.069 A 
HETATM   16  C   UNL     1     -44.859  59.073 -55.537  1.00  0.00     0.051 A 
ENDROOT
BRANCH   1  17
HETATM   17  C   UNL     1     -41.387  55.758 -51.878  1.00  0.00    -0.019 A 
HETATM   18  C   UNL     1     -40.867  55.238 -50.683  1.00  0.00     0.049 A 
HETATM   19  C   UNL     1     -40.445  53.909 -50.610  1.00  0.00     0.102 A 
HETATM   20  C   UNL     1     -40.556  53.049 -51.708  1.00  0.00     0.102 A 
HETATM   21  C   UNL     1     -41.080  53.557 -52.897  1.00  0.00     0.040 A 
HETATM   22  C   UNL     1     -41.494  54.896 -52.982  1.00  0.00     0.012 A 
BRANCH  19  23
HETATM   23  O   UNL     1     -40.008  53.446 -49.395  1.00  0.00    -0.353 OA
HETATM   24  C   UNL     1     -40.552  54.234 -48.337  1.00  0.00     0.210 C 
ENDBRANCH  19  23
BRANCH  20  25
HETATM   25  O   UNL     1     -40.135  51.763 -51.511  1.00  0.00    -0.348 OA
BRANCH  25  26
HETATM   26  C   UNL     1     -39.162  51.231 -52.412  1.00  0.00     0.175 C 
BRANCH  26  27
HETATM   27  C   UNL     1     -39.692  49.902 -52.941  1.00  0.00     0.022 C 
HETATM   28  C   UNL     1     -40.197  50.020 -54.368  1.00  0.00     0.007 C 
ENDBRANCH  26  27
ENDBRANCH  25  26
ENDBRANCH  20  25
ENDBRANCH   1  17
BRANCH  15  29
HETATM   29  O   UNL     1     -45.687  59.967 -57.517  1.00  0.00    -0.356 OA
HETATM   30  C   UNL     1     -46.457  60.923 -56.796  1.00  0.00     0.210 C 
ENDBRANCH  15  29
TORSDOF 6
ENDMDL
MODEL 6
REMARK VINA RESULT:      -7.1      2.717      4.279
REMARK  6 active torsions:
REMARK  status: ('A' for Active; 'I' for Inactive)
REMARK    1  A    between atoms: C_2  and  C_3 
REMARK    2  A    between atoms: C_3  and  O_4 
REMARK    3  A    between atoms: O_4  and  C_5 
REMARK    4  A    between atoms: C_6  and  O_7 
REMARK    5  A    between atoms: C_10  and  C_11 
REMARK    6  A    between atoms: C_25  and  O_26 
ROOT
HETATM    1  C   UNL     1     -43.794  57.107 -57.335  1.00  0.00     0.269 C 
HETATM    2  N   UNL     1     -45.116  57.547 -56.749  1.00  0.00    -0.061 N 
HETATM    3  H   UNL     1     -45.767  56.761 -56.841  1.00  0.00     0.278 HD
HETATM    4  H   UNL     1     -45.486  58.316 -57.319  1.00  0.00     0.278 HD
HETATM    5  C   UNL     1     -45.066  57.964 -55.298  1.00  0.00     0.238 C 
HETATM    6  C   UNL     1     -44.617  56.792 -54.406  1.00  0.00     0.069 C 
HETATM    7  C   UNL     1     -43.423  56.124 -54.997  1.00  0.00    -0.019 A 
HETATM    8  C   UNL     1     -43.068  56.290 -56.322  1.00  0.00     0.052 A 
HETATM    9  N   UNL     1     -41.931  55.559 -56.553  1.00  0.00    -0.356 N 
HETATM   10  H   UNL     1     -41.415  55.495 -57.423  1.00  0.00     0.166 HD
HETATM   11  C   UNL     1     -41.569  54.894 -55.400  1.00  0.00     0.043 A 
HETATM   12  C   UNL     1     -42.495  55.226 -54.410  1.00  0.00     0.002 A 
HETATM   13  C   UNL     1     -40.499  54.025 -55.162  1.00  0.00     0.033 A 
HETATM   14  C   UNL     1     -40.385  53.461 -53.883  1.00  0.00     0.039 A 
HETATM   15  C   UNL     1     -41.304  53.760 -52.879  1.00  0.00     0.069 A 
HETATM   16  C   UNL     1     -42.354  54.652 -53.134  1.00  0.00     0.051 A 
ENDROOT
BRANCH   1  17
HETATM   17  C   UNL     1     -43.033  58.288 -57.903  1.00  0.00    -0.019 A 
HETATM   18  C   UNL     1     -43.131  58.548 -59.279  1.00  0.00     0.049 A 
HETATM   19  C   UNL     1     -42.480  59.646 -59.843  1.00  0.00     0.102 A 
HETATM   20  C   UNL     1     -41.740  60.537 -59.056  1.00  0.00     0.102 A 
HETATM   21  C   UNL     1     -41.645  60.288 -57.687  1.00  0.00     0.040 A 
HETATM   22  C   UNL     1     -42.287  59.178 -57.114  1.00  0.00     0.012 A 
BRANCH  19  23
HETATM   23  O   UNL     1     -42.669  59.881 -61.181  1.00  0.00    -0.353 OA
HETATM   24  C   UNL     1     -44.032  60.218 -61.439  1.00  0.00     0.210 C 
ENDBRANCH  19  23
BRANCH  20  25
HETATM   25  O   UNL     1     -41.168  61.590 -59.714  1.00  0.00    -0.348 OA
BRANCH  25  26
HETATM   26  C   UNL     1     -40.236  62.402 -58.997  1.00  0.00     0.175 C 
BRANCH  26  27
HETATM   27  C   UNL     1     -39.385  63.150 -60.020  1.00  0.00     0.022 C 
HETATM   28  C   UNL     1     -38.573  64.261 -59.379  1.00  0.00     0.007 C 
ENDBRANCH  26  27
ENDBRANCH  25  26
ENDBRANCH  20  25
ENDBRANCH   1  17
BRANCH  15  29
HETATM   29  O   UNL     1     -41.294  53.257 -51.606  1.00  0.00    -0.356 OA
HETATM   30  C   UNL     1     -41.357  54.198 -50.539  1.00  0.00     0.210 C 
ENDBRANCH  15  29
TORSDOF 6
ENDMDL
MODEL 7
REMARK VINA RESULT:      -7.0      2.990      8.927
REMARK  6 active torsions:
REMARK  status: ('A' for Active; 'I' for Inactive)
REMARK    1  A    between atoms: C_2  and  C_3 
REMARK    2  A    between atoms: C_3  and  O_4 
REMARK    3  A    between atoms: O_4  and  C_5 
REMARK    4  A    between atoms: C_6  and  O_7 
REMARK    5  A    between atoms: C_10  and  C_11 
REMARK    6  A    between atoms: C_25  and  O_26 
ROOT
HETATM    1  C   UNL     1     -43.699  57.662 -57.103  1.00  0.00     0.269 C 
HETATM    2  N   UNL     1     -44.565  56.837 -58.027  1.00  0.00    -0.061 N 
HETATM    3  H   UNL     1     -45.419  57.374 -58.204  1.00  0.00     0.278 HD
HETATM    4  H   UNL     1     -44.842  55.980 -57.536  1.00  0.00     0.278 HD
HETATM    5  C   UNL     1     -43.933  56.486 -59.353  1.00  0.00     0.238 C 
HETATM    6  C   UNL     1     -43.606  57.757 -60.159  1.00  0.00     0.069 C 
HETATM    7  C   UNL     1     -42.927  58.757 -59.288  1.00  0.00    -0.019 A 
HETATM    8  C   UNL     1     -42.977  58.686 -57.909  1.00  0.00     0.052 A 
HETATM    9  N   UNL     1     -42.253  59.735 -57.403  1.00  0.00    -0.356 N 
HETATM   10  H   UNL     1     -42.084  59.942 -56.425  1.00  0.00     0.166 HD
HETATM   11  C   UNL     1     -41.766  60.503 -58.440  1.00  0.00     0.043 A 
HETATM   12  C   UNL     1     -42.182  59.913 -59.635  1.00  0.00     0.002 A 
HETATM   13  C   UNL     1     -40.996  61.670 -58.410  1.00  0.00     0.033 A 
HETATM   14  C   UNL     1     -40.662  62.265 -59.635  1.00  0.00     0.039 A 
HETATM   15  C   UNL     1     -41.077  61.711 -60.844  1.00  0.00     0.069 A 
HETATM   16  C   UNL     1     -41.827  60.528 -60.850  1.00  0.00     0.051 A 
ENDROOT
BRANCH   1  17
HETATM   17  C   UNL     1     -42.834  56.772 -56.233  1.00  0.00    -0.019 A 
HETATM   18  C   UNL     1     -42.171  57.347 -55.138  1.00  0.00     0.049 A 
HETATM   19  C   UNL     1     -41.393  56.560 -54.285  1.00  0.00     0.102 A 
HETATM   20  C   UNL     1     -41.276  55.179 -54.474  1.00  0.00     0.102 A 
HETATM   21  C   UNL     1     -41.939  54.600 -55.557  1.00  0.00     0.040 A 
HETATM   22  C   UNL     1     -42.712  55.386 -56.426  1.00  0.00     0.012 A 
BRANCH  19  23
HETATM   23  O   UNL     1     -40.826  57.172 -53.197  1.00  0.00    -0.353 OA
HETATM   24  C   UNL     1     -41.834  57.585 -52.276  1.00  0.00     0.210 C 
ENDBRANCH  19  23
BRANCH  20  25
HETATM   25  O   UNL     1     -40.509  54.509 -53.562  1.00  0.00    -0.348 OA
BRANCH  25  26
HETATM   26  C   UNL     1     -41.040  53.313 -52.988  1.00  0.00     0.175 C 
BRANCH  26  27
HETATM   27  C   UNL     1     -40.004  52.208 -53.169  1.00  0.00     0.022 C 
HETATM   28  C   UNL     1     -40.334  51.306 -54.344  1.00  0.00     0.007 C 
ENDBRANCH  26  27
ENDBRANCH  25  26
ENDBRANCH  20  25
ENDBRANCH   1  17
BRANCH  15  29
HETATM   29  O   UNL     1     -40.819  62.216 -62.090  1.00  0.00    -0.356 OA
HETATM   30  C   UNL     1     -39.635  62.994 -62.238  1.00  0.00     0.210 C 
ENDBRANCH  15  29
TORSDOF 6
ENDMDL
MODEL 8
REMARK VINA RESULT:      -7.0     16.372     18.514
REMARK  6 active torsions:
REMARK  status: ('A' for Active; 'I' for Inactive)
REMARK    1  A    between atoms: C_2  and  C_3 
REMARK    2  A    between atoms: C_3  and  O_4 
REMARK    3  A    between atoms: O_4  and  C_5 
REMARK    4  A    between atoms: C_6  and  O_7 
REMARK    5  A    between atoms: C_10  and  C_11 
REMARK    6  A    between atoms: C_25  and  O_26 
ROOT
HETATM    1  C   UNL     1     -33.675  40.846 -56.190  1.00  0.00     0.269 C 
HETATM    2  N   UNL     1     -32.454  40.412 -56.966  1.00  0.00    -0.061 N 
HETATM    3  H   UNL     1     -31.778  41.181 -56.926  1.00  0.00     0.278 HD
HETATM    4  H   UNL     1     -32.718  40.291 -57.950  1.00  0.00     0.278 HD
HETATM    5  C   UNL     1     -31.784  39.157 -56.458  1.00  0.00     0.238 C 
HETATM    6  C   UNL     1     -31.280  39.349 -55.016  1.00  0.00     0.069 C 
HETATM    7  C   UNL     1     -32.340  39.980 -54.180  1.00  0.00    -0.019 A 
HETATM    8  C   UNL     1     -33.417  40.643 -54.737  1.00  0.00     0.052 A 
HETATM    9  N   UNL     1     -34.210  41.098 -53.714  1.00  0.00    -0.356 N 
HETATM   10  H   UNL     1     -35.085  41.603 -53.801  1.00  0.00     0.166 HD
HETATM   11  C   UNL     1     -33.637  40.767 -52.504  1.00  0.00     0.043 A 
HETATM   12  C   UNL     1     -32.457  40.071 -52.770  1.00  0.00     0.002 A 
HETATM   13  C   UNL     1     -34.071  41.034 -51.201  1.00  0.00     0.033 A 
HETATM   14  C   UNL     1     -33.265  40.597 -50.140  1.00  0.00     0.039 A 
HETATM   15  C   UNL     1     -32.072  39.915 -50.374  1.00  0.00     0.069 A 
HETATM   16  C   UNL     1     -31.670  39.638 -51.687  1.00  0.00     0.051 A 
ENDROOT
BRANCH   1  17
HETATM   17  C   UNL     1     -34.927  40.191 -56.739  1.00  0.00    -0.019 A 
HETATM   18  C   UNL     1     -35.893  41.003 -57.352  1.00  0.00     0.049 A 
HETATM   19  C   UNL     1     -37.044  40.442 -57.907  1.00  0.00     0.102 A 
HETATM   20  C   UNL     1     -37.257  39.058 -57.899  1.00  0.00     0.102 A 
HETATM   21  C   UNL     1     -36.297  38.244 -57.297  1.00  0.00     0.040 A 
HETATM   22  C   UNL     1     -35.142  38.803 -56.726  1.00  0.00     0.012 A 
BRANCH  19  23
HETATM   23  O   UNL     1     -37.917  41.283 -58.550  1.00  0.00    -0.353 OA
HETATM   24  C   UNL     1     -37.240  42.019 -59.568  1.00  0.00     0.210 C 
ENDBRANCH  19  23
BRANCH  20  25
HETATM   25  O   UNL     1     -38.408  38.622 -58.494  1.00  0.00    -0.348 OA
BRANCH  25  26
HETATM   26  C   UNL     1     -38.292  37.733 -59.606  1.00  0.00     0.175 C 
BRANCH  26  27
HETATM   27  C   UNL     1     -38.637  38.517 -60.869  1.00  0.00     0.022 C 
HETATM   28  C   UNL     1     -37.395  38.939 -61.633  1.00  0.00     0.007 C 
ENDBRANCH  26  27
ENDBRANCH  25  26
ENDBRANCH  20  25
ENDBRANCH   1  17
BRANCH  15  29
HETATM   29  O   UNL     1     -31.207  39.459 -49.415  1.00  0.00    -0.356 OA
HETATM   30  C   UNL     1     -31.576  39.676 -48.057  1.00  0.00     0.210 C 
ENDBRANCH  15  29
TORSDOF 6
ENDMDL
MODEL 9
REMARK VINA RESULT:      -6.9      3.750      7.707
REMARK  6 active torsions:
REMARK  status: ('A' for Active; 'I' for Inactive)
REMARK    1  A    between atoms: C_2  and  C_3 
REMARK    2  A    between atoms: C_3  and  O_4 
REMARK    3  A    between atoms: O_4  and  C_5 
REMARK    4  A    between atoms: C_6  and  O_7 
REMARK    5  A    between atoms: C_10  and  C_11 
REMARK    6  A    between atoms: C_25  and  O_26 
ROOT
HETATM    1  C   UNL     1     -42.632  58.143 -56.106  1.00  0.00     0.269 C 
HETATM    2  N   UNL     1     -43.382  59.406 -55.753  1.00  0.00    -0.061 N 
HETATM    3  H   UNL     1     -43.112  60.122 -56.435  1.00  0.00     0.278 HD
HETATM    4  H   UNL     1     -43.065  59.729 -54.833  1.00  0.00     0.278 HD
HETATM    5  C   UNL     1     -44.887  59.280 -55.760  1.00  0.00     0.238 C 
HETATM    6  C   UNL     1     -45.401  58.902 -57.161  1.00  0.00     0.069 C 
HETATM    7  C   UNL     1     -44.589  57.785 -57.722  1.00  0.00    -0.019 A 
HETATM    8  C   UNL     1     -43.344  57.457 -57.220  1.00  0.00     0.052 A 
HETATM    9  N   UNL     1     -42.865  56.390 -57.938  1.00  0.00    -0.356 N 
HETATM   10  H   UNL     1     -41.986  55.907 -57.794  1.00  0.00     0.166 HD
HETATM   11  C   UNL     1     -43.771  56.050 -58.920  1.00  0.00     0.043 A 
HETATM   12  C   UNL     1     -44.860  56.917 -58.810  1.00  0.00     0.002 A 
HETATM   13  C   UNL     1     -43.708  55.048 -59.894  1.00  0.00     0.033 A 
HETATM   14  C   UNL     1     -44.775  54.943 -60.796  1.00  0.00     0.039 A 
HETATM   15  C   UNL     1     -45.869  55.805 -60.724  1.00  0.00     0.069 A 
HETATM   16  C   UNL     1     -45.922  56.785 -59.724  1.00  0.00     0.051 A 
ENDROOT
BRANCH   1  17
HETATM   17  C   UNL     1     -42.371  57.305 -54.870  1.00  0.00    -0.019 A 
HETATM   18  C   UNL     1     -41.587  57.853 -53.844  1.00  0.00     0.049 A 
HETATM   19  C   UNL     1     -41.350  57.135 -52.670  1.00  0.00     0.102 A 
HETATM   20  C   UNL     1     -41.910  55.869 -52.466  1.00  0.00     0.102 A 
HETATM   21  C   UNL     1     -42.697  55.321 -53.479  1.00  0.00     0.040 A 
HETATM   22  C   UNL     1     -42.929  56.032 -54.668  1.00  0.00     0.012 A 
BRANCH  19  23
HETATM   23  O   UNL     1     -40.631  57.754 -51.680  1.00  0.00    -0.353 OA
HETATM   24  C   UNL     1     -40.878  59.159 -51.688  1.00  0.00     0.210 C 
ENDBRANCH  19  23
BRANCH  20  25
HETATM   25  O   UNL     1     -41.630  55.272 -51.268  1.00  0.00    -0.348 OA
BRANCH  25  26
HETATM   26  C   UNL     1     -41.748  53.851 -51.182  1.00  0.00     0.175 C 
BRANCH  26  27
HETATM   27  C   UNL     1     -40.361  53.253 -51.396  1.00  0.00     0.022 C 
HETATM   28  C   UNL     1     -40.241  52.563 -52.743  1.00  0.00     0.007 C 
ENDBRANCH  26  27
ENDBRANCH  25  26
ENDBRANCH  20  25
ENDBRANCH   1  17
BRANCH  15  29
HETATM   29  O   UNL     1     -46.953  55.798 -61.559  1.00  0.00    -0.356 OA
HETATM   30  C   UNL     1     -47.852  56.898 -61.459  1.00  0.00     0.210 C 
ENDBRANCH  15  29
TORSDOF 6
ENDMDL
MODEL 10
REMARK VINA RESULT:      -6.8      3.044      4.763
REMARK  6 active torsions:
REMARK  status: ('A' for Active; 'I' for Inactive)
REMARK    1  A    between atoms: C_2  and  C_3 
REMARK    2  A    between atoms: C_3  and  O_4 
REMARK    3  A    between atoms: O_4  and  C_5 
REMARK    4  A    between atoms: C_6  and  O_7 
REMARK    5  A    between atoms: C_10  and  C_11 
REMARK    6  A    between atoms: C_25  and  O_26 
ROOT
HETATM    1  C   UNL     1     -41.695  57.093 -53.781  1.00  0.00     0.269 C 
HETATM    2  N   UNL     1     -42.047  57.121 -55.250  1.00  0.00    -0.061 N 
HETATM    3  H   UNL     1     -41.168  57.184 -55.773  1.00  0.00     0.278 HD
HETATM    4  H   UNL     1     -42.578  57.977 -55.443  1.00  0.00     0.278 HD
HETATM    5  C   UNL     1     -42.817  55.919 -55.747  1.00  0.00     0.238 C 
HETATM    6  C   UNL     1     -41.996  54.629 -55.568  1.00  0.00     0.069 C 
HETATM    7  C   UNL     1     -41.404  54.581 -54.201  1.00  0.00    -0.019 A 
HETATM    8  C   UNL     1     -41.288  55.709 -53.411  1.00  0.00     0.052 A 
HETATM    9  N   UNL     1     -40.717  55.336 -52.220  1.00  0.00    -0.356 N 
HETATM   10  H   UNL     1     -40.522  55.934 -51.426  1.00  0.00     0.166 HD
HETATM   11  C   UNL     1     -40.431  53.987 -52.248  1.00  0.00     0.043 A 
HETATM   12  C   UNL     1     -40.846  53.492 -53.486  1.00  0.00     0.002 A 
HETATM   13  C   UNL     1     -39.835  53.174 -51.278  1.00  0.00     0.033 A 
HETATM   14  C   UNL     1     -39.637  51.822 -51.590  1.00  0.00     0.039 A 
HETATM   15  C   UNL     1     -40.024  51.300 -52.823  1.00  0.00     0.069 A 
HETATM   16  C   UNL     1     -40.641  52.129 -53.770  1.00  0.00     0.051 A 
ENDROOT
BRANCH   1  17
HETATM   17  C   UNL     1     -42.803  57.704 -52.947  1.00  0.00    -0.019 A 
HETATM   18  C   UNL     1     -42.956  59.099 -52.955  1.00  0.00     0.049 A 
HETATM   19  C   UNL     1     -43.986  59.706 -52.234  1.00  0.00     0.102 A 
HETATM   20  C   UNL     1     -44.912  58.947 -51.510  1.00  0.00     0.102 A 
HETATM   21  C   UNL     1     -44.771  57.559 -51.503  1.00  0.00     0.040 A 
HETATM   22  C   UNL     1     -43.730  56.942 -52.216  1.00  0.00     0.012 A 
BRANCH  19  23
HETATM   23  O   UNL     1     -44.119  61.067 -52.337  1.00  0.00    -0.353 OA
HETATM   24  C   UNL     1     -44.052  61.471 -53.705  1.00  0.00     0.210 C 
ENDBRANCH  19  23
BRANCH  20  25
HETATM   25  O   UNL     1     -45.892  59.649 -50.864  1.00  0.00    -0.348 OA
BRANCH  25  26
HETATM   26  C   UNL     1     -45.648  60.053 -49.516  1.00  0.00     0.175 C 
BRANCH  26  27
HETATM   27  C   UNL     1     -45.943  61.547 -49.416  1.00  0.00     0.022 C 
HETATM   28  C   UNL     1     -45.773  62.066 -47.999  1.00  0.00     0.007 C 
ENDBRANCH  26  27
ENDBRANCH  25  26
ENDBRANCH  20  25
ENDBRANCH   1  17
BRANCH  15  29
HETATM   29  O   UNL     1     -39.865  50.004 -53.233  1.00  0.00    -0.356 OA
HETATM   30  C   UNL     1     -39.649  49.789 -54.623  1.00  0.00     0.210 C 
ENDBRANCH  15  29
TORSDOF 6
ENDMDL
