MODEL 1
REMARK VINA RESULT:      -8.0      0.000      0.000
REMARK  9 active torsions:
REMARK  status: ('A' for Active; 'I' for Inactive)
REMARK    1  A    between atoms: C_4  and  C_5 
REMARK    2  A    between atoms: C_8  and  C_9 
REMARK       I    between atoms: C_9  and  N_10 
REMARK    3  A    between atoms: N_10  and  C_26 
REMARK    4  A    between atoms: N_10  and  C_11 
REMARK    5  A    between atoms: C_11  and  C_12 
REMARK    6  A    between atoms: C_11  and  C_21 
REMARK       I    between atoms: C_12  and  N_13 
REMARK    7  A    between atoms: N_13  and  C_14 
REMARK    8  A    between atoms: C_14  and  C_15 
REMARK    9  A    between atoms: C_26  and  C_27 
ROOT
HETATM    1  C   UNL     1     -40.903  57.592 -53.697  1.00  0.00     0.271 C 
HETATM    2  N   UNL     1     -42.027  58.412 -53.840  1.00  0.00    -0.324 N 
HETATM    3  O   UNL     1     -39.853  58.049 -53.244  1.00  0.00    -0.266 OA
ENDROOT
BRANCH   2   4
HETATM    4  C   UNL     1     -41.776  59.862 -53.828  1.00  0.00     0.173 C 
BRANCH   4   5
HETATM    5  C   UNL     1     -42.240  60.514 -52.563  1.00  0.00     0.000 A 
HETATM    6  S   UNL     1     -43.207  61.930 -52.616  1.00  0.00    -0.105 SA
HETATM    7  C   UNL     1     -43.293  62.013 -50.912  1.00  0.00     0.050 A 
HETATM    8  C   UNL     1     -42.570  61.010 -50.309  1.00  0.00     0.008 A 
HETATM    9  C   UNL     1     -41.948  60.153 -51.262  1.00  0.00     0.017 A 
ENDBRANCH   4   5
ENDBRANCH   2   4
BRANCH   2  10
HETATM   10  C   UNL     1     -43.398  57.912 -54.120  1.00  0.00     0.220 C 
BRANCH  10  11
HETATM   11  C   UNL     1     -43.813  58.351 -55.539  1.00  0.00     0.245 C 
HETATM   12  N   UNL     1     -44.310  57.370 -56.375  1.00  0.00    -0.357 N 
HETATM   13  H   UNL     1     -44.133  56.401 -56.126  1.00  0.00     0.162 HD
HETATM   14  O   UNL     1     -43.881  59.554 -55.810  1.00  0.00    -0.271 OA
BRANCH  12  15
HETATM   15  C   UNL     1     -44.783  57.651 -57.719  1.00  0.00     0.154 C 
BRANCH  15  16
HETATM   16  C   UNL     1     -43.709  57.377 -58.787  1.00  0.00     0.139 C 
HETATM   17  O   UNL     1     -44.304  57.358 -60.096  1.00  0.00    -0.384 OA
HETATM   18  C   UNL     1     -44.506  55.994 -60.494  1.00  0.00     0.168 C 
HETATM   19  C   UNL     1     -44.023  55.108 -59.364  1.00  0.00     0.029 C 
HETATM   20  C   UNL     1     -43.067  56.009 -58.621  1.00  0.00     0.035 C 
ENDBRANCH  15  16
ENDBRANCH  12  15
ENDBRANCH  10  11
BRANCH  10  21
HETATM   21  C   UNL     1     -44.366  58.126 -52.972  1.00  0.00     0.014 A 
HETATM   22  S   UNL     1     -44.247  57.276 -51.482  1.00  0.00    -0.104 SA
HETATM   23  C   UNL     1     -45.525  58.161 -50.779  1.00  0.00     0.050 A 
HETATM   24  C   UNL     1     -46.010  59.126 -51.629  1.00  0.00     0.008 A 
HETATM   25  C   UNL     1     -45.328  59.122 -52.877  1.00  0.00     0.017 A 
ENDBRANCH  10  21
ENDBRANCH   2  10
BRANCH   1  26
HETATM   26  C   UNL     1     -40.986  56.190 -54.059  1.00  0.00     0.101 C 
HETATM   27  N   UNL     1     -40.821  55.104 -53.220  1.00  0.00    -0.351 N 
HETATM   28  C   UNL     1     -40.823  53.931 -53.945  1.00  0.00     0.043 C 
HETATM   29  H   UNL     1     -40.635  55.162 -52.223  1.00  0.00     0.166 HD
HETATM   30  C   UNL     1     -41.251  54.262 -55.218  1.00  0.00     0.033 C 
HETATM   31  C   UNL     1     -41.369  55.669 -55.283  1.00  0.00     0.037 C 
BRANCH  28  32
HETATM   32  C   UNL     1     -40.433  52.638 -53.383  1.00  0.00    -0.009 A 
HETATM   33  C   UNL     1     -40.357  51.501 -54.198  1.00  0.00     0.013 A 
HETATM   34  C   UNL     1     -39.922  50.279 -53.680  1.00  0.00     0.001 A 
HETATM   35  C   UNL     1     -39.548  50.182 -52.341  1.00  0.00     0.000 A 
HETATM   36  C   UNL     1     -39.620  51.303 -51.518  1.00  0.00     0.001 A 
HETATM   37  C   UNL     1     -40.064  52.523 -52.035  1.00  0.00     0.013 A 
ENDBRANCH  28  32
ENDBRANCH   1  26
TORSDOF 9
ENDMDL
MODEL 2
REMARK VINA RESULT:      -7.9      3.434      6.780
REMARK  9 active torsions:
REMARK  status: ('A' for Active; 'I' for Inactive)
REMARK    1  A    between atoms: C_4  and  C_5 
REMARK    2  A    between atoms: C_8  and  C_9 
REMARK       I    between atoms: C_9  and  N_10 
REMARK    3  A    between atoms: N_10  and  C_26 
REMARK    4  A    between atoms: N_10  and  C_11 
REMARK    5  A    between atoms: C_11  and  C_12 
REMARK    6  A    between atoms: C_11  and  C_21 
REMARK       I    between atoms: C_12  and  N_13 
REMARK    7  A    between atoms: N_13  and  C_14 
REMARK    8  A    between atoms: C_14  and  C_15 
REMARK    9  A    between atoms: C_26  and  C_27 
ROOT
HETATM    1  C   UNL     1     -44.246  57.517 -52.986  1.00  0.00     0.271 C 
HETATM    2  N   UNL     1     -44.217  58.791 -52.407  1.00  0.00    -0.324 N 
HETATM    3  O   UNL     1     -44.800  57.340 -54.071  1.00  0.00    -0.266 OA
ENDROOT
BRANCH   2   4
HETATM    4  C   UNL     1     -45.198  59.758 -52.923  1.00  0.00     0.173 C 
BRANCH   4   5
HETATM    5  C   UNL     1     -44.675  60.539 -54.087  1.00  0.00     0.000 A 
HETATM    6  S   UNL     1     -45.403  60.391 -55.634  1.00  0.00    -0.105 SA
HETATM    7  C   UNL     1     -44.313  61.510 -56.327  1.00  0.00     0.050 A 
HETATM    8  C   UNL     1     -43.386  61.959 -55.414  1.00  0.00     0.008 A 
HETATM    9  C   UNL     1     -43.584  61.387 -54.125  1.00  0.00     0.017 A 
ENDBRANCH   4   5
ENDBRANCH   2   4
BRANCH   2  10
HETATM   10  C   UNL     1     -43.362  59.165 -51.251  1.00  0.00     0.220 C 
BRANCH  10  11
HETATM   11  C   UNL     1     -43.996  60.371 -50.526  1.00  0.00     0.245 C 
HETATM   12  N   UNL     1     -44.905  60.089 -49.525  1.00  0.00    -0.357 N 
HETATM   13  H   UNL     1     -45.303  59.155 -49.496  1.00  0.00     0.162 HD
HETATM   14  O   UNL     1     -43.540  61.503 -50.713  1.00  0.00    -0.271 OA
BRANCH  12  15
HETATM   15  C   UNL     1     -45.541  61.125 -48.729  1.00  0.00     0.154 C 
BRANCH  15  16
HETATM   16  C   UNL     1     -45.871  60.647 -47.304  1.00  0.00     0.139 C 
HETATM   17  O   UNL     1     -47.110  61.228 -46.860  1.00  0.00    -0.384 OA
HETATM   18  C   UNL     1     -46.820  62.347 -46.010  1.00  0.00     0.168 C 
HETATM   19  C   UNL     1     -45.314  62.484 -45.927  1.00  0.00     0.029 C 
HETATM   20  C   UNL     1     -44.833  61.100 -46.289  1.00  0.00     0.035 C 
ENDBRANCH  15  16
ENDBRANCH  12  15
ENDBRANCH  10  11
BRANCH  10  21
HETATM   21  C   UNL     1     -41.883  59.201 -51.580  1.00  0.00     0.014 A 
HETATM   22  S   UNL     1     -40.660  59.236 -50.370  1.00  0.00    -0.104 SA
HETATM   23  C   UNL     1     -39.403  59.125 -51.518  1.00  0.00     0.050 A 
HETATM   24  C   UNL     1     -39.887  59.010 -52.800  1.00  0.00     0.008 A 
HETATM   25  C   UNL     1     -41.309  59.029 -52.832  1.00  0.00     0.017 A 
ENDBRANCH  10  21
ENDBRANCH   2  10
BRANCH   1  26
HETATM   26  C   UNL     1     -43.597  56.408 -52.315  1.00  0.00     0.101 C 
HETATM   27  N   UNL     1     -42.481  55.715 -52.746  1.00  0.00    -0.351 N 
HETATM   28  C   UNL     1     -42.241  54.632 -51.926  1.00  0.00     0.043 C 
HETATM   29  H   UNL     1     -41.963  55.916 -53.595  1.00  0.00     0.166 HD
HETATM   30  C   UNL     1     -43.056  54.795 -50.820  1.00  0.00     0.033 C 
HETATM   31  C   UNL     1     -43.889  55.912 -51.055  1.00  0.00     0.037 C 
BRANCH  28  32
HETATM   32  C   UNL     1     -41.286  53.572 -52.251  1.00  0.00    -0.009 A 
HETATM   33  C   UNL     1     -40.575  52.919 -51.237  1.00  0.00     0.013 A 
HETATM   34  C   UNL     1     -39.712  51.862 -51.538  1.00  0.00     0.001 A 
HETATM   35  C   UNL     1     -39.556  51.442 -52.857  1.00  0.00     0.000 A 
HETATM   36  C   UNL     1     -40.256  52.084 -53.877  1.00  0.00     0.001 A 
HETATM   37  C   UNL     1     -41.112  53.146 -53.576  1.00  0.00     0.013 A 
ENDBRANCH  28  32
ENDBRANCH   1  26
TORSDOF 9
ENDMDL
MODEL 3
REMARK VINA RESULT:      -7.9      2.543      4.096
REMARK  9 active torsions:
REMARK  status: ('A' for Active; 'I' for Inactive)
REMARK    1  A    between atoms: C_4  and  C_5 
REMARK    2  A    between atoms: C_8  and  C_9 
REMARK       I    between atoms: C_9  and  N_10 
REMARK    3  A    between atoms: N_10  and  C_26 
REMARK    4  A    between atoms: N_10  and  C_11 
REMARK    5  A    between atoms: C_11  and  C_12 
REMARK    6  A    between atoms: C_11  and  C_21 
REMARK       I    between atoms: C_12  and  N_13 
REMARK    7  A    between atoms: N_13  and  C_14 
REMARK    8  A    between atoms: C_14  and  C_15 
REMARK    9  A    between atoms: C_26  and  C_27 
ROOT
HETATM    1  C   UNL     1     -43.136  56.698 -51.395  1.00  0.00     0.271 C 
HETATM    2  N   UNL     1     -42.891  57.543 -52.483  1.00  0.00    -0.324 N 
HETATM    3  O   UNL     1     -44.239  56.691 -50.849  1.00  0.00    -0.266 OA
ENDROOT
BRANCH   2   4
HETATM    4  C   UNL     1     -43.827  58.666 -52.653  1.00  0.00     0.173 C 
BRANCH   4   5
HETATM    5  C   UNL     1     -43.810  59.608 -51.491  1.00  0.00     0.000 A 
HETATM    6  S   UNL     1     -45.274  60.087 -50.735  1.00  0.00    -0.105 SA
HETATM    7  C   UNL     1     -44.446  61.069 -49.608  1.00  0.00     0.050 A 
HETATM    8  C   UNL     1     -43.087  61.069 -49.823  1.00  0.00     0.008 A 
HETATM    9  C   UNL     1     -42.721  60.238 -50.920  1.00  0.00     0.017 A 
ENDBRANCH   4   5
ENDBRANCH   2   4
BRANCH   2  10
HETATM   10  C   UNL     1     -41.704  57.443 -53.371  1.00  0.00     0.220 C 
BRANCH  10  11
HETATM   11  C   UNL     1     -41.519  58.781 -54.116  1.00  0.00     0.245 C 
HETATM   12  N   UNL     1     -42.339  59.007 -55.204  1.00  0.00    -0.357 N 
HETATM   13  H   UNL     1     -42.815  58.208 -55.613  1.00  0.00     0.162 HD
HETATM   14  O   UNL     1     -40.815  59.665 -53.617  1.00  0.00    -0.271 OA
BRANCH  12  15
HETATM   15  C   UNL     1     -42.306  60.243 -55.967  1.00  0.00     0.154 C 
BRANCH  15  16
HETATM   16  C   UNL     1     -41.810  60.028 -57.408  1.00  0.00     0.139 C 
HETATM   17  O   UNL     1     -40.758  60.960 -57.715  1.00  0.00    -0.384 OA
HETATM   18  C   UNL     1     -41.309  62.049 -58.470  1.00  0.00     0.168 C 
HETATM   19  C   UNL     1     -42.793  61.792 -58.634  1.00  0.00     0.029 C 
HETATM   20  C   UNL     1     -42.896  60.300 -58.438  1.00  0.00     0.035 C 
ENDBRANCH  15  16
ENDBRANCH  12  15
ENDBRANCH  10  11
BRANCH  10  21
HETATM   21  C   UNL     1     -41.646  56.149 -54.159  1.00  0.00     0.014 A 
HETATM   22  S   UNL     1     -43.020  55.471 -54.941  1.00  0.00    -0.104 SA
HETATM   23  C   UNL     1     -42.105  54.217 -55.647  1.00  0.00     0.050 A 
HETATM   24  C   UNL     1     -40.767  54.326 -55.347  1.00  0.00     0.008 A 
HETATM   25  C   UNL     1     -40.502  55.448 -54.515  1.00  0.00     0.017 A 
ENDBRANCH  10  21
ENDBRANCH   2  10
BRANCH   1  26
HETATM   26  C   UNL     1     -42.091  55.807 -50.929  1.00  0.00     0.101 C 
HETATM   27  N   UNL     1     -41.680  54.628 -51.520  1.00  0.00    -0.351 N 
HETATM   28  C   UNL     1     -40.768  53.978 -50.715  1.00  0.00     0.043 C 
HETATM   29  H   UNL     1     -42.058  54.246 -52.382  1.00  0.00     0.166 HD
HETATM   30  C   UNL     1     -40.407  54.880 -49.731  1.00  0.00     0.033 C 
HETATM   31  C   UNL     1     -41.220  56.027 -49.875  1.00  0.00     0.037 C 
BRANCH  28  32
HETATM   32  C   UNL     1     -40.330  52.601 -50.945  1.00  0.00    -0.009 A 
HETATM   33  C   UNL     1     -40.449  51.638 -49.935  1.00  0.00     0.013 A 
HETATM   34  C   UNL     1     -40.093  50.308 -50.171  1.00  0.00     0.001 A 
HETATM   35  C   UNL     1     -39.621  49.923 -51.425  1.00  0.00     0.000 A 
HETATM   36  C   UNL     1     -39.496  50.871 -52.438  1.00  0.00     0.001 A 
HETATM   37  C   UNL     1     -39.844  52.203 -52.199  1.00  0.00     0.013 A 
ENDBRANCH  28  32
ENDBRANCH   1  26
TORSDOF 9
ENDMDL
MODEL 4
REMARK VINA RESULT:      -7.9      2.269      3.594
REMARK  9 active torsions:
REMARK  status: ('A' for Active; 'I' for Inactive)
REMARK    1  A    between atoms: C_4  and  C_5 
REMARK    2  A    between atoms: C_8  and  C_9 
REMARK       I    between atoms: C_9  and  N_10 
REMARK    3  A    between atoms: N_10  and  C_26 
REMARK    4  A    between atoms: N_10  and  C_11 
REMARK    5  A    between atoms: C_11  and  C_12 
REMARK    6  A    between atoms: C_11  and  C_21 
REMARK       I    between atoms: C_12  and  N_13 
REMARK    7  A    between atoms: N_13  and  C_14 
REMARK    8  A    between atoms: C_14  and  C_15 
REMARK    9  A    between atoms: C_26  and  C_27 
ROOT
HETATM    1  C   UNL     1     -43.789  57.060 -51.136  1.00  0.00     0.271 C 
HETATM    2  N   UNL     1     -43.734  58.302 -51.779  1.00  0.00    -0.324 N 
HETATM    3  O   UNL     1     -44.841  56.669 -50.629  1.00  0.00    -0.266 OA
ENDROOT
BRANCH   2   4
HETATM    4  C   UNL     1     -44.816  59.245 -51.459  1.00  0.00     0.173 C 
BRANCH   4   5
HETATM    5  C   UNL     1     -44.949  60.332 -52.479  1.00  0.00     0.000 A 
HETATM    6  S   UNL     1     -44.360  61.910 -52.153  1.00  0.00    -0.105 SA
HETATM    7  C   UNL     1     -44.856  62.483 -53.685  1.00  0.00     0.050 A 
HETATM    8  C   UNL     1     -45.495  61.508 -54.418  1.00  0.00     0.008 A 
HETATM    9  C   UNL     1     -45.563  60.271 -53.716  1.00  0.00     0.017 A 
ENDBRANCH   4   5
ENDBRANCH   2   4
BRANCH   2  10
HETATM   10  C   UNL     1     -42.610  58.748 -52.642  1.00  0.00     0.220 C 
BRANCH  10  11
HETATM   11  C   UNL     1     -42.467  57.770 -53.827  1.00  0.00     0.245 C 
HETATM   12  N   UNL     1     -43.546  57.663 -54.681  1.00  0.00    -0.357 N 
HETATM   13  H   UNL     1     -44.444  58.009 -54.356  1.00  0.00     0.162 HD
HETATM   14  O   UNL     1     -41.361  57.283 -54.085  1.00  0.00    -0.271 OA
BRANCH  12  15
HETATM   15  C   UNL     1     -43.530  56.818 -55.863  1.00  0.00     0.154 C 
BRANCH  15  16
HETATM   16  C   UNL     1     -44.053  57.550 -57.112  1.00  0.00     0.139 C 
HETATM   17  O   UNL     1     -43.658  56.844 -58.302  1.00  0.00    -0.384 OA
HETATM   18  C   UNL     1     -42.510  57.494 -58.867  1.00  0.00     0.168 C 
HETATM   19  C   UNL     1     -42.157  58.665 -57.973  1.00  0.00     0.029 C 
HETATM   20  C   UNL     1     -43.456  58.941 -57.257  1.00  0.00     0.035 C 
ENDBRANCH  15  16
ENDBRANCH  12  15
ENDBRANCH  10  11
BRANCH  10  21
HETATM   21  C   UNL     1     -41.371  59.145 -51.864  1.00  0.00     0.014 A 
HETATM   22  S   UNL     1     -41.442  59.937 -50.339  1.00  0.00    -0.104 SA
HETATM   23  C   UNL     1     -39.750  59.878 -50.135  1.00  0.00     0.050 A 
HETATM   24  C   UNL     1     -39.129  59.225 -51.174  1.00  0.00     0.008 A 
HETATM   25  C   UNL     1     -40.062  58.783 -52.152  1.00  0.00     0.017 A 
ENDBRANCH  10  21
ENDBRANCH   2  10
BRANCH   1  26
HETATM   26  C   UNL     1     -42.608  56.221 -51.091  1.00  0.00     0.101 C 
HETATM   27  N   UNL     1     -42.178  55.340 -52.066  1.00  0.00    -0.351 N 
HETATM   28  C   UNL     1     -41.100  54.608 -51.612  1.00  0.00     0.043 C 
HETATM   29  H   UNL     1     -42.642  55.185 -52.956  1.00  0.00     0.166 HD
HETATM   30  C   UNL     1     -40.685  55.215 -50.440  1.00  0.00     0.033 C 
HETATM   31  C   UNL     1     -41.616  56.232 -50.125  1.00  0.00     0.037 C 
BRANCH  28  32
HETATM   32  C   UNL     1     -40.573  53.436 -52.309  1.00  0.00    -0.009 A 
HETATM   33  C   UNL     1     -39.944  52.407 -51.597  1.00  0.00     0.013 A 
HETATM   34  C   UNL     1     -39.497  51.255 -52.251  1.00  0.00     0.001 A 
HETATM   35  C   UNL     1     -39.683  51.117 -53.625  1.00  0.00     0.000 A 
HETATM   36  C   UNL     1     -40.305  52.133 -54.347  1.00  0.00     0.001 A 
HETATM   37  C   UNL     1     -40.744  53.288 -53.694  1.00  0.00     0.013 A 
ENDBRANCH  28  32
ENDBRANCH   1  26
TORSDOF 9
ENDMDL
MODEL 5
REMARK VINA RESULT:      -7.8      3.386      5.716
REMARK  9 active torsions:
REMARK  status: ('A' for Active; 'I' for Inactive)
REMARK    1  A    between atoms: C_4  and  C_5 
REMARK    2  A    between atoms: C_8  and  C_9 
REMARK       I    between atoms: C_9  and  N_10 
REMARK    3  A    between atoms: N_10  and  C_26 
REMARK    4  A    between atoms: N_10  and  C_11 
REMARK    5  A    between atoms: C_11  and  C_12 
REMARK    6  A    between atoms: C_11  and  C_21 
REMARK       I    between atoms: C_12  and  N_13 
REMARK    7  A    between atoms: N_13  and  C_14 
REMARK    8  A    between atoms: C_14  and  C_15 
REMARK    9  A    between atoms: C_26  and  C_27 
ROOT
HETATM    1  C   UNL     1     -44.152  57.406 -54.796  1.00  0.00     0.271 C 
HETATM    2  N   UNL     1     -43.861  58.230 -55.889  1.00  0.00    -0.324 N 
HETATM    3  O   UNL     1     -45.320  57.207 -54.461  1.00  0.00    -0.266 OA
ENDROOT
BRANCH   2   4
HETATM    4  C   UNL     1     -44.936  59.136 -56.322  1.00  0.00     0.173 C 
BRANCH   4   5
HETATM    5  C   UNL     1     -45.579  58.694 -57.599  1.00  0.00     0.000 A 
HETATM    6  S   UNL     1     -45.392  59.617 -59.034  1.00  0.00    -0.105 SA
HETATM    7  C   UNL     1     -46.342  58.522 -59.939  1.00  0.00     0.050 A 
HETATM    8  C   UNL     1     -46.829  57.496 -59.162  1.00  0.00     0.008 A 
HETATM    9  C   UNL     1     -46.401  57.603 -57.808  1.00  0.00     0.017 A 
ENDBRANCH   4   5
ENDBRANCH   2   4
BRANCH   2  10
HETATM   10  C   UNL     1     -42.526  58.324 -56.534  1.00  0.00     0.220 C 
BRANCH  10  11
HETATM   11  C   UNL     1     -42.035  59.785 -56.463  1.00  0.00     0.245 C 
HETATM   12  N   UNL     1     -42.221  60.560 -57.591  1.00  0.00    -0.357 N 
HETATM   13  H   UNL     1     -42.413  60.084 -58.467  1.00  0.00     0.162 HD
HETATM   14  O   UNL     1     -41.691  60.261 -55.376  1.00  0.00    -0.271 OA
BRANCH  12  15
HETATM   15  C   UNL     1     -41.852  61.965 -57.646  1.00  0.00     0.154 C 
BRANCH  15  16
HETATM   16  C   UNL     1     -40.623  62.212 -58.541  1.00  0.00     0.139 C 
HETATM   17  O   UNL     1     -40.238  63.596 -58.483  1.00  0.00    -0.384 OA
HETATM   18  C   UNL     1     -40.746  64.268 -59.646  1.00  0.00     0.168 C 
HETATM   19  C   UNL     1     -41.505  63.249 -60.471  1.00  0.00     0.029 C 
HETATM   20  C   UNL     1     -40.915  61.939 -60.008  1.00  0.00     0.035 C 
ENDBRANCH  15  16
ENDBRANCH  12  15
ENDBRANCH  10  11
BRANCH  10  21
HETATM   21  C   UNL     1     -42.437  57.583 -57.854  1.00  0.00     0.014 A 
HETATM   22  S   UNL     1     -43.102  56.014 -58.088  1.00  0.00    -0.104 SA
HETATM   23  C   UNL     1     -42.715  56.006 -59.749  1.00  0.00     0.050 A 
HETATM   24  C   UNL     1     -42.136  57.188 -60.147  1.00  0.00     0.008 A 
HETATM   25  C   UNL     1     -42.001  58.101 -59.065  1.00  0.00     0.017 A 
ENDBRANCH  10  21
ENDBRANCH   2  10
BRANCH   1  26
HETATM   26  C   UNL     1     -43.072  56.764 -54.073  1.00  0.00     0.101 C 
HETATM   27  N   UNL     1     -42.483  55.549 -54.368  1.00  0.00    -0.351 N 
HETATM   28  C   UNL     1     -41.593  55.192 -53.377  1.00  0.00     0.043 C 
HETATM   29  H   UNL     1     -42.731  54.957 -55.155  1.00  0.00     0.166 HD
HETATM   30  C   UNL     1     -41.429  56.312 -52.581  1.00  0.00     0.033 C 
HETATM   31  C   UNL     1     -42.339  57.297 -53.027  1.00  0.00     0.037 C 
BRANCH  28  32
HETATM   32  C   UNL     1     -40.993  53.861 -53.275  1.00  0.00    -0.009 A 
HETATM   33  C   UNL     1     -40.897  53.036 -54.402  1.00  0.00     0.013 A 
HETATM   34  C   UNL     1     -40.265  51.792 -54.324  1.00  0.00     0.001 A 
HETATM   35  C   UNL     1     -39.715  51.363 -53.117  1.00  0.00     0.000 A 
HETATM   36  C   UNL     1     -39.805  52.173 -51.988  1.00  0.00     0.001 A 
HETATM   37  C   UNL     1     -40.444  53.413 -52.065  1.00  0.00     0.013 A 
ENDBRANCH  28  32
ENDBRANCH   1  26
TORSDOF 9
ENDMDL
MODEL 6
REMARK VINA RESULT:      -7.7      1.547      1.936
REMARK  9 active torsions:
REMARK  status: ('A' for Active; 'I' for Inactive)
REMARK    1  A    between atoms: C_4  and  C_5 
REMARK    2  A    between atoms: C_8  and  C_9 
REMARK       I    between atoms: C_9  and  N_10 
REMARK    3  A    between atoms: N_10  and  C_26 
REMARK    4  A    between atoms: N_10  and  C_11 
REMARK    5  A    between atoms: C_11  and  C_12 
REMARK    6  A    between atoms: C_11  and  C_21 
REMARK       I    between atoms: C_12  and  N_13 
REMARK    7  A    between atoms: N_13  and  C_14 
REMARK    8  A    between atoms: C_14  and  C_15 
REMARK    9  A    between atoms: C_26  and  C_27 
ROOT
HETATM    1  C   UNL     1     -41.242  58.452 -53.370  1.00  0.00     0.271 C 
HETATM    2  N   UNL     1     -42.411  58.816 -54.047  1.00  0.00    -0.324 N 
HETATM    3  O   UNL     1     -40.287  59.227 -53.317  1.00  0.00    -0.266 OA
ENDROOT
BRANCH   2   4
HETATM    4  C   UNL     1     -42.287  59.929 -55.001  1.00  0.00     0.173 C 
BRANCH   4   5
HETATM    5  C   UNL     1     -42.810  61.218 -54.450  1.00  0.00     0.000 A 
HETATM    6  S   UNL     1     -43.608  62.343 -55.471  1.00  0.00    -0.105 SA
HETATM    7  C   UNL     1     -43.867  63.431 -54.179  1.00  0.00     0.050 A 
HETATM    8  C   UNL     1     -43.323  62.972 -53.001  1.00  0.00     0.008 A 
HETATM    9  C   UNL     1     -42.699  61.702 -53.160  1.00  0.00     0.017 A 
ENDBRANCH   4   5
ENDBRANCH   2   4
BRANCH   2  10
HETATM   10  C   UNL     1     -43.699  58.081 -53.949  1.00  0.00     0.220 C 
BRANCH  10  11
HETATM   11  C   UNL     1     -44.136  57.643 -55.362  1.00  0.00     0.245 C 
HETATM   12  N   UNL     1     -43.236  56.887 -56.087  1.00  0.00    -0.357 N 
HETATM   13  H   UNL     1     -42.267  56.884 -55.783  1.00  0.00     0.162 HD
HETATM   14  O   UNL     1     -45.310  57.798 -55.713  1.00  0.00    -0.271 OA
BRANCH  12  15
HETATM   15  C   UNL     1     -43.536  56.366 -57.409  1.00  0.00     0.154 C 
BRANCH  15  16
HETATM   16  C   UNL     1     -42.777  57.115 -58.519  1.00  0.00     0.139 C 
HETATM   17  O   UNL     1     -43.493  58.305 -58.894  1.00  0.00    -0.384 OA
HETATM   18  C   UNL     1     -44.230  58.044 -60.098  1.00  0.00     0.168 C 
HETATM   19  C   UNL     1     -43.972  56.604 -60.492  1.00  0.00     0.029 C 
HETATM   20  C   UNL     1     -42.668  56.297 -59.796  1.00  0.00     0.035 C 
ENDBRANCH  15  16
ENDBRANCH  12  15
ENDBRANCH  10  11
BRANCH  10  21
HETATM   21  C   UNL     1     -44.712  58.753 -53.043  1.00  0.00     0.014 A 
HETATM   22  S   UNL     1     -44.809  58.433 -51.355  1.00  0.00    -0.104 SA
HETATM   23  C   UNL     1     -46.010  59.619 -51.114  1.00  0.00     0.050 A 
HETATM   24  C   UNL     1     -46.308  60.293 -52.275  1.00  0.00     0.008 A 
HETATM   25  C   UNL     1     -45.544  59.813 -53.375  1.00  0.00     0.017 A 
ENDBRANCH  10  21
ENDBRANCH   2  10
BRANCH   1  26
HETATM   26  C   UNL     1     -41.168  57.165 -52.706  1.00  0.00     0.101 C 
HETATM   27  N   UNL     1     -40.573  56.015 -53.188  1.00  0.00    -0.351 N 
HETATM   28  C   UNL     1     -40.830  54.951 -52.348  1.00  0.00     0.043 C 
HETATM   29  H   UNL     1     -40.092  55.938 -54.079  1.00  0.00     0.166 HD
HETATM   30  C   UNL     1     -41.370  55.490 -51.194  1.00  0.00     0.033 C 
HETATM   31  C   UNL     1     -41.565  56.873 -51.411  1.00  0.00     0.037 C 
BRANCH  28  32
HETATM   32  C   UNL     1     -40.545  53.560 -52.700  1.00  0.00    -0.009 A 
HETATM   33  C   UNL     1     -40.866  53.068 -53.972  1.00  0.00     0.013 A 
HETATM   34  C   UNL     1     -40.536  51.760 -54.335  1.00  0.00     0.001 A 
HETATM   35  C   UNL     1     -39.874  50.931 -53.432  1.00  0.00     0.000 A 
HETATM   36  C   UNL     1     -39.550  51.406 -52.163  1.00  0.00     0.001 A 
HETATM   37  C   UNL     1     -39.888  52.712 -51.797  1.00  0.00     0.013 A 
ENDBRANCH  28  32
ENDBRANCH   1  26
TORSDOF 9
ENDMDL
MODEL 7
REMARK VINA RESULT:      -7.7      2.951      6.002
REMARK  9 active torsions:
REMARK  status: ('A' for Active; 'I' for Inactive)
REMARK    1  A    between atoms: C_4  and  C_5 
REMARK    2  A    between atoms: C_8  and  C_9 
REMARK       I    between atoms: C_9  and  N_10 
REMARK    3  A    between atoms: N_10  and  C_26 
REMARK    4  A    between atoms: N_10  and  C_11 
REMARK    5  A    between atoms: C_11  and  C_12 
REMARK    6  A    between atoms: C_11  and  C_21 
REMARK       I    between atoms: C_12  and  N_13 
REMARK    7  A    between atoms: N_13  and  C_14 
REMARK    8  A    between atoms: C_14  and  C_15 
REMARK    9  A    between atoms: C_26  and  C_27 
ROOT
HETATM    1  C   UNL     1     -42.330  59.364 -55.961  1.00  0.00     0.271 C 
HETATM    2  N   UNL     1     -42.796  58.605 -57.040  1.00  0.00    -0.324 N 
HETATM    3  O   UNL     1     -41.587  60.328 -56.153  1.00  0.00    -0.266 OA
ENDROOT
BRANCH   2   4
HETATM    4  C   UNL     1     -42.051  58.746 -58.300  1.00  0.00     0.173 C 
BRANCH   4   5
HETATM    5  C   UNL     1     -42.758  59.617 -59.290  1.00  0.00     0.000 A 
HETATM    6  S   UNL     1     -43.389  61.141 -58.816  1.00  0.00    -0.105 SA
HETATM    7  C   UNL     1     -43.976  61.461 -60.389  1.00  0.00     0.050 A 
HETATM    8  C   UNL     1     -43.736  60.416 -61.251  1.00  0.00     0.008 A 
HETATM    9  C   UNL     1     -43.047  59.345 -60.613  1.00  0.00     0.017 A 
ENDBRANCH   4   5
ENDBRANCH   2   4
BRANCH   2  10
HETATM   10  C   UNL     1     -43.890  57.604 -56.947  1.00  0.00     0.220 C 
BRANCH  10  11
HETATM   11  C   UNL     1     -43.276  56.210 -56.700  1.00  0.00     0.245 C 
HETATM   12  N   UNL     1     -43.686  55.542 -55.563  1.00  0.00    -0.357 N 
HETATM   13  H   UNL     1     -44.142  56.082 -54.833  1.00  0.00     0.162 HD
HETATM   14  O   UNL     1     -42.619  55.666 -57.593  1.00  0.00    -0.271 OA
BRANCH  12  15
HETATM   15  C   UNL     1     -43.227  54.204 -55.231  1.00  0.00     0.154 C 
BRANCH  15  16
HETATM   16  C   UNL     1     -42.204  54.204 -54.081  1.00  0.00     0.139 C 
HETATM   17  O   UNL     1     -41.282  55.297 -54.236  1.00  0.00    -0.384 OA
HETATM   18  C   UNL     1     -40.066  54.800 -54.813  1.00  0.00     0.168 C 
HETATM   19  C   UNL     1     -40.240  53.313 -55.045  1.00  0.00     0.029 C 
HETATM   20  C   UNL     1     -41.341  52.952 -54.078  1.00  0.00     0.035 C 
ENDBRANCH  15  16
ENDBRANCH  12  15
ENDBRANCH  10  11
BRANCH  10  21
HETATM   21  C   UNL     1     -44.946  57.760 -58.024  1.00  0.00     0.014 A 
HETATM   22  S   UNL     1     -45.099  56.668 -59.345  1.00  0.00    -0.104 SA
HETATM   23  C   UNL     1     -46.503  57.440 -59.929  1.00  0.00     0.050 A 
HETATM   24  C   UNL     1     -46.893  58.480 -59.118  1.00  0.00     0.008 A 
HETATM   25  C   UNL     1     -46.014  58.646 -58.013  1.00  0.00     0.017 A 
ENDBRANCH  10  21
ENDBRANCH   2  10
BRANCH   1  26
HETATM   26  C   UNL     1     -42.746  59.029 -54.613  1.00  0.00     0.101 C 
HETATM   27  N   UNL     1     -42.125  58.149 -53.747  1.00  0.00    -0.351 N 
HETATM   28  C   UNL     1     -42.887  57.972 -52.611  1.00  0.00     0.043 C 
HETATM   29  H   UNL     1     -41.274  57.635 -53.951  1.00  0.00     0.166 HD
HETATM   30  C   UNL     1     -43.868  58.947 -52.647  1.00  0.00     0.033 C 
HETATM   31  C   UNL     1     -43.769  59.617 -53.888  1.00  0.00     0.037 C 
BRANCH  28  32
HETATM   32  C   UNL     1     -42.624  56.929 -51.620  1.00  0.00    -0.009 A 
HETATM   33  C   UNL     1     -43.587  55.950 -51.345  1.00  0.00     0.013 A 
HETATM   34  C   UNL     1     -43.315  54.914 -50.448  1.00  0.00     0.001 A 
HETATM   35  C   UNL     1     -42.072  54.841 -49.821  1.00  0.00     0.000 A 
HETATM   36  C   UNL     1     -41.106  55.810 -50.083  1.00  0.00     0.001 A 
HETATM   37  C   UNL     1     -41.382  56.850 -50.974  1.00  0.00     0.013 A 
ENDBRANCH  28  32
ENDBRANCH   1  26
TORSDOF 9
ENDMDL
MODEL 8
REMARK VINA RESULT:      -7.6      1.665      2.504
REMARK  9 active torsions:
REMARK  status: ('A' for Active; 'I' for Inactive)
REMARK    1  A    between atoms: C_4  and  C_5 
REMARK    2  A    between atoms: C_8  and  C_9 
REMARK       I    between atoms: C_9  and  N_10 
REMARK    3  A    between atoms: N_10  and  C_26 
REMARK    4  A    between atoms: N_10  and  C_11 
REMARK    5  A    between atoms: C_11  and  C_12 
REMARK    6  A    between atoms: C_11  and  C_21 
REMARK       I    between atoms: C_12  and  N_13 
REMARK    7  A    between atoms: N_13  and  C_14 
REMARK    8  A    between atoms: C_14  and  C_15 
REMARK    9  A    between atoms: C_26  and  C_27 
ROOT
HETATM    1  C   UNL     1     -41.527  58.514 -54.123  1.00  0.00     0.271 C 
HETATM    2  N   UNL     1     -42.749  59.182 -54.265  1.00  0.00    -0.324 N 
HETATM    3  O   UNL     1     -40.493  59.149 -53.915  1.00  0.00    -0.266 OA
ENDROOT
BRANCH   2   4
HETATM    4  C   UNL     1     -42.670  60.619 -54.567  1.00  0.00     0.173 C 
BRANCH   4   5
HETATM    5  C   UNL     1     -42.541  60.891 -56.032  1.00  0.00     0.000 A 
HETATM    6  S   UNL     1     -43.384  62.200 -56.755  1.00  0.00    -0.105 SA
HETATM    7  C   UNL     1     -42.746  61.844 -58.299  1.00  0.00     0.050 A 
HETATM    8  C   UNL     1     -41.939  60.730 -58.280  1.00  0.00     0.008 A 
HETATM    9  C   UNL     1     -41.833  60.170 -56.975  1.00  0.00     0.017 A 
ENDBRANCH   4   5
ENDBRANCH   2   4
BRANCH   2  10
HETATM   10  C   UNL     1     -44.075  58.511 -54.252  1.00  0.00     0.220 C 
BRANCH  10  11
HETATM   11  C   UNL     1     -44.735  58.676 -55.637  1.00  0.00     0.245 C 
HETATM   12  N   UNL     1     -44.424  57.729 -56.593  1.00  0.00    -0.357 N 
HETATM   13  H   UNL     1     -43.604  57.151 -56.437  1.00  0.00     0.162 HD
HETATM   14  O   UNL     1     -45.646  59.498 -55.784  1.00  0.00    -0.271 OA
BRANCH  12  15
HETATM   15  C   UNL     1     -45.010  57.735 -57.922  1.00  0.00     0.154 C 
BRANCH  15  16
HETATM   16  C   UNL     1     -43.958  57.535 -59.027  1.00  0.00     0.139 C 
HETATM   17  O   UNL     1     -44.603  57.255 -60.282  1.00  0.00    -0.384 OA
HETATM   18  C   UNL     1     -44.567  55.840 -60.517  1.00  0.00     0.168 C 
HETATM   19  C   UNL     1     -43.872  55.195 -59.336  1.00  0.00     0.029 C 
HETATM   20  C   UNL     1     -43.065  56.333 -58.761  1.00  0.00     0.035 C 
ENDBRANCH  15  16
ENDBRANCH  12  15
ENDBRANCH  10  11
BRANCH  10  21
HETATM   21  C   UNL     1     -44.891  58.809 -53.009  1.00  0.00     0.014 A 
HETATM   22  S   UNL     1     -44.799  57.852 -51.583  1.00  0.00    -0.104 SA
HETATM   23  C   UNL     1     -45.838  58.891 -50.718  1.00  0.00     0.050 A 
HETATM   24  C   UNL     1     -46.217  59.980 -51.467  1.00  0.00     0.008 A 
HETATM   25  C   UNL     1     -45.653  59.945 -52.773  1.00  0.00     0.017 A 
ENDBRANCH  10  21
ENDBRANCH   2  10
BRANCH   1  26
HETATM   26  C   UNL     1     -41.487  57.067 -54.194  1.00  0.00     0.101 C 
HETATM   27  N   UNL     1     -41.331  56.188 -53.140  1.00  0.00    -0.351 N 
HETATM   28  C   UNL     1     -41.191  54.897 -53.605  1.00  0.00     0.043 C 
HETATM   29  H   UNL     1     -41.241  56.458 -52.165  1.00  0.00     0.166 HD
HETATM   30  C   UNL     1     -41.521  54.931 -54.948  1.00  0.00     0.033 C 
HETATM   31  C   UNL     1     -41.723  56.282 -55.311  1.00  0.00     0.037 C 
BRANCH  28  32
HETATM   32  C   UNL     1     -40.772  53.778 -52.761  1.00  0.00    -0.009 A 
HETATM   33  C   UNL     1     -40.179  52.642 -53.327  1.00  0.00     0.013 A 
HETATM   34  C   UNL     1     -39.717  51.600 -52.519  1.00  0.00     0.001 A 
HETATM   35  C   UNL     1     -39.837  51.686 -51.133  1.00  0.00     0.000 A 
HETATM   36  C   UNL     1     -40.426  52.809 -50.557  1.00  0.00     0.001 A 
HETATM   37  C   UNL     1     -40.895  53.847 -51.366  1.00  0.00     0.013 A 
ENDBRANCH  28  32
ENDBRANCH   1  26
TORSDOF 9
ENDMDL
MODEL 9
REMARK VINA RESULT:      -7.5      2.672      7.227
REMARK  9 active torsions:
REMARK  status: ('A' for Active; 'I' for Inactive)
REMARK    1  A    between atoms: C_4  and  C_5 
REMARK    2  A    between atoms: C_8  and  C_9 
REMARK       I    between atoms: C_9  and  N_10 
REMARK    3  A    between atoms: N_10  and  C_26 
REMARK    4  A    between atoms: N_10  and  C_11 
REMARK    5  A    between atoms: C_11  and  C_12 
REMARK    6  A    between atoms: C_11  and  C_21 
REMARK       I    between atoms: C_12  and  N_13 
REMARK    7  A    between atoms: N_13  and  C_14 
REMARK    8  A    between atoms: C_14  and  C_15 
REMARK    9  A    between atoms: C_26  and  C_27 
ROOT
HETATM    1  C   UNL     1     -44.206  56.696 -51.230  1.00  0.00     0.271 C 
HETATM    2  N   UNL     1     -43.227  56.222 -52.111  1.00  0.00    -0.324 N 
HETATM    3  O   UNL     1     -44.708  55.942 -50.396  1.00  0.00    -0.266 OA
ENDROOT
BRANCH   2   4
HETATM    4  C   UNL     1     -43.147  54.761 -52.265  1.00  0.00     0.173 C 
BRANCH   4   5
HETATM    5  C   UNL     1     -41.980  54.171 -51.538  1.00  0.00     0.000 A 
HETATM    6  S   UNL     1     -40.788  53.273 -52.386  1.00  0.00    -0.105 SA
HETATM    7  C   UNL     1     -39.894  52.988 -50.958  1.00  0.00     0.050 A 
HETATM    8  C   UNL     1     -40.505  53.527 -49.849  1.00  0.00     0.008 A 
HETATM    9  C   UNL     1     -41.718  54.197 -50.182  1.00  0.00     0.017 A 
ENDBRANCH   4   5
ENDBRANCH   2   4
BRANCH   2  10
HETATM   10  C   UNL     1     -42.377  57.093 -52.964  1.00  0.00     0.220 C 
BRANCH  10  11
HETATM   11  C   UNL     1     -42.077  56.360 -54.288  1.00  0.00     0.245 C 
HETATM   12  N   UNL     1     -43.070  56.378 -55.248  1.00  0.00    -0.357 N 
HETATM   13  H   UNL     1     -44.010  56.624 -54.953  1.00  0.00     0.162 HD
HETATM   14  O   UNL     1     -40.929  55.971 -54.524  1.00  0.00    -0.271 OA
BRANCH  12  15
HETATM   15  C   UNL     1     -42.905  55.772 -56.558  1.00  0.00     0.154 C 
BRANCH  15  16
HETATM   16  C   UNL     1     -42.805  56.820 -57.680  1.00  0.00     0.139 C 
HETATM   17  O   UNL     1     -43.951  57.689 -57.652  1.00  0.00    -0.384 OA
HETATM   18  C   UNL     1     -44.884  57.260 -58.654  1.00  0.00     0.168 C 
HETATM   19  C   UNL     1     -44.296  56.044 -59.340  1.00  0.00     0.029 C 
HETATM   20  C   UNL     1     -42.819  56.187 -59.063  1.00  0.00     0.035 C 
ENDBRANCH  15  16
ENDBRANCH  12  15
ENDBRANCH  10  11
BRANCH  10  21
HETATM   21  C   UNL     1     -41.234  57.746 -52.212  1.00  0.00     0.014 A 
HETATM   22  S   UNL     1     -40.239  58.966 -52.905  1.00  0.00    -0.104 SA
HETATM   23  C   UNL     1     -39.388  59.218 -51.449  1.00  0.00     0.050 A 
HETATM   24  C   UNL     1     -39.873  58.435 -50.428  1.00  0.00     0.008 A 
HETATM   25  C   UNL     1     -40.948  57.610 -50.860  1.00  0.00     0.017 A 
ENDBRANCH  10  21
ENDBRANCH   2  10
BRANCH   1  26
HETATM   26  C   UNL     1     -44.609  58.087 -51.285  1.00  0.00     0.101 C 
HETATM   27  N   UNL     1     -44.149  59.117 -50.488  1.00  0.00    -0.351 N 
HETATM   28  C   UNL     1     -44.867  60.270 -50.729  1.00  0.00     0.043 C 
HETATM   29  H   UNL     1     -43.445  59.022 -49.763  1.00  0.00     0.166 HD
HETATM   30  C   UNL     1     -45.610  60.033 -51.871  1.00  0.00     0.033 C 
HETATM   31  C   UNL     1     -45.436  58.676 -52.227  1.00  0.00     0.037 C 
BRANCH  28  32
HETATM   32  C   UNL     1     -44.785  61.461 -49.882  1.00  0.00    -0.009 A 
HETATM   33  C   UNL     1     -45.491  61.526 -48.675  1.00  0.00     0.013 A 
HETATM   34  C   UNL     1     -45.364  62.634 -47.832  1.00  0.00     0.001 A 
HETATM   35  C   UNL     1     -44.521  63.686 -48.185  1.00  0.00     0.000 A 
HETATM   36  C   UNL     1     -43.813  63.635 -49.384  1.00  0.00     0.001 A 
HETATM   37  C   UNL     1     -43.947  62.531 -50.230  1.00  0.00     0.013 A 
ENDBRANCH  28  32
ENDBRANCH   1  26
TORSDOF 9
ENDMDL
MODEL 10
REMARK VINA RESULT:      -7.3      2.508      6.039
REMARK  9 active torsions:
REMARK  status: ('A' for Active; 'I' for Inactive)
REMARK    1  A    between atoms: C_4  and  C_5 
REMARK    2  A    between atoms: C_8  and  C_9 
REMARK       I    between atoms: C_9  and  N_10 
REMARK    3  A    between atoms: N_10  and  C_26 
REMARK    4  A    between atoms: N_10  and  C_11 
REMARK    5  A    between atoms: C_11  and  C_12 
REMARK    6  A    between atoms: C_11  and  C_21 
REMARK       I    between atoms: C_12  and  N_13 
REMARK    7  A    between atoms: N_13  and  C_14 
REMARK    8  A    between atoms: C_14  and  C_15 
REMARK    9  A    between atoms: C_26  and  C_27 
ROOT
HETATM    1  C   UNL     1     -44.241  57.168 -54.374  1.00  0.00     0.271 C 
HETATM    2  N   UNL     1     -43.915  58.306 -55.120  1.00  0.00    -0.324 N 
HETATM    3  O   UNL     1     -45.399  56.751 -54.351  1.00  0.00    -0.266 OA
ENDROOT
BRANCH   2   4
HETATM    4  C   UNL     1     -45.039  59.174 -55.502  1.00  0.00     0.173 C 
BRANCH   4   5
HETATM    5  C   UNL     1     -45.470  58.964 -56.920  1.00  0.00     0.000 A 
HETATM    6  S   UNL     1     -45.883  60.301 -57.913  1.00  0.00    -0.105 SA
HETATM    7  C   UNL     1     -46.222  59.288 -59.247  1.00  0.00     0.050 A 
HETATM    8  C   UNL     1     -46.065  57.957 -58.938  1.00  0.00     0.008 A 
HETATM    9  C   UNL     1     -45.646  57.768 -57.589  1.00  0.00     0.017 A 
ENDBRANCH   4   5
ENDBRANCH   2   4
BRANCH   2  10
HETATM   10  C   UNL     1     -42.526  58.735 -55.428  1.00  0.00     0.220 C 
BRANCH  10  11
HETATM   11  C   UNL     1     -42.032  59.679 -54.312  1.00  0.00     0.245 C 
HETATM   12  N   UNL     1     -42.991  60.427 -53.659  1.00  0.00    -0.357 N 
HETATM   13  H   UNL     1     -43.899  60.524 -54.101  1.00  0.00     0.162 HD
HETATM   14  O   UNL     1     -40.867  59.590 -53.911  1.00  0.00    -0.271 OA
BRANCH  12  15
HETATM   15  C   UNL     1     -42.673  61.318 -52.556  1.00  0.00     0.154 C 
BRANCH  15  16
HETATM   16  C   UNL     1     -42.935  60.671 -51.185  1.00  0.00     0.139 C 
HETATM   17  O   UNL     1     -44.090  59.817 -51.252  1.00  0.00    -0.384 OA
HETATM   18  C   UNL     1     -45.219  60.520 -50.712  1.00  0.00     0.168 C 
HETATM   19  C   UNL     1     -44.747  61.898 -50.295  1.00  0.00     0.029 C 
HETATM   20  C   UNL     1     -43.262  61.700 -50.115  1.00  0.00     0.035 C 
ENDBRANCH  15  16
ENDBRANCH  12  15
ENDBRANCH  10  11
BRANCH  10  21
HETATM   21  C   UNL     1     -42.325  59.141 -56.875  1.00  0.00     0.014 A 
HETATM   22  S   UNL     1     -42.060  60.770 -57.358  1.00  0.00    -0.104 SA
HETATM   23  C   UNL     1     -41.811  60.335 -58.988  1.00  0.00     0.050 A 
HETATM   24  C   UNL     1     -41.873  58.974 -59.172  1.00  0.00     0.008 A 
HETATM   25  C   UNL     1     -42.143  58.288 -57.955  1.00  0.00     0.017 A 
ENDBRANCH  10  21
ENDBRANCH   2  10
BRANCH   1  26
HETATM   26  C   UNL     1     -43.203  56.464 -53.646  1.00  0.00     0.101 C 
HETATM   27  N   UNL     1     -42.497  55.356 -54.072  1.00  0.00    -0.351 N 
HETATM   28  C   UNL     1     -41.698  54.874 -53.056  1.00  0.00     0.043 C 
HETATM   29  H   UNL     1     -42.613  54.902 -54.973  1.00  0.00     0.166 HD
HETATM   30  C   UNL     1     -41.705  55.840 -52.066  1.00  0.00     0.033 C 
HETATM   31  C   UNL     1     -42.631  56.840 -52.442  1.00  0.00     0.037 C 
BRANCH  28  32
HETATM   32  C   UNL     1     -41.017  53.580 -53.112  1.00  0.00    -0.009 A 
HETATM   33  C   UNL     1     -41.028  52.820 -54.288  1.00  0.00     0.013 A 
HETATM   34  C   UNL     1     -40.324  51.616 -54.367  1.00  0.00     0.001 A 
HETATM   35  C   UNL     1     -39.593  51.162 -53.271  1.00  0.00     0.000 A 
HETATM   36  C   UNL     1     -39.573  51.907 -52.094  1.00  0.00     0.001 A 
HETATM   37  C   UNL     1     -40.285  53.107 -52.013  1.00  0.00     0.013 A 
ENDBRANCH  28  32
ENDBRANCH   1  26
TORSDOF 9
ENDMDL
