MODEL 1
REMARK VINA RESULT:      -8.1      0.000      0.000
REMARK  4 active torsions:
REMARK  status: ('A' for Active; 'I' for Inactive)
REMARK    1  A    between atoms: C_4  and  C_5 
REMARK    2  A    between atoms: C_6  and  C_7 
REMARK       I    between atoms: C_7  and  N_8 
REMARK    3  A    between atoms: N_8  and  C_9 
REMARK    4  A    between atoms: C_11  and  C_12 
ROOT
HETATM    1  C   UNL     1     -41.699  56.230 -53.105  1.00  0.00     0.035 A 
HETATM    2  C   UNL     1     -41.446  55.281 -52.108  1.00  0.00     0.042 A 
HETATM    3  C   UNL     1     -41.089  55.663 -50.801  1.00  0.00    -0.021 A 
HETATM    4  C   UNL     1     -40.946  57.028 -50.524  1.00  0.00     0.012 A 
HETATM    5  C   UNL     1     -41.148  57.983 -51.521  1.00  0.00     0.003 A 
HETATM    6  C   UNL     1     -41.517  57.584 -52.805  1.00  0.00     0.029 A 
ENDROOT
BRANCH   1   7
HETATM    7  N   UNL     1     -42.083  55.923 -54.425  1.00  0.00    -0.324 N 
HETATM    8  C   UNL     1     -41.974  54.797 -55.191  1.00  0.00     0.245 C 
HETATM    9  O   UNL     1     -42.190  54.866 -56.401  1.00  0.00    -0.268 OA
HETATM   10  H   UNL     1     -42.501  56.679 -54.955  1.00  0.00     0.169 HD
BRANCH   8  11
HETATM   11  C   UNL     1     -41.680  53.499 -54.551  1.00  0.00     0.077 C 
HETATM   12  C   UNL     1     -40.454  52.967 -54.662  1.00  0.00     0.042 C 
BRANCH  12  13
HETATM   13  C   UNL     1     -40.142  51.740 -54.019  1.00  0.00     0.075 A 
HETATM   14  O   UNL     1     -39.966  51.607 -52.658  1.00  0.00    -0.316 OA
HETATM   15  C   UNL     1     -39.648  50.314 -52.386  1.00  0.00     0.050 A 
HETATM   16  C   UNL     1     -39.409  49.981 -50.968  1.00  0.00     0.076 C 
HETATM   17  C   UNL     1     -39.624  49.581 -53.547  1.00  0.00     0.035 A 
HETATM   18  C   UNL     1     -39.932  50.490 -54.588  1.00  0.00     0.039 A 
ENDBRANCH  12  13
ENDBRANCH   8  11
ENDBRANCH   1   7
BRANCH   3  19
HETATM   19  C   UNL     1     -40.874  54.673 -49.750  1.00  0.00     0.010 A 
HETATM   20  C   UNL     1     -40.912  54.797 -48.337  1.00  0.00     0.152 A 
HETATM   21  N   UNL     1     -40.672  53.647 -47.702  1.00  0.00    -0.187 NA
HETATM   22  N   UNL     1     -40.480  52.774 -48.701  1.00  0.00    -0.289 N 
HETATM   23  H   UNL     1     -40.277  51.808 -48.465  1.00  0.00     0.188 HD
HETATM   24  C   UNL     1     -40.595  53.334 -49.941  1.00  0.00     0.123 A 
ENDBRANCH   3  19
TORSDOF 4
ENDMDL
MODEL 2
REMARK VINA RESULT:      -8.0      2.336      6.982
REMARK  4 active torsions:
REMARK  status: ('A' for Active; 'I' for Inactive)
REMARK    1  A    between atoms: C_4  and  C_5 
REMARK    2  A    between atoms: C_6  and  C_7 
REMARK       I    between atoms: C_7  and  N_8 
REMARK    3  A    between atoms: N_8  and  C_9 
REMARK    4  A    between atoms: C_11  and  C_12 
ROOT
HETATM    1  C   UNL     1     -40.326  52.479 -51.192  1.00  0.00     0.035 A 
HETATM    2  C   UNL     1     -40.855  53.358 -52.144  1.00  0.00     0.042 A 
HETATM    3  C   UNL     1     -40.725  53.113 -53.524  1.00  0.00    -0.021 A 
HETATM    4  C   UNL     1     -40.009  51.982 -53.934  1.00  0.00     0.012 A 
HETATM    5  C   UNL     1     -39.434  51.124 -52.995  1.00  0.00     0.003 A 
HETATM    6  C   UNL     1     -39.589  51.376 -51.633  1.00  0.00     0.029 A 
ENDROOT
BRANCH   1   7
HETATM    7  N   UNL     1     -40.437  52.647 -49.798  1.00  0.00    -0.324 N 
HETATM    8  C   UNL     1     -40.793  53.705 -49.010  1.00  0.00     0.245 C 
HETATM    9  O   UNL     1     -40.588  53.651 -47.797  1.00  0.00    -0.268 OA
HETATM   10  H   UNL     1     -40.176  51.849 -49.230  1.00  0.00     0.169 HD
BRANCH   8  11
HETATM   11  C   UNL     1     -41.492  54.861 -49.606  1.00  0.00     0.077 C 
HETATM   12  C   UNL     1     -40.795  55.954 -49.946  1.00  0.00     0.042 C 
BRANCH  12  13
HETATM   13  C   UNL     1     -41.445  57.059 -50.557  1.00  0.00     0.075 A 
HETATM   14  O   UNL     1     -41.233  58.373 -50.194  1.00  0.00    -0.316 OA
HETATM   15  C   UNL     1     -42.034  59.167 -50.952  1.00  0.00     0.050 A 
HETATM   16  C   UNL     1     -41.952  60.618 -50.695  1.00  0.00     0.076 C 
HETATM   17  C   UNL     1     -42.767  58.400 -51.824  1.00  0.00     0.035 A 
HETATM   18  C   UNL     1     -42.397  57.057 -51.568  1.00  0.00     0.039 A 
ENDBRANCH  12  13
ENDBRANCH   8  11
ENDBRANCH   1   7
BRANCH   3  19
HETATM   19  C   UNL     1     -41.321  54.005 -54.515  1.00  0.00     0.010 A 
HETATM   20  C   UNL     1     -42.587  53.966 -55.154  1.00  0.00     0.152 A 
HETATM   21  N   UNL     1     -42.778  54.978 -56.004  1.00  0.00    -0.187 NA
HETATM   22  N   UNL     1     -41.637  55.676 -55.917  1.00  0.00    -0.289 N 
HETATM   23  H   UNL     1     -41.538  56.512 -56.484  1.00  0.00     0.188 HD
HETATM   24  C   UNL     1     -40.738  55.141 -55.039  1.00  0.00     0.123 A 
ENDBRANCH   3  19
TORSDOF 4
ENDMDL
MODEL 3
REMARK VINA RESULT:      -7.9      2.284      5.035
REMARK  4 active torsions:
REMARK  status: ('A' for Active; 'I' for Inactive)
REMARK    1  A    between atoms: C_4  and  C_5 
REMARK    2  A    between atoms: C_6  and  C_7 
REMARK       I    between atoms: C_7  and  N_8 
REMARK    3  A    between atoms: N_8  and  C_9 
REMARK    4  A    between atoms: C_11  and  C_12 
ROOT
HETATM    1  C   UNL     1     -41.521  57.247 -50.629  1.00  0.00     0.035 A 
HETATM    2  C   UNL     1     -42.565  57.163 -51.558  1.00  0.00     0.042 A 
HETATM    3  C   UNL     1     -42.659  58.057 -52.642  1.00  0.00    -0.021 A 
HETATM    4  C   UNL     1     -41.701  59.072 -52.750  1.00  0.00     0.012 A 
HETATM    5  C   UNL     1     -40.684  59.197 -51.803  1.00  0.00     0.003 A 
HETATM    6  C   UNL     1     -40.600  58.291 -50.747  1.00  0.00     0.029 A 
ENDROOT
BRANCH   1   7
HETATM    7  N   UNL     1     -41.351  56.375 -49.536  1.00  0.00    -0.324 N 
HETATM    8  C   UNL     1     -41.056  55.044 -49.439  1.00  0.00     0.245 C 
HETATM    9  O   UNL     1     -41.189  54.474 -48.356  1.00  0.00    -0.268 OA
HETATM   10  H   UNL     1     -41.502  56.777 -48.618  1.00  0.00     0.169 HD
BRANCH   8  11
HETATM   11  C   UNL     1     -40.506  54.328 -50.607  1.00  0.00     0.077 C 
HETATM   12  C   UNL     1     -41.339  53.742 -51.479  1.00  0.00     0.042 C 
BRANCH  12  13
HETATM   13  C   UNL     1     -40.829  53.083 -52.629  1.00  0.00     0.075 A 
HETATM   14  O   UNL     1     -40.347  51.791 -52.624  1.00  0.00    -0.316 OA
HETATM   15  C   UNL     1     -39.910  51.488 -53.874  1.00  0.00     0.050 A 
HETATM   16  C   UNL     1     -39.344  50.137 -54.062  1.00  0.00     0.076 C 
HETATM   17  C   UNL     1     -40.107  52.556 -54.715  1.00  0.00     0.035 A 
HETATM   18  C   UNL     1     -40.686  53.575 -53.920  1.00  0.00     0.039 A 
ENDBRANCH  12  13
ENDBRANCH   8  11
ENDBRANCH   1   7
BRANCH   3  19
HETATM   19  C   UNL     1     -43.719  57.937 -53.638  1.00  0.00     0.010 A 
HETATM   20  C   UNL     1     -44.346  58.919 -54.447  1.00  0.00     0.152 A 
HETATM   21  N   UNL     1     -45.279  58.414 -55.259  1.00  0.00    -0.187 NA
HETATM   22  N   UNL     1     -45.258  57.103 -54.980  1.00  0.00    -0.289 N 
HETATM   23  H   UNL     1     -45.894  56.493 -55.481  1.00  0.00     0.188 HD
HETATM   24  C   UNL     1     -44.341  56.766 -54.025  1.00  0.00     0.123 A 
ENDBRANCH   3  19
TORSDOF 4
ENDMDL
MODEL 4
REMARK VINA RESULT:      -7.7      2.923      3.698
REMARK  4 active torsions:
REMARK  status: ('A' for Active; 'I' for Inactive)
REMARK    1  A    between atoms: C_4  and  C_5 
REMARK    2  A    between atoms: C_6  and  C_7 
REMARK       I    between atoms: C_7  and  N_8 
REMARK    3  A    between atoms: N_8  and  C_9 
REMARK    4  A    between atoms: C_11  and  C_12 
ROOT
HETATM    1  C   UNL     1     -43.378  57.195 -54.347  1.00  0.00     0.035 A 
HETATM    2  C   UNL     1     -42.250  57.762 -53.743  1.00  0.00     0.042 A 
HETATM    3  C   UNL     1     -42.284  58.237 -52.418  1.00  0.00    -0.021 A 
HETATM    4  C   UNL     1     -43.497  58.170 -51.721  1.00  0.00     0.012 A 
HETATM    5  C   UNL     1     -44.641  57.652 -52.328  1.00  0.00     0.003 A 
HETATM    6  C   UNL     1     -44.581  57.172 -53.635  1.00  0.00     0.029 A 
ENDROOT
BRANCH   1   7
HETATM    7  N   UNL     1     -43.410  56.680 -55.658  1.00  0.00    -0.324 N 
HETATM    8  C   UNL     1     -42.877  55.563 -56.237  1.00  0.00     0.245 C 
HETATM    9  O   UNL     1     -42.867  55.465 -57.463  1.00  0.00    -0.268 OA
HETATM   10  H   UNL     1     -43.894  57.244 -56.347  1.00  0.00     0.169 HD
BRANCH   8  11
HETATM   11  C   UNL     1     -42.395  54.456 -55.387  1.00  0.00     0.077 C 
HETATM   12  C   UNL     1     -41.088  54.355 -55.106  1.00  0.00     0.042 C 
BRANCH  12  13
HETATM   13  C   UNL     1     -40.613  53.319 -54.258  1.00  0.00     0.075 A 
HETATM   14  O   UNL     1     -40.278  52.056 -54.700  1.00  0.00    -0.316 OA
HETATM   15  C   UNL     1     -39.896  51.310 -53.630  1.00  0.00     0.050 A 
HETATM   16  C   UNL     1     -39.509  49.913 -53.909  1.00  0.00     0.076 C 
HETATM   17  C   UNL     1     -39.958  52.064 -52.484  1.00  0.00     0.035 A 
HETATM   18  C   UNL     1     -40.422  53.341 -52.883  1.00  0.00     0.039 A 
ENDBRANCH  12  13
ENDBRANCH   8  11
ENDBRANCH   1   7
BRANCH   3  19
HETATM   19  C   UNL     1     -41.094  58.782 -51.773  1.00  0.00     0.010 A 
HETATM   20  C   UNL     1     -39.757  58.893 -52.235  1.00  0.00     0.152 A 
HETATM   21  N   UNL     1     -38.940  59.468 -51.349  1.00  0.00    -0.187 NA
HETATM   22  N   UNL     1     -39.746  59.734 -50.310  1.00  0.00    -0.289 N 
HETATM   23  H   UNL     1     -39.347  60.182 -49.493  1.00  0.00     0.188 HD
HETATM   24  C   UNL     1     -41.040  59.349 -50.515  1.00  0.00     0.123 A 
ENDBRANCH   3  19
TORSDOF 4
ENDMDL
MODEL 5
REMARK VINA RESULT:      -7.7     13.443     15.372
REMARK  4 active torsions:
REMARK  status: ('A' for Active; 'I' for Inactive)
REMARK    1  A    between atoms: C_4  and  C_5 
REMARK    2  A    between atoms: C_6  and  C_7 
REMARK       I    between atoms: C_7  and  N_8 
REMARK    3  A    between atoms: N_8  and  C_9 
REMARK    4  A    between atoms: C_11  and  C_12 
ROOT
HETATM    1  C   UNL     1     -36.965  41.574 -54.879  1.00  0.00     0.035 A 
HETATM    2  C   UNL     1     -37.322  41.276 -56.200  1.00  0.00     0.042 A 
HETATM    3  C   UNL     1     -36.486  41.612 -57.281  1.00  0.00    -0.021 A 
HETATM    4  C   UNL     1     -35.296  42.299 -57.012  1.00  0.00     0.012 A 
HETATM    5  C   UNL     1     -34.953  42.647 -55.705  1.00  0.00     0.003 A 
HETATM    6  C   UNL     1     -35.787  42.289 -54.647  1.00  0.00     0.029 A 
ENDROOT
BRANCH   1   7
HETATM    7  N   UNL     1     -37.739  41.249 -53.748  1.00  0.00    -0.324 N 
HETATM    8  C   UNL     1     -37.495  40.496 -52.634  1.00  0.00     0.245 C 
HETATM    9  O   UNL     1     -38.431  40.186 -51.898  1.00  0.00    -0.268 OA
HETATM   10  H   UNL     1     -38.689  41.603 -53.741  1.00  0.00     0.169 HD
BRANCH   8  11
HETATM   11  C   UNL     1     -36.107  40.135 -52.283  1.00  0.00     0.077 C 
HETATM   12  C   UNL     1     -35.395  40.940 -51.481  1.00  0.00     0.042 C 
BRANCH  12  13
HETATM   13  C   UNL     1     -34.073  40.588 -51.101  1.00  0.00     0.075 A 
HETATM   14  O   UNL     1     -33.721  40.172 -49.834  1.00  0.00    -0.316 OA
HETATM   15  C   UNL     1     -32.381  39.951 -49.807  1.00  0.00     0.050 A 
HETATM   16  C   UNL     1     -31.815  39.506 -48.519  1.00  0.00     0.076 C 
HETATM   17  C   UNL     1     -31.837  40.200 -51.044  1.00  0.00     0.035 A 
HETATM   18  C   UNL     1     -32.913  40.613 -51.866  1.00  0.00     0.039 A 
ENDBRANCH  12  13
ENDBRANCH   8  11
ENDBRANCH   1   7
BRANCH   3  19
HETATM   19  C   UNL     1     -36.835  41.255 -58.653  1.00  0.00     0.010 A 
HETATM   20  C   UNL     1     -36.886  39.992 -59.298  1.00  0.00     0.152 A 
HETATM   21  N   UNL     1     -37.267  40.070 -60.576  1.00  0.00    -0.187 NA
HETATM   22  N   UNL     1     -37.466  41.383 -60.762  1.00  0.00    -0.289 N 
HETATM   23  H   UNL     1     -37.768  41.700 -61.677  1.00  0.00     0.188 HD
HETATM   24  C   UNL     1     -37.228  42.132 -59.645  1.00  0.00     0.123 A 
ENDBRANCH   3  19
TORSDOF 4
ENDMDL
MODEL 6
REMARK VINA RESULT:      -7.6      1.867      5.353
REMARK  4 active torsions:
REMARK  status: ('A' for Active; 'I' for Inactive)
REMARK    1  A    between atoms: C_4  and  C_5 
REMARK    2  A    between atoms: C_6  and  C_7 
REMARK       I    between atoms: C_7  and  N_8 
REMARK    3  A    between atoms: N_8  and  C_9 
REMARK    4  A    between atoms: C_11  and  C_12 
ROOT
HETATM    1  C   UNL     1     -41.041  53.480 -53.982  1.00  0.00     0.035 A 
HETATM    2  C   UNL     1     -41.184  53.882 -52.649  1.00  0.00     0.042 A 
HETATM    3  C   UNL     1     -40.520  53.215 -51.603  1.00  0.00    -0.021 A 
HETATM    4  C   UNL     1     -39.737  52.098 -51.920  1.00  0.00     0.012 A 
HETATM    5  C   UNL     1     -39.626  51.656 -53.239  1.00  0.00     0.003 A 
HETATM    6  C   UNL     1     -40.279  52.342 -54.261  1.00  0.00     0.029 A 
ENDROOT
BRANCH   1   7
HETATM    7  N   UNL     1     -41.656  54.113 -55.080  1.00  0.00    -0.324 N 
HETATM    8  C   UNL     1     -42.066  55.396 -55.309  1.00  0.00     0.245 C 
HETATM    9  O   UNL     1     -42.786  55.636 -56.278  1.00  0.00    -0.268 OA
HETATM   10  H   UNL     1     -41.885  53.517 -55.867  1.00  0.00     0.169 HD
BRANCH   8  11
HETATM   11  C   UNL     1     -41.575  56.488 -54.445  1.00  0.00     0.077 C 
HETATM   12  C   UNL     1     -42.412  57.074 -53.576  1.00  0.00     0.042 C 
BRANCH  12  13
HETATM   13  C   UNL     1     -41.947  58.099 -52.710  1.00  0.00     0.075 A 
HETATM   14  O   UNL     1     -40.675  58.139 -52.180  1.00  0.00    -0.316 OA
HETATM   15  C   UNL     1     -40.576  59.228 -51.373  1.00  0.00     0.050 A 
HETATM   16  C   UNL     1     -39.277  59.432 -50.702  1.00  0.00     0.076 C 
HETATM   17  C   UNL     1     -41.762  59.921 -51.370  1.00  0.00     0.035 A 
HETATM   18  C   UNL     1     -42.638  59.198 -52.216  1.00  0.00     0.039 A 
ENDBRANCH  12  13
ENDBRANCH   8  11
ENDBRANCH   1   7
BRANCH   3  19
HETATM   19  C   UNL     1     -40.630  53.667 -50.219  1.00  0.00     0.010 A 
HETATM   20  C   UNL     1     -41.025  54.919 -49.682  1.00  0.00     0.152 A 
HETATM   21  N   UNL     1     -41.011  54.946 -48.346  1.00  0.00    -0.187 NA
HETATM   22  N   UNL     1     -40.608  53.711 -48.015  1.00  0.00    -0.289 N 
HETATM   23  H   UNL     1     -40.517  53.481 -47.031  1.00  0.00     0.188 HD
HETATM   24  C   UNL     1     -40.373  52.908 -49.094  1.00  0.00     0.123 A 
ENDBRANCH   3  19
TORSDOF 4
ENDMDL
MODEL 7
REMARK VINA RESULT:      -7.5      3.061      5.802
REMARK  4 active torsions:
REMARK  status: ('A' for Active; 'I' for Inactive)
REMARK    1  A    between atoms: C_4  and  C_5 
REMARK    2  A    between atoms: C_6  and  C_7 
REMARK       I    between atoms: C_7  and  N_8 
REMARK    3  A    between atoms: N_8  and  C_9 
REMARK    4  A    between atoms: C_11  and  C_12 
ROOT
HETATM    1  C   UNL     1     -42.250  55.066 -50.442  1.00  0.00     0.035 A 
HETATM    2  C   UNL     1     -41.890  54.181 -51.465  1.00  0.00     0.042 A 
HETATM    3  C   UNL     1     -40.670  53.480 -51.437  1.00  0.00    -0.021 A 
HETATM    4  C   UNL     1     -39.790  53.721 -50.375  1.00  0.00     0.012 A 
HETATM    5  C   UNL     1     -40.115  54.637 -49.374  1.00  0.00     0.003 A 
HETATM    6  C   UNL     1     -41.336  55.308 -49.412  1.00  0.00     0.029 A 
ENDROOT
BRANCH   1   7
HETATM    7  N   UNL     1     -43.462  55.782 -50.392  1.00  0.00    -0.324 N 
HETATM    8  C   UNL     1     -44.003  56.758 -51.180  1.00  0.00     0.245 C 
HETATM    9  O   UNL     1     -44.988  57.379 -50.782  1.00  0.00    -0.268 OA
HETATM   10  H   UNL     1     -44.067  55.580 -49.604  1.00  0.00     0.169 HD
BRANCH   8  11
HETATM   11  C   UNL     1     -43.455  56.998 -52.530  1.00  0.00     0.077 C 
HETATM   12  C   UNL     1     -43.906  56.278 -53.568  1.00  0.00     0.042 C 
BRANCH  12  13
HETATM   13  C   UNL     1     -43.418  56.523 -54.878  1.00  0.00     0.075 A 
HETATM   14  O   UNL     1     -43.279  57.782 -55.425  1.00  0.00    -0.316 OA
HETATM   15  C   UNL     1     -42.822  57.654 -56.698  1.00  0.00     0.050 A 
HETATM   16  C   UNL     1     -42.620  58.907 -57.452  1.00  0.00     0.076 C 
HETATM   17  C   UNL     1     -42.641  56.327 -57.002  1.00  0.00     0.035 A 
HETATM   18  C   UNL     1     -43.028  55.606 -55.846  1.00  0.00     0.039 A 
ENDBRANCH  12  13
ENDBRANCH   8  11
ENDBRANCH   1   7
BRANCH   3  19
HETATM   19  C   UNL     1     -40.319  52.520 -52.480  1.00  0.00     0.010 A 
HETATM   20  C   UNL     1     -39.513  51.354 -52.432  1.00  0.00     0.152 A 
HETATM   21  N   UNL     1     -39.437  50.719 -53.605  1.00  0.00    -0.187 NA
HETATM   22  N   UNL     1     -40.196  51.471 -54.415  1.00  0.00    -0.289 N 
HETATM   23  H   UNL     1     -40.296  51.186 -55.384  1.00  0.00     0.188 HD
HETATM   24  C   UNL     1     -40.749  52.553 -53.791  1.00  0.00     0.123 A 
ENDBRANCH   3  19
TORSDOF 4
ENDMDL
MODEL 8
REMARK VINA RESULT:      -7.5      2.574      5.768
REMARK  4 active torsions:
REMARK  status: ('A' for Active; 'I' for Inactive)
REMARK    1  A    between atoms: C_4  and  C_5 
REMARK    2  A    between atoms: C_6  and  C_7 
REMARK       I    between atoms: C_7  and  N_8 
REMARK    3  A    between atoms: N_8  and  C_9 
REMARK    4  A    between atoms: C_11  and  C_12 
ROOT
HETATM    1  C   UNL     1     -40.811  54.341 -54.371  1.00  0.00     0.035 A 
HETATM    2  C   UNL     1     -40.943  54.649 -53.012  1.00  0.00     0.042 A 
HETATM    3  C   UNL     1     -40.588  53.727 -52.010  1.00  0.00    -0.021 A 
HETATM    4  C   UNL     1     -40.136  52.461 -52.403  1.00  0.00     0.012 A 
HETATM    5  C   UNL     1     -40.047  52.124 -53.754  1.00  0.00     0.003 A 
HETATM    6  C   UNL     1     -40.388  53.058 -54.730  1.00  0.00     0.029 A 
ENDROOT
BRANCH   1   7
HETATM    7  N   UNL     1     -41.125  55.221 -55.425  1.00  0.00    -0.324 N 
HETATM    8  C   UNL     1     -42.192  56.036 -55.676  1.00  0.00     0.245 C 
HETATM    9  O   UNL     1     -42.321  56.537 -56.793  1.00  0.00    -0.268 OA
HETATM   10  H   UNL     1     -40.458  55.258 -56.188  1.00  0.00     0.169 HD
BRANCH   8  11
HETATM   11  C   UNL     1     -43.129  56.374 -54.586  1.00  0.00     0.077 C 
HETATM   12  C   UNL     1     -42.988  57.531 -53.923  1.00  0.00     0.042 C 
BRANCH  12  13
HETATM   13  C   UNL     1     -43.903  57.889 -52.899  1.00  0.00     0.075 A 
HETATM   14  O   UNL     1     -44.687  59.024 -52.929  1.00  0.00    -0.316 OA
HETATM   15  C   UNL     1     -45.417  59.077 -51.785  1.00  0.00     0.050 A 
HETATM   16  C   UNL     1     -46.315  60.239 -51.633  1.00  0.00     0.076 C 
HETATM   17  C   UNL     1     -45.141  57.986 -50.998  1.00  0.00     0.035 A 
HETATM   18  C   UNL     1     -44.171  57.233 -51.704  1.00  0.00     0.039 A 
ENDBRANCH  12  13
ENDBRANCH   8  11
ENDBRANCH   1   7
BRANCH   3  19
HETATM   19  C   UNL     1     -40.678  54.068 -50.593  1.00  0.00     0.010 A 
HETATM   20  C   UNL     1     -41.086  55.266 -49.952  1.00  0.00     0.152 A 
HETATM   21  N   UNL     1     -41.044  55.189 -48.620  1.00  0.00    -0.187 NA
HETATM   22  N   UNL     1     -40.612  53.940 -48.393  1.00  0.00    -0.289 N 
HETATM   23  H   UNL     1     -40.497  53.637 -47.432  1.00  0.00     0.188 HD
HETATM   24  C   UNL     1     -40.384  53.229 -49.536  1.00  0.00     0.123 A 
ENDBRANCH   3  19
TORSDOF 4
ENDMDL
MODEL 9
REMARK VINA RESULT:      -7.5      3.284      5.830
REMARK  4 active torsions:
REMARK  status: ('A' for Active; 'I' for Inactive)
REMARK    1  A    between atoms: C_4  and  C_5 
REMARK    2  A    between atoms: C_6  and  C_7 
REMARK       I    between atoms: C_7  and  N_8 
REMARK    3  A    between atoms: N_8  and  C_9 
REMARK    4  A    between atoms: C_11  and  C_12 
ROOT
HETATM    1  C   UNL     1     -42.138  56.502 -52.638  1.00  0.00     0.035 A 
HETATM    2  C   UNL     1     -41.250  55.438 -52.833  1.00  0.00     0.042 A 
HETATM    3  C   UNL     1     -41.536  54.144 -52.357  1.00  0.00    -0.021 A 
HETATM    4  C   UNL     1     -42.720  53.948 -51.637  1.00  0.00     0.012 A 
HETATM    5  C   UNL     1     -43.590  55.012 -51.393  1.00  0.00     0.003 A 
HETATM    6  C   UNL     1     -43.296  56.281 -51.887  1.00  0.00     0.029 A 
ENDROOT
BRANCH   1   7
HETATM    7  N   UNL     1     -41.929  57.815 -53.105  1.00  0.00    -0.324 N 
HETATM    8  C   UNL     1     -41.752  58.346 -54.351  1.00  0.00     0.245 C 
HETATM    9  O   UNL     1     -41.362  59.508 -54.463  1.00  0.00    -0.268 OA
HETATM   10  H   UNL     1     -41.859  58.534 -52.395  1.00  0.00     0.169 HD
BRANCH   8  11
HETATM   11  C   UNL     1     -42.110  57.553 -55.544  1.00  0.00     0.077 C 
HETATM   12  C   UNL     1     -42.368  58.176 -56.703  1.00  0.00     0.042 C 
BRANCH  12  13
HETATM   13  C   UNL     1     -42.674  57.427 -57.869  1.00  0.00     0.075 A 
HETATM   14  O   UNL     1     -43.467  56.298 -57.873  1.00  0.00    -0.316 OA
HETATM   15  C   UNL     1     -43.526  55.814 -59.141  1.00  0.00     0.050 A 
HETATM   16  C   UNL     1     -44.327  54.591 -59.339  1.00  0.00     0.076 C 
HETATM   17  C   UNL     1     -42.795  56.613 -59.985  1.00  0.00     0.035 A 
HETATM   18  C   UNL     1     -42.246  57.637 -59.174  1.00  0.00     0.039 A 
ENDBRANCH  12  13
ENDBRANCH   8  11
ENDBRANCH   1   7
BRANCH   3  19
HETATM   19  C   UNL     1     -40.632  53.024 -52.605  1.00  0.00     0.010 A 
HETATM   20  C   UNL     1     -40.276  52.371 -53.813  1.00  0.00     0.152 A 
HETATM   21  N   UNL     1     -39.397  51.381 -53.635  1.00  0.00    -0.187 NA
HETATM   22  N   UNL     1     -39.179  51.392 -52.312  1.00  0.00    -0.289 N 
HETATM   23  H   UNL     1     -38.531  50.715 -51.924  1.00  0.00     0.188 HD
HETATM   24  C   UNL     1     -39.887  52.357 -51.653  1.00  0.00     0.123 A 
ENDBRANCH   3  19
TORSDOF 4
ENDMDL
MODEL 10
REMARK VINA RESULT:      -7.4      2.110      5.257
REMARK  4 active torsions:
REMARK  status: ('A' for Active; 'I' for Inactive)
REMARK    1  A    between atoms: C_4  and  C_5 
REMARK    2  A    between atoms: C_6  and  C_7 
REMARK       I    between atoms: C_7  and  N_8 
REMARK    3  A    between atoms: N_8  and  C_9 
REMARK    4  A    between atoms: C_11  and  C_12 
ROOT
HETATM    1  C   UNL     1     -40.382  53.124 -51.271  1.00  0.00     0.035 A 
HETATM    2  C   UNL     1     -40.886  54.412 -51.486  1.00  0.00     0.042 A 
HETATM    3  C   UNL     1     -41.171  55.279 -50.415  1.00  0.00    -0.021 A 
HETATM    4  C   UNL     1     -40.983  54.807 -49.110  1.00  0.00     0.012 A 
HETATM    5  C   UNL     1     -40.529  53.508 -48.881  1.00  0.00     0.003 A 
HETATM    6  C   UNL     1     -40.236  52.671 -49.957  1.00  0.00     0.029 A 
ENDROOT
BRANCH   1   7
HETATM    7  N   UNL     1     -40.053  52.212 -52.293  1.00  0.00    -0.324 N 
HETATM    8  C   UNL     1     -40.235  52.221 -53.647  1.00  0.00     0.245 C 
HETATM    9  O   UNL     1     -40.052  51.186 -54.288  1.00  0.00    -0.268 OA
HETATM   10  H   UNL     1     -39.618  51.347 -51.995  1.00  0.00     0.169 HD
BRANCH   8  11
HETATM   11  C   UNL     1     -40.567  53.485 -54.335  1.00  0.00     0.077 C 
HETATM   12  C   UNL     1     -41.830  53.719 -54.720  1.00  0.00     0.042 C 
BRANCH  12  13
HETATM   13  C   UNL     1     -42.174  54.945 -55.347  1.00  0.00     0.075 A 
HETATM   14  O   UNL     1     -42.706  55.038 -56.616  1.00  0.00    -0.316 OA
HETATM   15  C   UNL     1     -42.885  56.351 -56.916  1.00  0.00     0.050 A 
HETATM   16  C   UNL     1     -43.440  56.649 -58.251  1.00  0.00     0.076 C 
HETATM   17  C   UNL     1     -42.492  57.134 -55.858  1.00  0.00     0.035 A 
HETATM   18  C   UNL     1     -42.033  56.239 -54.861  1.00  0.00     0.039 A 
ENDBRANCH  12  13
ENDBRANCH   8  11
ENDBRANCH   1   7
BRANCH   3  19
HETATM   19  C   UNL     1     -41.648  56.640 -50.642  1.00  0.00     0.010 A 
HETATM   20  C   UNL     1     -40.964  57.882 -50.594  1.00  0.00     0.152 A 
HETATM   21  N   UNL     1     -41.748  58.926 -50.878  1.00  0.00    -0.187 NA
HETATM   22  N   UNL     1     -42.942  58.362 -51.113  1.00  0.00    -0.289 N 
HETATM   23  H   UNL     1     -43.720  58.966 -51.355  1.00  0.00     0.188 HD
HETATM   24  C   UNL     1     -42.934  57.002 -50.991  1.00  0.00     0.123 A 
ENDBRANCH   3  19
TORSDOF 4
ENDMDL
