MODEL 1
REMARK VINA RESULT:      -8.2      0.000      0.000
REMARK  9 active torsions:
REMARK  status: ('A' for Active; 'I' for Inactive)
REMARK    1  A    between atoms: O_2  and  C_3 
REMARK    2  A    between atoms: C_6  and  N_7 
REMARK    3  A    between atoms: N_10  and  C_11 
REMARK    4  A    between atoms: C_11  and  C_12 
REMARK    5  A    between atoms: C_14  and  O_15 
REMARK    6  A    between atoms: C_17  and  O_18 
REMARK    7  A    between atoms: C_22  and  C_23 
REMARK    8  A    between atoms: C_23  and  C_24 
REMARK       I    between atoms: C_24  and  N_25 
REMARK    9  A    between atoms: N_25  and  C_26 
ROOT
HETATM    1  N   UNL     1     -42.909  57.037 -55.691  1.00  0.00    -0.232 N 
HETATM    2  C   UNL     1     -43.776  57.650 -54.810  1.00  0.00     0.333 C 
HETATM    3  O   UNL     1     -44.520  58.601 -55.001  1.00  0.00    -0.246 OA
HETATM    4  N   UNL     1     -43.689  56.998 -53.584  1.00  0.00    -0.315 N 
HETATM    5  C   UNL     1     -42.870  55.809 -53.651  1.00  0.00     0.191 C 
HETATM    6  C   UNL     1     -42.245  56.028 -55.030  1.00  0.00     0.256 C 
HETATM    7  O   UNL     1     -41.274  55.381 -55.415  1.00  0.00    -0.270 OA
ENDROOT
BRANCH   4   8
HETATM    8  C   UNL     1     -44.505  57.353 -52.430  1.00  0.00     0.167 C 
BRANCH   8   9
HETATM    9  C   UNL     1     -44.085  58.668 -51.815  1.00  0.00    -0.037 A 
HETATM   10  C   UNL     1     -42.779  58.848 -51.333  1.00  0.00     0.048 A 
HETATM   11  C   UNL     1     -42.377  60.071 -50.776  1.00  0.00     0.102 A 
HETATM   12  C   UNL     1     -43.299  61.132 -50.686  1.00  0.00     0.101 A 
HETATM   13  C   UNL     1     -44.605  60.948 -51.146  1.00  0.00     0.040 A 
HETATM   14  C   UNL     1     -44.995  59.727 -51.699  1.00  0.00     0.012 A 
BRANCH  11  15
HETATM   15  O   UNL     1     -41.116  60.329 -50.299  1.00  0.00    -0.353 OA
HETATM   16  C   UNL     1     -40.090  59.392 -50.595  1.00  0.00     0.210 C 
ENDBRANCH  11  15
BRANCH  12  17
HETATM   17  O   UNL     1     -42.827  62.300 -50.138  1.00  0.00    -0.353 OA
HETATM   18  C   UNL     1     -43.211  63.520 -50.754  1.00  0.00     0.210 C 
ENDBRANCH  12  17
ENDBRANCH   8   9
ENDBRANCH   4   8
BRANCH   5  19
HETATM   19  C   UNL     1     -41.795  55.665 -52.585  1.00  0.00     0.138 C 
BRANCH  19  20
HETATM   20  C   UNL     1     -41.636  54.204 -52.203  1.00  0.00     0.224 C 
HETATM   21  N   UNL     1     -40.660  53.555 -52.932  1.00  0.00    -0.327 N 
HETATM   22  H   UNL     1     -40.269  54.065 -53.723  1.00  0.00     0.169 HD
HETATM   23  O   UNL     1     -42.367  53.711 -51.349  1.00  0.00    -0.273 OA
BRANCH  21  24
HETATM   24  C   UNL     1     -40.242  52.214 -52.831  1.00  0.00     0.034 A 
HETATM   25  C   UNL     1     -39.757  51.627 -51.663  1.00  0.00     0.029 A 
HETATM   26  C   UNL     1     -39.367  50.283 -51.660  1.00  0.00     0.002 A 
HETATM   27  C   UNL     1     -39.451  49.521 -52.824  1.00  0.00     0.000 A 
HETATM   28  C   UNL     1     -39.927  50.101 -53.995  1.00  0.00     0.002 A 
HETATM   29  C   UNL     1     -40.322  51.440 -53.998  1.00  0.00     0.029 A 
ENDBRANCH  21  24
ENDBRANCH  19  20
ENDBRANCH   5  19
BRANCH   1  30
HETATM   30  C   UNL     1     -42.649  57.444 -57.034  1.00  0.00     0.047 A 
HETATM   31  C   UNL     1     -42.077  58.687 -57.338  1.00  0.00     0.033 A 
HETATM   32  C   UNL     1     -41.788  59.053 -58.661  1.00  0.00     0.039 A 
HETATM   33  C   UNL     1     -42.063  58.191 -59.718  1.00  0.00     0.068 A 
HETATM   34  C   UNL     1     -42.669  56.973 -59.445  1.00  0.00     0.039 A 
HETATM   35  C   UNL     1     -42.959  56.608 -58.121  1.00  0.00     0.033 A 
BRANCH  33  36
HETATM   36  O   UNL     1     -41.709  58.651 -60.955  1.00  0.00    -0.356 OA
HETATM   37  C   UNL     1     -41.919  60.038 -61.196  1.00  0.00     0.210 C 
ENDBRANCH  33  36
ENDBRANCH   1  30
TORSDOF 9
ENDMDL
MODEL 2
REMARK VINA RESULT:      -8.1      2.241      7.044
REMARK  9 active torsions:
REMARK  status: ('A' for Active; 'I' for Inactive)
REMARK    1  A    between atoms: O_2  and  C_3 
REMARK    2  A    between atoms: C_6  and  N_7 
REMARK    3  A    between atoms: N_10  and  C_11 
REMARK    4  A    between atoms: C_11  and  C_12 
REMARK    5  A    between atoms: C_14  and  O_15 
REMARK    6  A    between atoms: C_17  and  O_18 
REMARK    7  A    between atoms: C_22  and  C_23 
REMARK    8  A    between atoms: C_23  and  C_24 
REMARK       I    between atoms: C_24  and  N_25 
REMARK    9  A    between atoms: N_25  and  C_26 
ROOT
HETATM    1  N   UNL     1     -43.784  59.224 -51.632  1.00  0.00    -0.232 N 
HETATM    2  C   UNL     1     -42.937  59.337 -52.715  1.00  0.00     0.333 C 
HETATM    3  O   UNL     1     -42.521  60.348 -53.262  1.00  0.00    -0.246 OA
HETATM    4  N   UNL     1     -42.592  58.058 -53.138  1.00  0.00    -0.315 N 
HETATM    5  C   UNL     1     -43.074  57.034 -52.238  1.00  0.00     0.191 C 
HETATM    6  C   UNL     1     -44.012  57.889 -51.384  1.00  0.00     0.256 C 
HETATM    7  O   UNL     1     -44.842  57.389 -50.629  1.00  0.00    -0.270 OA
ENDROOT
BRANCH   4   8
HETATM    8  C   UNL     1     -41.670  57.800 -54.236  1.00  0.00     0.167 C 
BRANCH   8   9
HETATM    9  C   UNL     1     -42.389  57.429 -55.513  1.00  0.00    -0.037 A 
HETATM   10  C   UNL     1     -43.273  58.333 -56.124  1.00  0.00     0.048 A 
HETATM   11  C   UNL     1     -43.930  58.003 -57.318  1.00  0.00     0.102 A 
HETATM   12  C   UNL     1     -43.713  56.743 -57.909  1.00  0.00     0.101 A 
HETATM   13  C   UNL     1     -42.850  55.835 -57.290  1.00  0.00     0.040 A 
HETATM   14  C   UNL     1     -42.200  56.173 -56.102  1.00  0.00     0.012 A 
BRANCH  11  15
HETATM   15  O   UNL     1     -44.795  58.837 -57.983  1.00  0.00    -0.353 OA
HETATM   16  C   UNL     1     -46.035  59.140 -57.360  1.00  0.00     0.210 C 
ENDBRANCH  11  15
BRANCH  12  17
HETATM   17  O   UNL     1     -44.385  56.499 -59.080  1.00  0.00    -0.353 OA
HETATM   18  C   UNL     1     -44.308  55.190 -59.625  1.00  0.00     0.210 C 
ENDBRANCH  12  17
ENDBRANCH   8   9
ENDBRANCH   4   8
BRANCH   5  19
HETATM   19  C   UNL     1     -43.825  55.873 -52.871  1.00  0.00     0.138 C 
BRANCH  19  20
HETATM   20  C   UNL     1     -43.155  54.560 -52.505  1.00  0.00     0.224 C 
HETATM   21  N   UNL     1     -42.006  54.316 -53.230  1.00  0.00    -0.327 N 
HETATM   22  H   UNL     1     -41.818  54.945 -54.010  1.00  0.00     0.169 HD
HETATM   23  O   UNL     1     -43.665  53.825 -51.666  1.00  0.00    -0.273 OA
BRANCH  21  24
HETATM   24  C   UNL     1     -41.135  53.214 -53.141  1.00  0.00     0.034 A 
HETATM   25  C   UNL     1     -40.355  52.916 -52.024  1.00  0.00     0.029 A 
HETATM   26  C   UNL     1     -39.519  51.794 -52.027  1.00  0.00     0.002 A 
HETATM   27  C   UNL     1     -39.451  50.968 -53.149  1.00  0.00     0.000 A 
HETATM   28  C   UNL     1     -40.221  51.262 -54.270  1.00  0.00     0.002 A 
HETATM   29  C   UNL     1     -41.059  52.378 -54.265  1.00  0.00     0.029 A 
ENDBRANCH  21  24
ENDBRANCH  19  20
ENDBRANCH   5  19
BRANCH   1  30
HETATM   30  C   UNL     1     -44.418  60.303 -50.945  1.00  0.00     0.047 A 
HETATM   31  C   UNL     1     -45.712  60.734 -51.268  1.00  0.00     0.033 A 
HETATM   32  C   UNL     1     -46.337  61.767 -50.554  1.00  0.00     0.039 A 
HETATM   33  C   UNL     1     -45.689  62.400 -49.498  1.00  0.00     0.068 A 
HETATM   34  C   UNL     1     -44.390  62.020 -49.188  1.00  0.00     0.039 A 
HETATM   35  C   UNL     1     -43.766  60.987 -49.904  1.00  0.00     0.033 A 
BRANCH  33  36
HETATM   36  O   UNL     1     -46.413  63.370 -48.864  1.00  0.00    -0.356 OA
HETATM   37  C   UNL     1     -47.487  62.920 -48.045  1.00  0.00     0.210 C 
ENDBRANCH  33  36
ENDBRANCH   1  30
TORSDOF 9
ENDMDL
MODEL 3
REMARK VINA RESULT:      -7.8      2.169      7.259
REMARK  9 active torsions:
REMARK  status: ('A' for Active; 'I' for Inactive)
REMARK    1  A    between atoms: O_2  and  C_3 
REMARK    2  A    between atoms: C_6  and  N_7 
REMARK    3  A    between atoms: N_10  and  C_11 
REMARK    4  A    between atoms: C_11  and  C_12 
REMARK    5  A    between atoms: C_14  and  O_15 
REMARK    6  A    between atoms: C_17  and  O_18 
REMARK    7  A    between atoms: C_22  and  C_23 
REMARK    8  A    between atoms: C_23  and  C_24 
REMARK       I    between atoms: C_24  and  N_25 
REMARK    9  A    between atoms: N_25  and  C_26 
ROOT
HETATM    1  N   UNL     1     -43.190  58.823 -53.215  1.00  0.00    -0.232 N 
HETATM    2  C   UNL     1     -43.124  59.416 -54.458  1.00  0.00     0.333 C 
HETATM    3  O   UNL     1     -43.582  60.489 -54.823  1.00  0.00    -0.246 OA
HETATM    4  N   UNL     1     -42.417  58.573 -55.310  1.00  0.00    -0.315 N 
HETATM    5  C   UNL     1     -41.838  57.447 -54.611  1.00  0.00     0.191 C 
HETATM    6  C   UNL     1     -42.567  57.597 -53.274  1.00  0.00     0.256 C 
HETATM    7  O   UNL     1     -42.574  56.701 -52.434  1.00  0.00    -0.270 OA
ENDROOT
BRANCH   4   8
HETATM    8  C   UNL     1     -42.115  58.906 -56.695  1.00  0.00     0.167 C 
BRANCH   8   9
HETATM    9  C   UNL     1     -43.006  58.170 -57.669  1.00  0.00    -0.037 A 
HETATM   10  C   UNL     1     -44.404  58.265 -57.572  1.00  0.00     0.048 A 
HETATM   11  C   UNL     1     -45.237  57.599 -58.481  1.00  0.00     0.102 A 
HETATM   12  C   UNL     1     -44.668  56.812 -59.502  1.00  0.00     0.101 A 
HETATM   13  C   UNL     1     -43.278  56.699 -59.587  1.00  0.00     0.040 A 
HETATM   14  C   UNL     1     -42.457  57.366 -58.675  1.00  0.00     0.012 A 
BRANCH  11  15
HETATM   15  O   UNL     1     -46.609  57.656 -58.463  1.00  0.00    -0.353 OA
HETATM   16  C   UNL     1     -47.224  58.917 -58.685  1.00  0.00     0.210 C 
ENDBRANCH  11  15
BRANCH  12  17
HETATM   17  O   UNL     1     -45.549  56.199 -60.358  1.00  0.00    -0.353 OA
HETATM   18  C   UNL     1     -45.108  55.031 -61.033  1.00  0.00     0.210 C 
ENDBRANCH  12  17
ENDBRANCH   8   9
ENDBRANCH   4   8
BRANCH   5  19
HETATM   19  C   UNL     1     -42.089  56.074 -55.214  1.00  0.00     0.138 C 
BRANCH  19  20
HETATM   20  C   UNL     1     -41.026  55.097 -54.739  1.00  0.00     0.224 C 
HETATM   21  N   UNL     1     -41.520  54.127 -53.892  1.00  0.00    -0.327 N 
HETATM   22  H   UNL     1     -42.478  54.252 -53.567  1.00  0.00     0.169 HD
HETATM   23  O   UNL     1     -39.859  55.246 -55.087  1.00  0.00    -0.273 OA
BRANCH  21  24
HETATM   24  C   UNL     1     -40.826  53.065 -53.282  1.00  0.00     0.034 A 
HETATM   25  C   UNL     1     -40.318  51.961 -53.966  1.00  0.00     0.029 A 
HETATM   26  C   UNL     1     -39.638  50.954 -53.272  1.00  0.00     0.002 A 
HETATM   27  C   UNL     1     -39.468  51.040 -51.892  1.00  0.00     0.000 A 
HETATM   28  C   UNL     1     -39.977  52.134 -51.200  1.00  0.00     0.002 A 
HETATM   29  C   UNL     1     -40.651  53.142 -51.892  1.00  0.00     0.029 A 
ENDBRANCH  21  24
ENDBRANCH  19  20
ENDBRANCH   5  19
BRANCH   1  30
HETATM   30  C   UNL     1     -43.885  59.332 -52.076  1.00  0.00     0.047 A 
HETATM   31  C   UNL     1     -45.174  58.899 -51.736  1.00  0.00     0.033 A 
HETATM   32  C   UNL     1     -45.826  59.377 -50.590  1.00  0.00     0.039 A 
HETATM   33  C   UNL     1     -45.211  60.302 -49.751  1.00  0.00     0.068 A 
HETATM   34  C   UNL     1     -43.953  60.779 -50.092  1.00  0.00     0.039 A 
HETATM   35  C   UNL     1     -43.302  60.300 -51.240  1.00  0.00     0.033 A 
BRANCH  33  36
HETATM   36  O   UNL     1     -45.936  60.669 -48.653  1.00  0.00    -0.356 OA
HETATM   37  C   UNL     1     -45.285  61.529 -47.725  1.00  0.00     0.210 C 
ENDBRANCH  33  36
ENDBRANCH   1  30
TORSDOF 9
ENDMDL
MODEL 4
REMARK VINA RESULT:      -7.8      2.177      3.135
REMARK  9 active torsions:
REMARK  status: ('A' for Active; 'I' for Inactive)
REMARK    1  A    between atoms: O_2  and  C_3 
REMARK    2  A    between atoms: C_6  and  N_7 
REMARK    3  A    between atoms: N_10  and  C_11 
REMARK    4  A    between atoms: C_11  and  C_12 
REMARK    5  A    between atoms: C_14  and  O_15 
REMARK    6  A    between atoms: C_17  and  O_18 
REMARK    7  A    between atoms: C_22  and  C_23 
REMARK    8  A    between atoms: C_23  and  C_24 
REMARK       I    between atoms: C_24  and  N_25 
REMARK    9  A    between atoms: N_25  and  C_26 
ROOT
HETATM    1  N   UNL     1     -43.277  57.706 -55.440  1.00  0.00    -0.232 N 
HETATM    2  C   UNL     1     -42.465  58.740 -55.025  1.00  0.00     0.333 C 
HETATM    3  O   UNL     1     -41.785  59.501 -55.697  1.00  0.00    -0.246 OA
HETATM    4  N   UNL     1     -42.523  58.813 -53.636  1.00  0.00    -0.315 N 
HETATM    5  C   UNL     1     -43.516  57.920 -53.081  1.00  0.00     0.191 C 
HETATM    6  C   UNL     1     -43.821  57.095 -54.333  1.00  0.00     0.256 C 
HETATM    7  O   UNL     1     -44.443  56.037 -54.278  1.00  0.00    -0.270 OA
ENDROOT
BRANCH   4   8
HETATM    8  C   UNL     1     -41.820  59.824 -52.859  1.00  0.00     0.167 C 
BRANCH   8   9
HETATM    9  C   UNL     1     -42.761  60.653 -52.014  1.00  0.00    -0.037 A 
HETATM   10  C   UNL     1     -43.717  61.487 -52.615  1.00  0.00     0.048 A 
HETATM   11  C   UNL     1     -44.604  62.245 -51.838  1.00  0.00     0.102 A 
HETATM   12  C   UNL     1     -44.529  62.182 -50.433  1.00  0.00     0.101 A 
HETATM   13  C   UNL     1     -43.564  61.369 -49.833  1.00  0.00     0.040 A 
HETATM   14  C   UNL     1     -42.686  60.618 -50.616  1.00  0.00     0.012 A 
BRANCH  11  15
HETATM   15  O   UNL     1     -45.575  63.070 -52.351  1.00  0.00    -0.353 OA
HETATM   16  C   UNL     1     -46.639  62.470 -53.075  1.00  0.00     0.210 C 
ENDBRANCH  11  15
BRANCH  12  17
HETATM   17  O   UNL     1     -45.437  62.947 -49.743  1.00  0.00    -0.353 OA
HETATM   18  C   UNL     1     -46.243  62.297 -48.770  1.00  0.00     0.210 C 
ENDBRANCH  12  17
ENDBRANCH   8   9
ENDBRANCH   4   8
BRANCH   5  19
HETATM   19  C   UNL     1     -43.060  57.025 -51.940  1.00  0.00     0.138 C 
BRANCH  19  20
HETATM   20  C   UNL     1     -41.919  56.136 -52.402  1.00  0.00     0.224 C 
HETATM   21  N   UNL     1     -42.241  54.794 -52.400  1.00  0.00    -0.327 N 
HETATM   22  H   UNL     1     -43.125  54.539 -51.961  1.00  0.00     0.169 HD
HETATM   23  O   UNL     1     -40.835  56.632 -52.695  1.00  0.00    -0.273 OA
BRANCH  21  24
HETATM   24  C   UNL     1     -41.436  53.702 -52.778  1.00  0.00     0.034 A 
HETATM   25  C   UNL     1     -41.425  53.139 -54.053  1.00  0.00     0.029 A 
HETATM   26  C   UNL     1     -40.587  52.054 -54.336  1.00  0.00     0.002 A 
HETATM   27  C   UNL     1     -39.762  51.522 -53.346  1.00  0.00     0.000 A 
HETATM   28  C   UNL     1     -39.772  52.074 -52.069  1.00  0.00     0.002 A 
HETATM   29  C   UNL     1     -40.604  53.160 -51.788  1.00  0.00     0.029 A 
ENDBRANCH  21  24
ENDBRANCH  19  20
ENDBRANCH   5  19
BRANCH   1  30
HETATM   30  C   UNL     1     -43.445  57.258 -56.786  1.00  0.00     0.047 A 
HETATM   31  C   UNL     1     -42.654  56.240 -57.336  1.00  0.00     0.033 A 
HETATM   32  C   UNL     1     -42.862  55.782 -58.645  1.00  0.00     0.039 A 
HETATM   33  C   UNL     1     -43.863  56.327 -59.444  1.00  0.00     0.068 A 
HETATM   34  C   UNL     1     -44.630  57.366 -58.935  1.00  0.00     0.039 A 
HETATM   35  C   UNL     1     -44.420  57.824 -57.626  1.00  0.00     0.033 A 
BRANCH  33  36
HETATM   36  O   UNL     1     -43.983  55.776 -60.688  1.00  0.00    -0.356 OA
HETATM   37  C   UNL     1     -45.297  55.406 -61.090  1.00  0.00     0.210 C 
ENDBRANCH  33  36
ENDBRANCH   1  30
TORSDOF 9
ENDMDL
MODEL 5
REMARK VINA RESULT:      -7.8      1.978      2.563
REMARK  9 active torsions:
REMARK  status: ('A' for Active; 'I' for Inactive)
REMARK    1  A    between atoms: O_2  and  C_3 
REMARK    2  A    between atoms: C_6  and  N_7 
REMARK    3  A    between atoms: N_10  and  C_11 
REMARK    4  A    between atoms: C_11  and  C_12 
REMARK    5  A    between atoms: C_14  and  O_15 
REMARK    6  A    between atoms: C_17  and  O_18 
REMARK    7  A    between atoms: C_22  and  C_23 
REMARK    8  A    between atoms: C_23  and  C_24 
REMARK       I    between atoms: C_24  and  N_25 
REMARK    9  A    between atoms: N_25  and  C_26 
ROOT
HETATM    1  N   UNL     1     -44.006  57.518 -56.875  1.00  0.00    -0.232 N 
HETATM    2  C   UNL     1     -44.495  57.839 -55.626  1.00  0.00     0.333 C 
HETATM    3  O   UNL     1     -45.257  58.741 -55.308  1.00  0.00    -0.246 OA
HETATM    4  N   UNL     1     -43.972  56.938 -54.704  1.00  0.00    -0.315 N 
HETATM    5  C   UNL     1     -43.232  55.870 -55.340  1.00  0.00     0.191 C 
HETATM    6  C   UNL     1     -43.147  56.449 -56.754  1.00  0.00     0.256 C 
HETATM    7  O   UNL     1     -42.382  55.991 -57.599  1.00  0.00    -0.270 OA
ENDROOT
BRANCH   4   8
HETATM    8  C   UNL     1     -44.315  56.952 -53.289  1.00  0.00     0.167 C 
BRANCH   8   9
HETATM    9  C   UNL     1     -43.231  57.577 -52.442  1.00  0.00    -0.037 A 
HETATM   10  C   UNL     1     -42.606  56.842 -51.421  1.00  0.00     0.048 A 
HETATM   11  C   UNL     1     -41.588  57.409 -50.643  1.00  0.00     0.102 A 
HETATM   12  C   UNL     1     -41.191  58.741 -50.877  1.00  0.00     0.101 A 
HETATM   13  C   UNL     1     -41.826  59.481 -51.877  1.00  0.00     0.040 A 
HETATM   14  C   UNL     1     -42.839  58.906 -52.647  1.00  0.00     0.012 A 
BRANCH  11  15
HETATM   15  O   UNL     1     -40.920  56.752 -49.640  1.00  0.00    -0.353 OA
HETATM   16  C   UNL     1     -41.189  55.368 -49.461  1.00  0.00     0.210 C 
ENDBRANCH  11  15
BRANCH  12  17
HETATM   17  O   UNL     1     -40.182  59.222 -50.079  1.00  0.00    -0.353 OA
HETATM   18  C   UNL     1     -38.932  59.500 -50.693  1.00  0.00     0.210 C 
ENDBRANCH  12  17
ENDBRANCH   8   9
ENDBRANCH   4   8
BRANCH   5  19
HETATM   19  C   UNL     1     -41.845  55.584 -54.787  1.00  0.00     0.138 C 
BRANCH  19  20
HETATM   20  C   UNL     1     -41.843  54.252 -54.058  1.00  0.00     0.224 C 
HETATM   21  N   UNL     1     -40.631  53.596 -54.129  1.00  0.00    -0.327 N 
HETATM   22  H   UNL     1     -39.939  53.988 -54.767  1.00  0.00     0.169 HD
HETATM   23  O   UNL     1     -42.867  53.848 -53.515  1.00  0.00    -0.273 OA
BRANCH  21  24
HETATM   24  C   UNL     1     -40.273  52.358 -53.561  1.00  0.00     0.034 A 
HETATM   25  C   UNL     1     -39.870  52.188 -52.237  1.00  0.00     0.029 A 
HETATM   26  C   UNL     1     -39.535  50.915 -51.761  1.00  0.00     0.002 A 
HETATM   27  C   UNL     1     -39.594  49.808 -52.606  1.00  0.00     0.000 A 
HETATM   28  C   UNL     1     -39.989  49.970 -53.930  1.00  0.00     0.002 A 
HETATM   29  C   UNL     1     -40.328  51.238 -54.404  1.00  0.00     0.029 A 
ENDBRANCH  21  24
ENDBRANCH  19  20
ENDBRANCH   5  19
BRANCH   1  30
HETATM   30  C   UNL     1     -44.249  58.239 -58.083  1.00  0.00     0.047 A 
HETATM   31  C   UNL     1     -43.320  59.148 -58.608  1.00  0.00     0.033 A 
HETATM   32  C   UNL     1     -43.555  59.815 -59.819  1.00  0.00     0.039 A 
HETATM   33  C   UNL     1     -44.724  59.595 -60.541  1.00  0.00     0.068 A 
HETATM   34  C   UNL     1     -45.678  58.731 -60.020  1.00  0.00     0.039 A 
HETATM   35  C   UNL     1     -45.441  58.066 -58.807  1.00  0.00     0.033 A 
BRANCH  33  36
HETATM   36  O   UNL     1     -44.823  60.281 -61.718  1.00  0.00    -0.356 OA
HETATM   37  C   UNL     1     -46.132  60.681 -62.108  1.00  0.00     0.210 C 
ENDBRANCH  33  36
ENDBRANCH   1  30
TORSDOF 9
ENDMDL
MODEL 6
REMARK VINA RESULT:      -7.7      2.105      8.106
REMARK  9 active torsions:
REMARK  status: ('A' for Active; 'I' for Inactive)
REMARK    1  A    between atoms: O_2  and  C_3 
REMARK    2  A    between atoms: C_6  and  N_7 
REMARK    3  A    between atoms: N_10  and  C_11 
REMARK    4  A    between atoms: C_11  and  C_12 
REMARK    5  A    between atoms: C_14  and  O_15 
REMARK    6  A    between atoms: C_17  and  O_18 
REMARK    7  A    between atoms: C_22  and  C_23 
REMARK    8  A    between atoms: C_23  and  C_24 
REMARK       I    between atoms: C_24  and  N_25 
REMARK    9  A    between atoms: N_25  and  C_26 
ROOT
HETATM    1  N   UNL     1     -43.882  58.790 -52.859  1.00  0.00    -0.232 N 
HETATM    2  C   UNL     1     -44.153  57.451 -52.672  1.00  0.00     0.333 C 
HETATM    3  O   UNL     1     -44.540  56.880 -51.662  1.00  0.00    -0.246 OA
HETATM    4  N   UNL     1     -43.913  56.783 -53.868  1.00  0.00    -0.315 N 
HETATM    5  C   UNL     1     -43.623  57.691 -54.955  1.00  0.00     0.191 C 
HETATM    6  C   UNL     1     -43.435  58.977 -54.148  1.00  0.00     0.256 C 
HETATM    7  O   UNL     1     -42.926  59.982 -54.637  1.00  0.00    -0.270 OA
ENDROOT
BRANCH   4   8
HETATM    8  C   UNL     1     -44.141  55.355 -54.046  1.00  0.00     0.167 C 
BRANCH   8   9
HETATM    9  C   UNL     1     -42.934  54.529 -53.665  1.00  0.00    -0.037 A 
HETATM   10  C   UNL     1     -42.606  54.321 -52.315  1.00  0.00     0.048 A 
HETATM   11  C   UNL     1     -41.498  53.543 -51.954  1.00  0.00     0.102 A 
HETATM   12  C   UNL     1     -40.691  52.969 -52.957  1.00  0.00     0.101 A 
HETATM   13  C   UNL     1     -41.004  53.193 -54.300  1.00  0.00     0.040 A 
HETATM   14  C   UNL     1     -42.110  53.970 -54.649  1.00  0.00     0.012 A 
BRANCH  11  15
HETATM   15  O   UNL     1     -41.122  53.280 -50.660  1.00  0.00    -0.353 OA
HETATM   16  C   UNL     1     -41.395  54.269 -49.677  1.00  0.00     0.210 C 
ENDBRANCH  11  15
BRANCH  12  17
HETATM   17  O   UNL     1     -39.630  52.213 -52.523  1.00  0.00    -0.353 OA
HETATM   18  C   UNL     1     -39.516  50.889 -53.024  1.00  0.00     0.210 C 
ENDBRANCH  12  17
ENDBRANCH   8   9
ENDBRANCH   4   8
BRANCH   5  19
HETATM   19  C   UNL     1     -42.385  57.384 -55.783  1.00  0.00     0.138 C 
BRANCH  19  20
HETATM   20  C   UNL     1     -42.755  57.291 -57.254  1.00  0.00     0.224 C 
HETATM   21  N   UNL     1     -43.828  56.457 -57.492  1.00  0.00    -0.327 N 
HETATM   22  H   UNL     1     -44.150  55.895 -56.705  1.00  0.00     0.169 HD
HETATM   23  O   UNL     1     -42.094  57.897 -58.091  1.00  0.00    -0.273 OA
BRANCH  21  24
HETATM   24  C   UNL     1     -44.441  56.152 -58.723  1.00  0.00     0.034 A 
HETATM   25  C   UNL     1     -44.094  55.066 -59.526  1.00  0.00     0.029 A 
HETATM   26  C   UNL     1     -44.764  54.842 -60.734  1.00  0.00     0.002 A 
HETATM   27  C   UNL     1     -45.776  55.705 -61.151  1.00  0.00     0.000 A 
HETATM   28  C   UNL     1     -46.123  56.795 -60.359  1.00  0.00     0.002 A 
HETATM   29  C   UNL     1     -45.459  57.016 -59.151  1.00  0.00     0.029 A 
ENDBRANCH  21  24
ENDBRANCH  19  20
ENDBRANCH   5  19
BRANCH   1  30
HETATM   30  C   UNL     1     -43.939  59.808 -51.859  1.00  0.00     0.047 A 
HETATM   31  C   UNL     1     -45.143  60.423 -51.492  1.00  0.00     0.033 A 
HETATM   32  C   UNL     1     -45.189  61.390 -50.476  1.00  0.00     0.039 A 
HETATM   33  C   UNL     1     -44.034  61.771 -49.799  1.00  0.00     0.068 A 
HETATM   34  C   UNL     1     -42.823  61.206 -50.176  1.00  0.00     0.039 A 
HETATM   35  C   UNL     1     -42.779  60.240 -51.193  1.00  0.00     0.033 A 
BRANCH  33  36
HETATM   36  O   UNL     1     -44.213  62.699 -48.813  1.00  0.00    -0.356 OA
HETATM   37  C   UNL     1     -45.014  62.298 -47.707  1.00  0.00     0.210 C 
ENDBRANCH  33  36
ENDBRANCH   1  30
TORSDOF 9
ENDMDL
MODEL 7
REMARK VINA RESULT:      -7.7      2.964      8.543
REMARK  9 active torsions:
REMARK  status: ('A' for Active; 'I' for Inactive)
REMARK    1  A    between atoms: O_2  and  C_3 
REMARK    2  A    between atoms: C_6  and  N_7 
REMARK    3  A    between atoms: N_10  and  C_11 
REMARK    4  A    between atoms: C_11  and  C_12 
REMARK    5  A    between atoms: C_14  and  O_15 
REMARK    6  A    between atoms: C_17  and  O_18 
REMARK    7  A    between atoms: C_22  and  C_23 
REMARK    8  A    between atoms: C_23  and  C_24 
REMARK       I    between atoms: C_24  and  N_25 
REMARK    9  A    between atoms: N_25  and  C_26 
ROOT
HETATM    1  N   UNL     1     -41.904  55.241 -54.119  1.00  0.00    -0.232 N 
HETATM    2  C   UNL     1     -41.362  56.485 -54.367  1.00  0.00     0.333 C 
HETATM    3  O   UNL     1     -40.209  56.864 -54.218  1.00  0.00    -0.246 OA
HETATM    4  N   UNL     1     -42.370  57.316 -54.843  1.00  0.00    -0.315 N 
HETATM    5  C   UNL     1     -43.603  56.601 -55.086  1.00  0.00     0.191 C 
HETATM    6  C   UNL     1     -43.252  55.282 -54.395  1.00  0.00     0.256 C 
HETATM    7  O   UNL     1     -44.106  54.439 -54.131  1.00  0.00    -0.270 OA
ENDROOT
BRANCH   4   8
HETATM    8  C   UNL     1     -42.142  58.695 -55.253  1.00  0.00     0.167 C 
BRANCH   8   9
HETATM    9  C   UNL     1     -42.439  58.914 -56.719  1.00  0.00    -0.037 A 
HETATM   10  C   UNL     1     -42.218  57.890 -57.655  1.00  0.00     0.048 A 
HETATM   11  C   UNL     1     -42.507  58.080 -59.013  1.00  0.00     0.102 A 
HETATM   12  C   UNL     1     -43.016  59.318 -59.452  1.00  0.00     0.101 A 
HETATM   13  C   UNL     1     -43.217  60.345 -58.526  1.00  0.00     0.040 A 
HETATM   14  C   UNL     1     -42.925  60.146 -57.175  1.00  0.00     0.012 A 
BRANCH  11  15
HETATM   15  O   UNL     1     -42.334  57.125 -59.984  1.00  0.00    -0.353 OA
HETATM   16  C   UNL     1     -42.878  55.834 -59.749  1.00  0.00     0.210 C 
ENDBRANCH  11  15
BRANCH  12  17
HETATM   17  O   UNL     1     -43.282  59.422 -60.795  1.00  0.00    -0.353 OA
HETATM   18  C   UNL     1     -44.123  60.485 -61.220  1.00  0.00     0.210 C 
ENDBRANCH  12  17
ENDBRANCH   8   9
ENDBRANCH   4   8
BRANCH   5  19
HETATM   19  C   UNL     1     -44.866  57.205 -54.493  1.00  0.00     0.138 C 
BRANCH  19  20
HETATM   20  C   UNL     1     -45.496  58.166 -55.486  1.00  0.00     0.224 C 
HETATM   21  N   UNL     1     -45.772  57.583 -56.706  1.00  0.00    -0.327 N 
HETATM   22  H   UNL     1     -45.399  56.646 -56.857  1.00  0.00     0.169 HD
HETATM   23  O   UNL     1     -45.676  59.339 -55.175  1.00  0.00    -0.273 OA
BRANCH  21  24
HETATM   24  C   UNL     1     -46.363  58.170 -57.841  1.00  0.00     0.034 A 
HETATM   25  C   UNL     1     -47.075  59.369 -57.825  1.00  0.00     0.029 A 
HETATM   26  C   UNL     1     -47.626  59.876 -59.008  1.00  0.00     0.002 A 
HETATM   27  C   UNL     1     -47.475  59.186 -60.209  1.00  0.00     0.000 A 
HETATM   28  C   UNL     1     -46.771  57.986 -60.233  1.00  0.00     0.002 A 
HETATM   29  C   UNL     1     -46.217  57.482 -59.055  1.00  0.00     0.029 A 
ENDBRANCH  21  24
ENDBRANCH  19  20
ENDBRANCH   5  19
BRANCH   1  30
HETATM   30  C   UNL     1     -41.218  54.122 -53.558  1.00  0.00     0.047 A 
HETATM   31  C   UNL     1     -40.998  53.997 -52.180  1.00  0.00     0.033 A 
HETATM   32  C   UNL     1     -40.360  52.869 -51.642  1.00  0.00     0.039 A 
HETATM   33  C   UNL     1     -39.923  51.834 -52.463  1.00  0.00     0.068 A 
HETATM   34  C   UNL     1     -40.092  51.956 -53.836  1.00  0.00     0.039 A 
HETATM   35  C   UNL     1     -40.728  53.086 -54.373  1.00  0.00     0.033 A 
BRANCH  33  36
HETATM   36  O   UNL     1     -39.344  50.779 -51.817  1.00  0.00    -0.356 OA
HETATM   37  C   UNL     1     -39.588  49.491 -52.369  1.00  0.00     0.210 C 
ENDBRANCH  33  36
ENDBRANCH   1  30
TORSDOF 9
ENDMDL
MODEL 8
REMARK VINA RESULT:      -7.7      2.472      6.027
REMARK  9 active torsions:
REMARK  status: ('A' for Active; 'I' for Inactive)
REMARK    1  A    between atoms: O_2  and  C_3 
REMARK    2  A    between atoms: C_6  and  N_7 
REMARK    3  A    between atoms: N_10  and  C_11 
REMARK    4  A    between atoms: C_11  and  C_12 
REMARK    5  A    between atoms: C_14  and  O_15 
REMARK    6  A    between atoms: C_17  and  O_18 
REMARK    7  A    between atoms: C_22  and  C_23 
REMARK    8  A    between atoms: C_23  and  C_24 
REMARK       I    between atoms: C_24  and  N_25 
REMARK    9  A    between atoms: N_25  and  C_26 
ROOT
HETATM    1  N   UNL     1     -43.269  57.939 -58.111  1.00  0.00    -0.232 N 
HETATM    2  C   UNL     1     -43.174  56.563 -58.096  1.00  0.00     0.333 C 
HETATM    3  O   UNL     1     -42.953  55.798 -59.024  1.00  0.00    -0.246 OA
HETATM    4  N   UNL     1     -43.377  56.124 -56.792  1.00  0.00    -0.315 N 
HETATM    5  C   UNL     1     -43.455  57.218 -55.850  1.00  0.00     0.191 C 
HETATM    6  C   UNL     1     -43.568  58.378 -56.841  1.00  0.00     0.256 C 
HETATM    7  O   UNL     1     -43.907  59.504 -56.488  1.00  0.00    -0.270 OA
ENDROOT
BRANCH   4   8
HETATM    8  C   UNL     1     -43.301  54.723 -56.399  1.00  0.00     0.167 C 
BRANCH   8   9
HETATM    9  C   UNL     1     -42.478  54.523 -55.147  1.00  0.00    -0.037 A 
HETATM   10  C   UNL     1     -43.101  54.262 -53.915  1.00  0.00     0.048 A 
HETATM   11  C   UNL     1     -42.344  54.059 -52.753  1.00  0.00     0.102 A 
HETATM   12  C   UNL     1     -40.939  54.129 -52.815  1.00  0.00     0.101 A 
HETATM   13  C   UNL     1     -40.318  54.410 -54.034  1.00  0.00     0.040 A 
HETATM   14  C   UNL     1     -41.081  54.611 -55.186  1.00  0.00     0.012 A 
BRANCH  11  15
HETATM   15  O   UNL     1     -42.878  53.784 -51.518  1.00  0.00    -0.353 OA
HETATM   16  C   UNL     1     -43.579  54.824 -50.852  1.00  0.00     0.210 C 
ENDBRANCH  11  15
BRANCH  12  17
HETATM   17  O   UNL     1     -40.269  53.910 -51.636  1.00  0.00    -0.353 OA
HETATM   18  C   UNL     1     -39.730  52.614 -51.415  1.00  0.00     0.210 C 
ENDBRANCH  12  17
ENDBRANCH   8   9
ENDBRANCH   4   8
BRANCH   5  19
HETATM   19  C   UNL     1     -44.637  57.206 -54.893  1.00  0.00     0.138 C 
BRANCH  19  20
HETATM   20  C   UNL     1     -44.182  57.618 -53.503  1.00  0.00     0.224 C 
HETATM   21  N   UNL     1     -42.840  57.932 -53.441  1.00  0.00    -0.327 N 
HETATM   22  H   UNL     1     -42.284  57.717 -54.269  1.00  0.00     0.169 HD
HETATM   23  O   UNL     1     -44.980  57.611 -52.570  1.00  0.00    -0.273 OA
BRANCH  21  24
HETATM   24  C   UNL     1     -42.094  58.363 -52.327  1.00  0.00     0.034 A 
HETATM   25  C   UNL     1     -41.163  57.574 -51.652  1.00  0.00     0.029 A 
HETATM   26  C   UNL     1     -40.467  58.092 -50.554  1.00  0.00     0.002 A 
HETATM   27  C   UNL     1     -40.702  59.395 -50.121  1.00  0.00     0.000 A 
HETATM   28  C   UNL     1     -41.634  60.186 -50.784  1.00  0.00     0.002 A 
HETATM   29  C   UNL     1     -42.325  59.673 -51.883  1.00  0.00     0.029 A 
ENDBRANCH  21  24
ENDBRANCH  19  20
ENDBRANCH   5  19
BRANCH   1  30
HETATM   30  C   UNL     1     -43.188  58.774 -59.267  1.00  0.00     0.047 A 
HETATM   31  C   UNL     1     -44.314  59.087 -60.039  1.00  0.00     0.033 A 
HETATM   32  C   UNL     1     -44.225  59.945 -61.146  1.00  0.00     0.039 A 
HETATM   33  C   UNL     1     -43.009  60.513 -61.514  1.00  0.00     0.068 A 
HETATM   34  C   UNL     1     -41.872  60.183 -60.789  1.00  0.00     0.039 A 
HETATM   35  C   UNL     1     -41.963  59.324 -59.683  1.00  0.00     0.033 A 
BRANCH  33  36
HETATM   36  O   UNL     1     -43.057  61.353 -62.591  1.00  0.00    -0.356 OA
HETATM   37  C   UNL     1     -44.062  61.077 -63.560  1.00  0.00     0.210 C 
ENDBRANCH  33  36
ENDBRANCH   1  30
TORSDOF 9
ENDMDL
MODEL 9
REMARK VINA RESULT:      -7.7      2.306      8.410
REMARK  9 active torsions:
REMARK  status: ('A' for Active; 'I' for Inactive)
REMARK    1  A    between atoms: O_2  and  C_3 
REMARK    2  A    between atoms: C_6  and  N_7 
REMARK    3  A    between atoms: N_10  and  C_11 
REMARK    4  A    between atoms: C_11  and  C_12 
REMARK    5  A    between atoms: C_14  and  O_15 
REMARK    6  A    between atoms: C_17  and  O_18 
REMARK    7  A    between atoms: C_22  and  C_23 
REMARK    8  A    between atoms: C_23  and  C_24 
REMARK       I    between atoms: C_24  and  N_25 
REMARK    9  A    between atoms: N_25  and  C_26 
ROOT
HETATM    1  N   UNL     1     -43.394  60.644 -51.316  1.00  0.00    -0.232 N 
HETATM    2  C   UNL     1     -42.168  60.015 -51.249  1.00  0.00     0.333 C 
HETATM    3  O   UNL     1     -41.441  59.849 -50.280  1.00  0.00    -0.246 OA
HETATM    4  N   UNL     1     -41.839  59.559 -52.522  1.00  0.00    -0.315 N 
HETATM    5  C   UNL     1     -42.924  59.728 -53.463  1.00  0.00     0.191 C 
HETATM    6  C   UNL     1     -43.831  60.627 -52.621  1.00  0.00     0.256 C 
HETATM    7  O   UNL     1     -44.778  61.237 -53.112  1.00  0.00    -0.270 OA
ENDROOT
BRANCH   4   8
HETATM    8  C   UNL     1     -40.628  58.803 -52.812  1.00  0.00     0.167 C 
BRANCH   8   9
HETATM    9  C   UNL     1     -40.905  57.332 -53.016  1.00  0.00    -0.037 A 
HETATM   10  C   UNL     1     -41.300  56.521 -51.939  1.00  0.00     0.048 A 
HETATM   11  C   UNL     1     -41.575  55.159 -52.124  1.00  0.00     0.102 A 
HETATM   12  C   UNL     1     -41.443  54.589 -53.405  1.00  0.00     0.101 A 
HETATM   13  C   UNL     1     -41.030  55.388 -54.474  1.00  0.00     0.040 A 
HETATM   14  C   UNL     1     -40.758  56.744 -54.279  1.00  0.00     0.012 A 
BRANCH  11  15
HETATM   15  O   UNL     1     -41.980  54.307 -51.127  1.00  0.00    -0.353 OA
HETATM   16  C   UNL     1     -41.963  54.793 -49.792  1.00  0.00     0.210 C 
ENDBRANCH  11  15
BRANCH  12  17
HETATM   17  O   UNL     1     -41.739  53.252 -53.507  1.00  0.00    -0.353 OA
HETATM   18  C   UNL     1     -40.674  52.361 -53.808  1.00  0.00     0.210 C 
ENDBRANCH  12  17
ENDBRANCH   8   9
ENDBRANCH   4   8
BRANCH   5  19
HETATM   19  C   UNL     1     -42.576  60.393 -54.785  1.00  0.00     0.138 C 
BRANCH  19  20
HETATM   20  C   UNL     1     -43.144  59.582 -55.938  1.00  0.00     0.224 C 
HETATM   21  N   UNL     1     -42.205  58.775 -56.548  1.00  0.00    -0.327 N 
HETATM   22  H   UNL     1     -41.235  58.916 -56.269  1.00  0.00     0.169 HD
HETATM   23  O   UNL     1     -44.320  59.715 -56.260  1.00  0.00    -0.273 OA
BRANCH  21  24
HETATM   24  C   UNL     1     -42.385  57.889 -57.628  1.00  0.00     0.034 A 
HETATM   25  C   UNL     1     -41.967  58.147 -58.933  1.00  0.00     0.029 A 
HETATM   26  C   UNL     1     -42.188  57.202 -59.942  1.00  0.00     0.002 A 
HETATM   27  C   UNL     1     -42.832  56.000 -59.654  1.00  0.00     0.000 A 
HETATM   28  C   UNL     1     -43.258  55.738 -58.356  1.00  0.00     0.002 A 
HETATM   29  C   UNL     1     -43.034  56.678 -57.348  1.00  0.00     0.029 A 
ENDBRANCH  21  24
ENDBRANCH  19  20
ENDBRANCH   5  19
BRANCH   1  30
HETATM   30  C   UNL     1     -44.057  61.308 -50.240  1.00  0.00     0.047 A 
HETATM   31  C   UNL     1     -45.089  60.699 -49.513  1.00  0.00     0.033 A 
HETATM   32  C   UNL     1     -45.700  61.349 -48.430  1.00  0.00     0.039 A 
HETATM   33  C   UNL     1     -45.301  62.625 -48.044  1.00  0.00     0.068 A 
HETATM   34  C   UNL     1     -44.311  63.265 -48.777  1.00  0.00     0.039 A 
HETATM   35  C   UNL     1     -43.701  62.614 -49.860  1.00  0.00     0.033 A 
BRANCH  33  36
HETATM   36  O   UNL     1     -45.953  63.138 -46.958  1.00  0.00    -0.356 OA
HETATM   37  C   UNL     1     -46.883  62.274 -46.315  1.00  0.00     0.210 C 
ENDBRANCH  33  36
ENDBRANCH   1  30
TORSDOF 9
ENDMDL
MODEL 10
REMARK VINA RESULT:      -7.6      2.896      8.864
REMARK  9 active torsions:
REMARK  status: ('A' for Active; 'I' for Inactive)
REMARK    1  A    between atoms: O_2  and  C_3 
REMARK    2  A    between atoms: C_6  and  N_7 
REMARK    3  A    between atoms: N_10  and  C_11 
REMARK    4  A    between atoms: C_11  and  C_12 
REMARK    5  A    between atoms: C_14  and  O_15 
REMARK    6  A    between atoms: C_17  and  O_18 
REMARK    7  A    between atoms: C_22  and  C_23 
REMARK    8  A    between atoms: C_23  and  C_24 
REMARK       I    between atoms: C_24  and  N_25 
REMARK    9  A    between atoms: N_25  and  C_26 
ROOT
HETATM    1  N   UNL     1     -44.746  60.476 -50.064  1.00  0.00    -0.232 N 
HETATM    2  C   UNL     1     -45.289  59.334 -50.616  1.00  0.00     0.333 C 
HETATM    3  O   UNL     1     -46.331  58.763 -50.330  1.00  0.00    -0.246 OA
HETATM    4  N   UNL     1     -44.434  58.882 -51.616  1.00  0.00    -0.315 N 
HETATM    5  C   UNL     1     -43.357  59.809 -51.879  1.00  0.00     0.191 C 
HETATM    6  C   UNL     1     -43.539  60.734 -50.673  1.00  0.00     0.256 C 
HETATM    7  O   UNL     1     -42.679  61.545 -50.340  1.00  0.00    -0.270 OA
ENDROOT
BRANCH   4   8
HETATM    8  C   UNL     1     -44.719  57.718 -52.444  1.00  0.00     0.167 C 
BRANCH   8   9
HETATM    9  C   UNL     1     -43.817  56.549 -52.120  1.00  0.00    -0.037 A 
HETATM   10  C   UNL     1     -43.127  55.873 -53.140  1.00  0.00     0.048 A 
HETATM   11  C   UNL     1     -42.276  54.799 -52.846  1.00  0.00     0.102 A 
HETATM   12  C   UNL     1     -42.117  54.381 -51.510  1.00  0.00     0.101 A 
HETATM   13  C   UNL     1     -42.819  55.038 -50.496  1.00  0.00     0.040 A 
HETATM   14  C   UNL     1     -43.664  56.107 -50.801  1.00  0.00     0.012 A 
BRANCH  11  15
HETATM   15  O   UNL     1     -41.556  54.100 -53.783  1.00  0.00    -0.353 OA
HETATM   16  C   UNL     1     -40.503  54.779 -54.452  1.00  0.00     0.210 C 
ENDBRANCH  11  15
BRANCH  12  17
HETATM   17  O   UNL     1     -41.259  53.328 -51.302  1.00  0.00    -0.353 OA
HETATM   18  C   UNL     1     -40.010  53.607 -50.687  1.00  0.00     0.210 C 
ENDBRANCH  12  17
ENDBRANCH   8   9
ENDBRANCH   4   8
BRANCH   5  19
HETATM   19  C   UNL     1     -41.952  59.227 -51.908  1.00  0.00     0.138 C 
BRANCH  19  20
HETATM   20  C   UNL     1     -41.416  59.239 -53.329  1.00  0.00     0.224 C 
HETATM   21  N   UNL     1     -42.410  59.213 -54.285  1.00  0.00    -0.327 N 
HETATM   22  H   UNL     1     -43.358  59.043 -53.951  1.00  0.00     0.169 HD
HETATM   23  O   UNL     1     -40.205  59.232 -53.527  1.00  0.00    -0.273 OA
BRANCH  21  24
HETATM   24  C   UNL     1     -42.275  59.229 -55.687  1.00  0.00     0.034 A 
HETATM   25  C   UNL     1     -42.374  58.100 -56.499  1.00  0.00     0.029 A 
HETATM   26  C   UNL     1     -42.228  58.215 -57.886  1.00  0.00     0.002 A 
HETATM   27  C   UNL     1     -41.974  59.456 -58.468  1.00  0.00     0.000 A 
HETATM   28  C   UNL     1     -41.866  60.586 -57.664  1.00  0.00     0.002 A 
HETATM   29  C   UNL     1     -42.018  60.473 -56.281  1.00  0.00     0.029 A 
ENDBRANCH  21  24
ENDBRANCH  19  20
ENDBRANCH   5  19
BRANCH   1  30
HETATM   30  C   UNL     1     -45.280  61.214 -48.964  1.00  0.00     0.047 A 
HETATM   31  C   UNL     1     -46.300  62.161 -49.128  1.00  0.00     0.033 A 
HETATM   32  C   UNL     1     -46.844  62.845 -48.030  1.00  0.00     0.039 A 
HETATM   33  C   UNL     1     -46.385  62.604 -46.739  1.00  0.00     0.068 A 
HETATM   34  C   UNL     1     -45.347  61.701 -46.557  1.00  0.00     0.039 A 
HETATM   35  C   UNL     1     -44.803  61.019 -47.656  1.00  0.00     0.033 A 
BRANCH  33  36
HETATM   36  O   UNL     1     -47.014  63.312 -45.753  1.00  0.00    -0.356 OA
HETATM   37  C   UNL     1     -46.175  64.063 -44.883  1.00  0.00     0.210 C 
ENDBRANCH  33  36
ENDBRANCH   1  30
TORSDOF 9
ENDMDL
