MODEL 1
REMARK VINA RESULT:      -8.7      0.000      0.000
REMARK  5 active torsions:
REMARK  status: ('A' for Active; 'I' for Inactive)
REMARK    1  A    between atoms: C_7  and  C_8 
REMARK    2  A    between atoms: N_9  and  N_10 
REMARK       I    between atoms: N_10  and  C_11 
REMARK    3  A    between atoms: C_11  and  C_12 
REMARK    4  A    between atoms: C_12  and  N_13 
REMARK       I    between atoms: N_13  and  C_14 
REMARK    5  A    between atoms: C_14  and  C_15 
ROOT
HETATM    1  N   UNL     1     -42.587  55.646 -54.553  1.00  0.00    -0.246 N 
HETATM    2  C   UNL     1     -43.335  56.695 -54.038  1.00  0.00     0.255 C 
HETATM    3  O   UNL     1     -43.759  56.772 -52.887  1.00  0.00    -0.270 OA
HETATM    4  H   UNL     1     -42.400  55.619 -55.557  1.00  0.00     0.192 HD
ENDROOT
BRANCH   1   5
HETATM    5  N   UNL     1     -42.241  54.590 -53.763  1.00  0.00    -0.184 NA
HETATM    6  C   UNL     1     -41.017  54.591 -53.345  1.00  0.00     0.153 C 
BRANCH   6   7
HETATM    7  C   UNL     1     -40.521  53.505 -52.520  1.00  0.00     0.018 A 
HETATM    8  C   UNL     1     -40.244  53.548 -51.158  1.00  0.00     0.018 A 
HETATM    9  C   UNL     1     -40.357  54.656 -50.171  1.00  0.00     0.069 C 
HETATM   10  N   UNL     1     -39.814  52.302 -50.779  1.00  0.00    -0.358 N 
HETATM   11  H   UNL     1     -39.546  52.043 -49.841  1.00  0.00     0.166 HD
HETATM   12  C   UNL     1     -39.798  51.446 -51.853  1.00  0.00     0.043 A 
HETATM   13  C   UNL     1     -40.232  52.171 -52.962  1.00  0.00     0.004 A 
HETATM   14  C   UNL     1     -39.432  50.095 -51.922  1.00  0.00     0.030 A 
HETATM   15  C   UNL     1     -40.298  51.509 -54.208  1.00  0.00     0.014 A 
HETATM   16  C   UNL     1     -39.932  50.160 -54.296  1.00  0.00     0.001 A 
HETATM   17  C   UNL     1     -39.507  49.466 -53.167  1.00  0.00     0.002 A 
ENDBRANCH   6   7
ENDBRANCH   1   5
BRANCH   2  18
HETATM   18  C   UNL     1     -43.714  57.737 -55.094  1.00  0.00     0.227 C 
BRANCH  18  19
HETATM   19  N   UNL     1     -44.303  57.181 -56.309  1.00  0.00    -0.348 N 
HETATM   20  C   UNL     1     -43.689  57.299 -57.535  1.00  0.00     0.252 C 
HETATM   21  O   UNL     1     -42.701  58.015 -57.681  1.00  0.00    -0.268 OA
HETATM   22  H   UNL     1     -45.231  56.790 -56.226  1.00  0.00     0.163 HD
BRANCH  20  23
HETATM   23  C   UNL     1     -44.288  56.589 -58.702  1.00  0.00     0.033 A 
HETATM   24  C   UNL     1     -45.452  57.133 -59.266  1.00  0.00     0.041 A 
HETATM   25  C   UNL     1     -46.048  56.521 -60.368  1.00  0.00     0.035 A 
HETATM   26 CL   UNL     1     -47.471  57.200 -61.055  1.00  0.00    -0.084 Cl
HETATM   27  C   UNL     1     -45.497  55.368 -60.919  1.00  0.00     0.024 A 
HETATM   28  C   UNL     1     -44.336  54.825 -60.371  1.00  0.00     0.003 A 
HETATM   29  C   UNL     1     -43.728  55.435 -59.268  1.00  0.00     0.017 A 
ENDBRANCH  20  23
ENDBRANCH  18  19
ENDBRANCH   2  18
TORSDOF 5
ENDMDL
MODEL 2
REMARK VINA RESULT:      -8.7      1.630      1.999
REMARK  5 active torsions:
REMARK  status: ('A' for Active; 'I' for Inactive)
REMARK    1  A    between atoms: C_7  and  C_8 
REMARK    2  A    between atoms: N_9  and  N_10 
REMARK       I    between atoms: N_10  and  C_11 
REMARK    3  A    between atoms: C_11  and  C_12 
REMARK    4  A    between atoms: C_12  and  N_13 
REMARK       I    between atoms: N_13  and  C_14 
REMARK    5  A    between atoms: C_14  and  C_15 
ROOT
HETATM    1  N   UNL     1     -42.450  56.414 -53.587  1.00  0.00    -0.246 N 
HETATM    2  C   UNL     1     -43.077  57.511 -53.016  1.00  0.00     0.255 C 
HETATM    3  O   UNL     1     -43.396  57.617 -51.834  1.00  0.00    -0.270 OA
HETATM    4  H   UNL     1     -42.350  56.375 -54.604  1.00  0.00     0.192 HD
ENDROOT
BRANCH   1   5
HETATM    5  N   UNL     1     -42.115  55.334 -52.825  1.00  0.00    -0.184 NA
HETATM    6  C   UNL     1     -40.943  54.840 -53.054  1.00  0.00     0.153 C 
BRANCH   6   7
HETATM    7  C   UNL     1     -40.483  53.671 -52.325  1.00  0.00     0.018 A 
HETATM    8  C   UNL     1     -40.193  53.593 -50.968  1.00  0.00     0.018 A 
HETATM    9  C   UNL     1     -40.256  54.620 -49.892  1.00  0.00     0.069 C 
HETATM   10  N   UNL     1     -39.808  52.304 -50.696  1.00  0.00    -0.358 N 
HETATM   11  H   UNL     1     -39.543  51.959 -49.784  1.00  0.00     0.166 HD
HETATM   12  C   UNL     1     -39.833  51.539 -51.836  1.00  0.00     0.043 A 
HETATM   13  C   UNL     1     -40.248  52.368 -52.877  1.00  0.00     0.004 A 
HETATM   14  C   UNL     1     -39.520  50.186 -52.019  1.00  0.00     0.030 A 
HETATM   15  C   UNL     1     -40.349  51.813 -54.172  1.00  0.00     0.014 A 
HETATM   16  C   UNL     1     -40.035  50.463 -54.374  1.00  0.00     0.001 A 
HETATM   17  C   UNL     1     -39.628  49.664 -53.310  1.00  0.00     0.002 A 
ENDBRANCH   6   7
ENDBRANCH   1   5
BRANCH   2  18
HETATM   18  C   UNL     1     -43.468  58.580 -54.041  1.00  0.00     0.227 C 
BRANCH  18  19
HETATM   19  N   UNL     1     -43.465  58.119 -55.426  1.00  0.00    -0.348 N 
HETATM   20  C   UNL     1     -42.530  58.558 -56.336  1.00  0.00     0.252 C 
HETATM   21  O   UNL     1     -41.760  59.474 -56.061  1.00  0.00    -0.268 OA
HETATM   22  H   UNL     1     -44.240  57.539 -55.714  1.00  0.00     0.163 HD
BRANCH  20  23
HETATM   23  C   UNL     1     -42.514  57.938 -57.694  1.00  0.00     0.033 A 
HETATM   24  C   UNL     1     -43.229  56.744 -57.871  1.00  0.00     0.041 A 
HETATM   25  C   UNL     1     -43.263  56.127 -59.121  1.00  0.00     0.035 A 
HETATM   26 CL   UNL     1     -44.147  54.666 -59.328  1.00  0.00    -0.084 Cl
HETATM   27  C   UNL     1     -42.591  56.687 -60.203  1.00  0.00     0.024 A 
HETATM   28  C   UNL     1     -41.886  57.878 -60.039  1.00  0.00     0.003 A 
HETATM   29  C   UNL     1     -41.850  58.507 -58.790  1.00  0.00     0.017 A 
ENDBRANCH  20  23
ENDBRANCH  18  19
ENDBRANCH   2  18
TORSDOF 5
ENDMDL
MODEL 3
REMARK VINA RESULT:      -8.5      3.465      3.957
REMARK  5 active torsions:
REMARK  status: ('A' for Active; 'I' for Inactive)
REMARK    1  A    between atoms: C_7  and  C_8 
REMARK    2  A    between atoms: N_9  and  N_10 
REMARK       I    between atoms: N_10  and  C_11 
REMARK    3  A    between atoms: C_11  and  C_12 
REMARK    4  A    between atoms: C_12  and  N_13 
REMARK       I    between atoms: N_13  and  C_14 
REMARK    5  A    between atoms: C_14  and  C_15 
ROOT
HETATM    1  N   UNL     1     -41.644  57.599 -53.668  1.00  0.00    -0.246 N 
HETATM    2  C   UNL     1     -41.120  58.882 -53.717  1.00  0.00     0.255 C 
HETATM    3  O   UNL     1     -40.029  59.226 -53.266  1.00  0.00    -0.270 OA
HETATM    4  H   UNL     1     -42.614  57.450 -53.953  1.00  0.00     0.192 HD
ENDROOT
BRANCH   1   5
HETATM    5  N   UNL     1     -40.932  56.582 -53.102  1.00  0.00    -0.184 NA
HETATM    6  C   UNL     1     -41.625  55.541 -52.774  1.00  0.00     0.153 C 
BRANCH   6   7
HETATM    7  C   UNL     1     -40.985  54.403 -52.137  1.00  0.00     0.018 A 
HETATM    8  C   UNL     1     -40.645  54.277 -50.796  1.00  0.00     0.018 A 
HETATM    9  C   UNL     1     -40.815  55.213 -49.651  1.00  0.00     0.069 C 
HETATM   10  N   UNL     1     -40.076  53.041 -50.622  1.00  0.00    -0.358 N 
HETATM   11  H   UNL     1     -39.738  52.677 -49.743  1.00  0.00     0.166 HD
HETATM   12  C   UNL     1     -40.032  52.356 -51.812  1.00  0.00     0.043 A 
HETATM   13  C   UNL     1     -40.591  53.185 -52.784  1.00  0.00     0.004 A 
HETATM   14  C   UNL     1     -39.540  51.075 -52.095  1.00  0.00     0.030 A 
HETATM   15  C   UNL     1     -40.655  52.707 -54.112  1.00  0.00     0.014 A 
HETATM   16  C   UNL     1     -40.164  51.430 -54.413  1.00  0.00     0.001 A 
HETATM   17  C   UNL     1     -39.617  50.628 -53.416  1.00  0.00     0.002 A 
ENDBRANCH   6   7
ENDBRANCH   1   5
BRANCH   2  18
HETATM   18  C   UNL     1     -42.099  59.909 -54.292  1.00  0.00     0.227 C 
BRANCH  18  19
HETATM   19  N   UNL     1     -41.785  60.350 -55.648  1.00  0.00    -0.348 N 
HETATM   20  C   UNL     1     -42.158  59.622 -56.754  1.00  0.00     0.252 C 
HETATM   21  O   UNL     1     -42.629  58.492 -56.640  1.00  0.00    -0.268 OA
HETATM   22  H   UNL     1     -41.196  61.166 -55.735  1.00  0.00     0.163 HD
BRANCH  20  23
HETATM   23  C   UNL     1     -41.918  60.208 -58.105  1.00  0.00     0.033 A 
HETATM   24  C   UNL     1     -41.160  61.386 -58.177  1.00  0.00     0.041 A 
HETATM   25  C   UNL     1     -40.891  61.972 -59.413  1.00  0.00     0.035 A 
HETATM   26 CL   UNL     1     -39.956  63.414 -59.489  1.00  0.00    -0.084 Cl
HETATM   27  C   UNL     1     -41.368  61.395 -60.587  1.00  0.00     0.024 A 
HETATM   28  C   UNL     1     -42.114  60.219 -60.526  1.00  0.00     0.003 A 
HETATM   29  C   UNL     1     -42.386  59.622 -59.291  1.00  0.00     0.017 A 
ENDBRANCH  20  23
ENDBRANCH  18  19
ENDBRANCH   2  18
TORSDOF 5
ENDMDL
MODEL 4
REMARK VINA RESULT:      -8.3      6.054      8.278
REMARK  5 active torsions:
REMARK  status: ('A' for Active; 'I' for Inactive)
REMARK    1  A    between atoms: C_7  and  C_8 
REMARK    2  A    between atoms: N_9  and  N_10 
REMARK       I    between atoms: N_10  and  C_11 
REMARK    3  A    between atoms: C_11  and  C_12 
REMARK    4  A    between atoms: C_12  and  N_13 
REMARK       I    between atoms: N_13  and  C_14 
REMARK    5  A    between atoms: C_14  and  C_15 
ROOT
HETATM    1  N   UNL     1     -42.916  57.404 -50.811  1.00  0.00    -0.246 N 
HETATM    2  C   UNL     1     -43.896  57.916 -51.649  1.00  0.00     0.255 C 
HETATM    3  O   UNL     1     -44.503  57.280 -52.509  1.00  0.00    -0.270 OA
HETATM    4  H   UNL     1     -42.382  58.049 -50.224  1.00  0.00     0.192 HD
ENDROOT
BRANCH   1   5
HETATM    5  N   UNL     1     -42.562  56.090 -50.883  1.00  0.00    -0.184 NA
HETATM    6  C   UNL     1     -41.292  55.856 -50.808  1.00  0.00     0.153 C 
BRANCH   6   7
HETATM    7  C   UNL     1     -40.788  54.497 -50.900  1.00  0.00     0.018 A 
HETATM    8  C   UNL     1     -40.454  53.656 -49.845  1.00  0.00     0.018 A 
HETATM    9  C   UNL     1     -40.499  53.867 -48.373  1.00  0.00     0.069 C 
HETATM   10  N   UNL     1     -40.038  52.462 -50.378  1.00  0.00    -0.358 N 
HETATM   11  H   UNL     1     -39.737  51.662 -49.841  1.00  0.00     0.166 HD
HETATM   12  C   UNL     1     -40.087  52.499 -51.750  1.00  0.00     0.043 A 
HETATM   13  C   UNL     1     -40.550  53.764 -52.110  1.00  0.00     0.004 A 
HETATM   14  C   UNL     1     -39.756  51.514 -52.690  1.00  0.00     0.030 A 
HETATM   15  C   UNL     1     -40.683  54.060 -53.485  1.00  0.00     0.014 A 
HETATM   16  C   UNL     1     -40.354  53.088 -54.437  1.00  0.00     0.001 A 
HETATM   17  C   UNL     1     -39.898  51.834 -54.042  1.00  0.00     0.002 A 
ENDBRANCH   6   7
ENDBRANCH   1   5
BRANCH   2  18
HETATM   18  C   UNL     1     -44.086  59.427 -51.498  1.00  0.00     0.227 C 
BRANCH  18  19
HETATM   19  N   UNL     1     -44.613  59.844 -50.202  1.00  0.00    -0.348 N 
HETATM   20  C   UNL     1     -44.566  61.155 -49.786  1.00  0.00     0.252 C 
HETATM   21  O   UNL     1     -43.937  61.999 -50.420  1.00  0.00    -0.268 OA
HETATM   22  H   UNL     1     -44.925  59.111 -49.581  1.00  0.00     0.163 HD
BRANCH  20  23
HETATM   23  C   UNL     1     -45.245  61.521 -48.508  1.00  0.00     0.033 A 
HETATM   24  C   UNL     1     -44.610  61.163 -47.310  1.00  0.00     0.041 A 
HETATM   25  C   UNL     1     -45.190  61.491 -46.085  1.00  0.00     0.035 A 
HETATM   26 CL   UNL     1     -44.400  61.052 -44.622  1.00  0.00    -0.084 Cl
HETATM   27  C   UNL     1     -46.401  62.176 -46.037  1.00  0.00     0.024 A 
HETATM   28  C   UNL     1     -47.035  62.543 -47.224  1.00  0.00     0.003 A 
HETATM   29  C   UNL     1     -46.458  62.222 -48.457  1.00  0.00     0.017 A 
ENDBRANCH  20  23
ENDBRANCH  18  19
ENDBRANCH   2  18
TORSDOF 5
ENDMDL
MODEL 5
REMARK VINA RESULT:      -8.2      1.881      2.424
REMARK  5 active torsions:
REMARK  status: ('A' for Active; 'I' for Inactive)
REMARK    1  A    between atoms: C_7  and  C_8 
REMARK    2  A    between atoms: N_9  and  N_10 
REMARK       I    between atoms: N_10  and  C_11 
REMARK    3  A    between atoms: C_11  and  C_12 
REMARK    4  A    between atoms: C_12  and  N_13 
REMARK       I    between atoms: N_13  and  C_14 
REMARK    5  A    between atoms: C_14  and  C_15 
ROOT
HETATM    1  N   UNL     1     -41.723  57.444 -54.194  1.00  0.00    -0.246 N 
HETATM    2  C   UNL     1     -41.328  58.772 -54.119  1.00  0.00     0.255 C 
HETATM    3  O   UNL     1     -40.347  59.192 -53.509  1.00  0.00    -0.270 OA
HETATM    4  H   UNL     1     -42.627  57.221 -54.616  1.00  0.00     0.192 HD
ENDROOT
BRANCH   1   5
HETATM    5  N   UNL     1     -40.996  56.470 -53.577  1.00  0.00    -0.184 NA
HETATM    6  C   UNL     1     -41.690  55.569 -52.961  1.00  0.00     0.153 C 
BRANCH   6   7
HETATM    7  C   UNL     1     -41.028  54.496 -52.243  1.00  0.00     0.018 A 
HETATM    8  C   UNL     1     -40.675  54.482 -50.899  1.00  0.00     0.018 A 
HETATM    9  C   UNL     1     -40.849  55.504 -49.831  1.00  0.00     0.069 C 
HETATM   10  N   UNL     1     -40.087  53.271 -50.633  1.00  0.00    -0.358 N 
HETATM   11  H   UNL     1     -39.736  52.983 -49.731  1.00  0.00     0.166 HD
HETATM   12  C   UNL     1     -40.043  52.494 -51.765  1.00  0.00     0.043 A 
HETATM   13  C   UNL     1     -40.622  53.235 -52.794  1.00  0.00     0.004 A 
HETATM   14  C   UNL     1     -39.535  51.201 -51.949  1.00  0.00     0.030 A 
HETATM   15  C   UNL     1     -40.690  52.651 -54.079  1.00  0.00     0.014 A 
HETATM   16  C   UNL     1     -40.184  51.362 -54.282  1.00  0.00     0.001 A 
HETATM   17  C   UNL     1     -39.616  50.649 -53.230  1.00  0.00     0.002 A 
ENDBRANCH   6   7
ENDBRANCH   1   5
BRANCH   2  18
HETATM   18  C   UNL     1     -42.320  59.731 -54.783  1.00  0.00     0.227 C 
BRANCH  18  19
HETATM   19  N   UNL     1     -43.047  59.164 -55.914  1.00  0.00    -0.348 N 
HETATM   20  C   UNL     1     -44.283  58.577 -55.764  1.00  0.00     0.252 C 
HETATM   21  O   UNL     1     -44.752  58.366 -54.648  1.00  0.00    -0.268 OA
HETATM   22  H   UNL     1     -42.559  59.132 -56.798  1.00  0.00     0.163 HD
BRANCH  20  23
HETATM   23  C   UNL     1     -45.017  58.143 -56.988  1.00  0.00     0.033 A 
HETATM   24  C   UNL     1     -44.281  57.492 -57.990  1.00  0.00     0.041 A 
HETATM   25  C   UNL     1     -44.917  57.050 -59.150  1.00  0.00     0.035 A 
HETATM   26 CL   UNL     1     -44.006  56.248 -60.369  1.00  0.00    -0.084 Cl
HETATM   27  C   UNL     1     -46.283  57.247 -59.326  1.00  0.00     0.024 A 
HETATM   28  C   UNL     1     -47.024  57.885 -58.331  1.00  0.00     0.003 A 
HETATM   29  C   UNL     1     -46.396  58.328 -57.163  1.00  0.00     0.017 A 
ENDBRANCH  20  23
ENDBRANCH  18  19
ENDBRANCH   2  18
TORSDOF 5
ENDMDL
MODEL 6
REMARK VINA RESULT:      -8.1      3.589      8.767
REMARK  5 active torsions:
REMARK  status: ('A' for Active; 'I' for Inactive)
REMARK    1  A    between atoms: C_7  and  C_8 
REMARK    2  A    between atoms: N_9  and  N_10 
REMARK       I    between atoms: N_10  and  C_11 
REMARK    3  A    between atoms: C_11  and  C_12 
REMARK    4  A    between atoms: C_12  and  N_13 
REMARK       I    between atoms: N_13  and  C_14 
REMARK    5  A    between atoms: C_14  and  C_15 
ROOT
HETATM    1  N   UNL     1     -43.637  55.642 -54.771  1.00  0.00    -0.246 N 
HETATM    2  C   UNL     1     -43.225  56.319 -53.633  1.00  0.00     0.255 C 
HETATM    3  O   UNL     1     -42.933  57.512 -53.578  1.00  0.00    -0.270 OA
HETATM    4  H   UNL     1     -43.726  54.624 -54.736  1.00  0.00     0.192 HD
ENDROOT
BRANCH   1   5
HETATM    5  N   UNL     1     -43.771  56.300 -55.958  1.00  0.00    -0.184 NA
HETATM    6  C   UNL     1     -43.151  55.764 -56.958  1.00  0.00     0.153 C 
BRANCH   6   7
HETATM    7  C   UNL     1     -43.194  56.388 -58.269  1.00  0.00     0.018 A 
HETATM    8  C   UNL     1     -43.713  55.844 -59.437  1.00  0.00     0.018 A 
HETATM    9  C   UNL     1     -44.350  54.526 -59.704  1.00  0.00     0.069 C 
HETATM   10  N   UNL     1     -43.565  56.775 -60.434  1.00  0.00    -0.358 N 
HETATM   11  H   UNL     1     -43.859  56.650 -61.392  1.00  0.00     0.166 HD
HETATM   12  C   UNL     1     -42.960  57.910 -59.953  1.00  0.00     0.043 A 
HETATM   13  C   UNL     1     -42.710  57.699 -58.597  1.00  0.00     0.004 A 
HETATM   14  C   UNL     1     -42.618  59.097 -60.613  1.00  0.00     0.030 A 
HETATM   15  C   UNL     1     -42.079  58.729 -57.866  1.00  0.00     0.014 A 
HETATM   16  C   UNL     1     -41.727  59.921 -58.512  1.00  0.00     0.001 A 
HETATM   17  C   UNL     1     -41.995  60.100 -59.866  1.00  0.00     0.002 A 
ENDBRANCH   6   7
ENDBRANCH   1   5
BRANCH   2  18
HETATM   18  C   UNL     1     -43.033  55.399 -52.424  1.00  0.00     0.227 C 
BRANCH  18  19
HETATM   19  N   UNL     1     -42.460  54.094 -52.740  1.00  0.00    -0.348 N 
HETATM   20  C   UNL     1     -41.117  53.933 -52.993  1.00  0.00     0.252 C 
HETATM   21  O   UNL     1     -40.375  54.903 -53.118  1.00  0.00    -0.268 OA
HETATM   22  H   UNL     1     -43.109  53.331 -52.863  1.00  0.00     0.163 HD
BRANCH  20  23
HETATM   23  C   UNL     1     -40.590  52.549 -53.175  1.00  0.00     0.033 A 
HETATM   24  C   UNL     1     -40.147  51.867 -52.032  1.00  0.00     0.041 A 
HETATM   25  C   UNL     1     -39.658  50.565 -52.138  1.00  0.00     0.035 A 
HETATM   26 CL   UNL     1     -39.122  49.737 -50.730  1.00  0.00    -0.084 Cl
HETATM   27  C   UNL     1     -39.605  49.929 -53.375  1.00  0.00     0.024 A 
HETATM   28  C   UNL     1     -40.052  50.596 -54.516  1.00  0.00     0.003 A 
HETATM   29  C   UNL     1     -40.548  51.900 -54.418  1.00  0.00     0.017 A 
ENDBRANCH  20  23
ENDBRANCH  18  19
ENDBRANCH   2  18
TORSDOF 5
ENDMDL
MODEL 7
REMARK VINA RESULT:      -8.0     15.492     17.958
REMARK  5 active torsions:
REMARK  status: ('A' for Active; 'I' for Inactive)
REMARK    1  A    between atoms: C_7  and  C_8 
REMARK    2  A    between atoms: N_9  and  N_10 
REMARK       I    between atoms: N_10  and  C_11 
REMARK    3  A    between atoms: C_11  and  C_12 
REMARK    4  A    between atoms: C_12  and  N_13 
REMARK       I    between atoms: N_13  and  C_14 
REMARK    5  A    between atoms: C_14  and  C_15 
ROOT
HETATM    1  N   UNL     1     -39.037  39.592 -51.340  1.00  0.00    -0.246 N 
HETATM    2  C   UNL     1     -39.111  38.359 -50.709  1.00  0.00     0.255 C 
HETATM    3  O   UNL     1     -38.311  37.435 -50.849  1.00  0.00    -0.270 OA
HETATM    4  H   UNL     1     -39.824  40.238 -51.255  1.00  0.00     0.192 HD
ENDROOT
BRANCH   1   5
HETATM    5  N   UNL     1     -38.005  39.875 -52.186  1.00  0.00    -0.184 NA
HETATM    6  C   UNL     1     -37.842  41.129 -52.455  1.00  0.00     0.153 C 
BRANCH   6   7
HETATM    7  C   UNL     1     -36.794  41.555 -53.365  1.00  0.00     0.018 A 
HETATM    8  C   UNL     1     -35.509  41.963 -53.030  1.00  0.00     0.018 A 
HETATM    9  C   UNL     1     -34.837  42.091 -51.708  1.00  0.00     0.069 C 
HETATM   10  N   UNL     1     -34.847  42.261 -54.194  1.00  0.00    -0.358 N 
HETATM   11  H   UNL     1     -33.890  42.581 -54.251  1.00  0.00     0.166 HD
HETATM   12  C   UNL     1     -35.662  42.062 -55.281  1.00  0.00     0.043 A 
HETATM   13  C   UNL     1     -36.893  41.623 -54.795  1.00  0.00     0.004 A 
HETATM   14  C   UNL     1     -35.402  42.240 -56.646  1.00  0.00     0.030 A 
HETATM   15  C   UNL     1     -37.920  41.352 -55.727  1.00  0.00     0.014 A 
HETATM   16  C   UNL     1     -37.678  41.528 -57.095  1.00  0.00     0.001 A 
HETATM   17  C   UNL     1     -36.435  41.965 -57.545  1.00  0.00     0.002 A 
ENDBRANCH   6   7
ENDBRANCH   1   5
BRANCH   2  18
HETATM   18  C   UNL     1     -40.387  38.184 -49.881  1.00  0.00     0.227 C 
BRANCH  18  19
HETATM   19  N   UNL     1     -40.285  38.661 -48.505  1.00  0.00    -0.348 N 
HETATM   20  C   UNL     1     -41.395  38.820 -47.707  1.00  0.00     0.252 C 
HETATM   21  O   UNL     1     -42.529  38.719 -48.171  1.00  0.00    -0.268 OA
HETATM   22  H   UNL     1     -39.373  38.963 -48.195  1.00  0.00     0.163 HD
BRANCH  20  23
HETATM   23  C   UNL     1     -41.195  39.182 -46.273  1.00  0.00     0.033 A 
HETATM   24  C   UNL     1     -40.552  38.245 -45.451  1.00  0.00     0.041 A 
HETATM   25  C   UNL     1     -40.323  38.534 -44.106  1.00  0.00     0.035 A 
HETATM   26 CL   UNL     1     -39.529  37.380 -43.108  1.00  0.00    -0.084 Cl
HETATM   27  C   UNL     1     -40.727  39.751 -43.566  1.00  0.00     0.024 A 
HETATM   28  C   UNL     1     -41.359  40.693 -44.379  1.00  0.00     0.003 A 
HETATM   29  C   UNL     1     -41.589  40.413 -45.730  1.00  0.00     0.017 A 
ENDBRANCH  20  23
ENDBRANCH  18  19
ENDBRANCH   2  18
TORSDOF 5
ENDMDL
MODEL 8
REMARK VINA RESULT:      -8.0      3.086      4.336
REMARK  5 active torsions:
REMARK  status: ('A' for Active; 'I' for Inactive)
REMARK    1  A    between atoms: C_7  and  C_8 
REMARK    2  A    between atoms: N_9  and  N_10 
REMARK       I    between atoms: N_10  and  C_11 
REMARK    3  A    between atoms: C_11  and  C_12 
REMARK    4  A    between atoms: C_12  and  N_13 
REMARK       I    between atoms: N_13  and  C_14 
REMARK    5  A    between atoms: C_14  and  C_15 
ROOT
HETATM    1  N   UNL     1     -41.244  55.288 -55.869  1.00  0.00    -0.246 N 
HETATM    2  C   UNL     1     -42.592  55.434 -56.161  1.00  0.00     0.255 C 
HETATM    3  O   UNL     1     -43.517  55.281 -55.365  1.00  0.00    -0.270 OA
HETATM    4  H   UNL     1     -40.568  55.308 -56.634  1.00  0.00     0.192 HD
ENDROOT
BRANCH   1   5
HETATM    5  N   UNL     1     -40.841  54.967 -54.607  1.00  0.00    -0.184 NA
HETATM    6  C   UNL     1     -40.928  53.713 -54.302  1.00  0.00     0.153 C 
BRANCH   6   7
HETATM    7  C   UNL     1     -40.554  53.251 -52.977  1.00  0.00     0.018 A 
HETATM    8  C   UNL     1     -39.899  52.068 -52.658  1.00  0.00     0.018 A 
HETATM    9  C   UNL     1     -39.404  50.960 -53.520  1.00  0.00     0.069 C 
HETATM   10  N   UNL     1     -39.731  52.037 -51.297  1.00  0.00    -0.358 N 
HETATM   11  H   UNL     1     -39.279  51.292 -50.786  1.00  0.00     0.166 HD
HETATM   12  C   UNL     1     -40.260  53.164 -50.716  1.00  0.00     0.043 A 
HETATM   13  C   UNL     1     -40.788  53.945 -51.743  1.00  0.00     0.004 A 
HETATM   14  C   UNL     1     -40.309  53.543 -49.368  1.00  0.00     0.030 A 
HETATM   15  C   UNL     1     -41.404  55.169 -51.401  1.00  0.00     0.014 A 
HETATM   16  C   UNL     1     -41.466  55.562 -50.058  1.00  0.00     0.001 A 
HETATM   17  C   UNL     1     -40.924  54.759 -49.059  1.00  0.00     0.002 A 
ENDBRANCH   6   7
ENDBRANCH   1   5
BRANCH   2  18
HETATM   18  C   UNL     1     -42.860  55.693 -57.646  1.00  0.00     0.227 C 
BRANCH  18  19
HETATM   19  N   UNL     1     -42.482  57.026 -58.106  1.00  0.00    -0.348 N 
HETATM   20  C   UNL     1     -42.380  57.331 -59.444  1.00  0.00     0.252 C 
HETATM   21  O   UNL     1     -42.447  56.453 -60.301  1.00  0.00    -0.268 OA
HETATM   22  H   UNL     1     -42.203  57.689 -57.397  1.00  0.00     0.163 HD
BRANCH  20  23
HETATM   23  C   UNL     1     -42.120  58.749 -59.832  1.00  0.00     0.033 A 
HETATM   24  C   UNL     1     -41.948  59.683 -58.800  1.00  0.00     0.041 A 
HETATM   25  C   UNL     1     -41.688  61.019 -59.101  1.00  0.00     0.035 A 
HETATM   26 CL   UNL     1     -41.473  62.156 -57.828  1.00  0.00    -0.084 Cl
HETATM   27  C   UNL     1     -41.595  61.440 -60.425  1.00  0.00     0.024 A 
HETATM   28  C   UNL     1     -41.756  60.516 -61.457  1.00  0.00     0.003 A 
HETATM   29  C   UNL     1     -42.013  59.173 -61.164  1.00  0.00     0.017 A 
ENDBRANCH  20  23
ENDBRANCH  18  19
ENDBRANCH   2  18
TORSDOF 5
ENDMDL
MODEL 9
REMARK VINA RESULT:      -7.9      1.557      2.954
REMARK  5 active torsions:
REMARK  status: ('A' for Active; 'I' for Inactive)
REMARK    1  A    between atoms: C_7  and  C_8 
REMARK    2  A    between atoms: N_9  and  N_10 
REMARK       I    between atoms: N_10  and  C_11 
REMARK    3  A    between atoms: C_11  and  C_12 
REMARK    4  A    between atoms: C_12  and  N_13 
REMARK       I    between atoms: N_13  and  C_14 
REMARK    5  A    between atoms: C_14  and  C_15 
ROOT
HETATM    1  N   UNL     1     -41.668  56.608 -55.153  1.00  0.00    -0.246 N 
HETATM    2  C   UNL     1     -41.876  57.968 -54.983  1.00  0.00     0.255 C 
HETATM    3  O   UNL     1     -41.521  58.629 -54.008  1.00  0.00    -0.270 OA
HETATM    4  H   UNL     1     -42.119  56.133 -55.938  1.00  0.00     0.192 HD
ENDROOT
BRANCH   1   5
HETATM    5  N   UNL     1     -41.005  55.885 -54.205  1.00  0.00    -0.184 NA
HETATM    6  C   UNL     1     -41.661  54.885 -53.715  1.00  0.00     0.153 C 
BRANCH   6   7
HETATM    7  C   UNL     1     -41.072  54.057 -52.678  1.00  0.00     0.018 A 
HETATM    8  C   UNL     1     -40.421  52.841 -52.849  1.00  0.00     0.018 A 
HETATM    9  C   UNL     1     -40.139  52.045 -54.075  1.00  0.00     0.069 C 
HETATM   10  N   UNL     1     -40.008  52.410 -51.613  1.00  0.00    -0.358 N 
HETATM   11  H   UNL     1     -39.503  51.554 -51.437  1.00  0.00     0.166 HD
HETATM   12  C   UNL     1     -40.374  53.307 -50.639  1.00  0.00     0.043 A 
HETATM   13  C   UNL     1     -41.047  54.350 -51.274  1.00  0.00     0.004 A 
HETATM   14  C   UNL     1     -40.160  53.270 -49.255  1.00  0.00     0.030 A 
HETATM   15  C   UNL     1     -41.538  55.410 -50.479  1.00  0.00     0.014 A 
HETATM   16  C   UNL     1     -41.336  55.386 -49.093  1.00  0.00     0.001 A 
HETATM   17  C   UNL     1     -40.656  54.331 -48.493  1.00  0.00     0.002 A 
ENDBRANCH   6   7
ENDBRANCH   1   5
BRANCH   2  18
HETATM   18  C   UNL     1     -42.725  58.590 -56.095  1.00  0.00     0.227 C 
BRANCH  18  19
HETATM   19  N   UNL     1     -43.140  57.653 -57.135  1.00  0.00    -0.348 N 
HETATM   20  C   UNL     1     -44.418  57.652 -57.644  1.00  0.00     0.252 C 
HETATM   21  O   UNL     1     -45.305  58.332 -57.132  1.00  0.00    -0.268 OA
HETATM   22  H   UNL     1     -42.474  56.940 -57.395  1.00  0.00     0.163 HD
BRANCH  20  23
HETATM   23  C   UNL     1     -44.724  56.755 -58.797  1.00  0.00     0.033 A 
HETATM   24  C   UNL     1     -45.910  56.992 -59.508  1.00  0.00     0.041 A 
HETATM   25  C   UNL     1     -46.240  56.196 -60.604  1.00  0.00     0.035 A 
HETATM   26 CL   UNL     1     -47.694  56.499 -61.471  1.00  0.00    -0.084 Cl
HETATM   27  C   UNL     1     -45.400  55.161 -61.004  1.00  0.00     0.024 A 
HETATM   28  C   UNL     1     -44.214  54.924 -60.309  1.00  0.00     0.003 A 
HETATM   29  C   UNL     1     -43.872  55.720 -59.211  1.00  0.00     0.017 A 
ENDBRANCH  20  23
ENDBRANCH  18  19
ENDBRANCH   2  18
TORSDOF 5
ENDMDL
MODEL 10
REMARK VINA RESULT:      -7.8      3.487      9.321
REMARK  5 active torsions:
REMARK  status: ('A' for Active; 'I' for Inactive)
REMARK    1  A    between atoms: C_7  and  C_8 
REMARK    2  A    between atoms: N_9  and  N_10 
REMARK       I    between atoms: N_10  and  C_11 
REMARK    3  A    between atoms: C_11  and  C_12 
REMARK    4  A    between atoms: C_12  and  N_13 
REMARK       I    between atoms: N_13  and  C_14 
REMARK    5  A    between atoms: C_14  and  C_15 
ROOT
HETATM    1  N   UNL     1     -42.388  56.729 -55.995  1.00  0.00    -0.246 N 
HETATM    2  C   UNL     1     -42.371  56.465 -54.634  1.00  0.00     0.255 C 
HETATM    3  O   UNL     1     -43.345  56.516 -53.884  1.00  0.00    -0.270 OA
HETATM    4  H   UNL     1     -41.500  56.788 -56.498  1.00  0.00     0.192 HD
ENDROOT
BRANCH   1   5
HETATM    5  N   UNL     1     -43.553  57.060 -56.621  1.00  0.00    -0.184 NA
HETATM    6  C   UNL     1     -43.440  57.928 -57.574  1.00  0.00     0.153 C 
BRANCH   6   7
HETATM    7  C   UNL     1     -44.614  58.381 -58.298  1.00  0.00     0.018 A 
HETATM    8  C   UNL     1     -45.203  59.638 -58.233  1.00  0.00     0.018 A 
HETATM    9  C   UNL     1     -44.842  60.848 -57.445  1.00  0.00     0.069 C 
HETATM   10  N   UNL     1     -46.276  59.642 -59.087  1.00  0.00    -0.358 N 
HETATM   11  H   UNL     1     -46.888  60.430 -59.245  1.00  0.00     0.166 HD
HETATM   12  C   UNL     1     -46.409  58.423 -59.706  1.00  0.00     0.043 A 
HETATM   13  C   UNL     1     -45.383  57.607 -59.230  1.00  0.00     0.004 A 
HETATM   14  C   UNL     1     -47.355  57.988 -60.644  1.00  0.00     0.030 A 
HETATM   15  C   UNL     1     -45.304  56.283 -59.714  1.00  0.00     0.014 A 
HETATM   16  C   UNL     1     -46.244  55.830 -60.648  1.00  0.00     0.001 A 
HETATM   17  C   UNL     1     -47.253  56.673 -61.105  1.00  0.00     0.002 A 
ENDBRANCH   6   7
ENDBRANCH   1   5
BRANCH   2  18
HETATM   18  C   UNL     1     -40.963  56.214 -54.088  1.00  0.00     0.227 C 
BRANCH  18  19
HETATM   19  N   UNL     1     -40.543  54.816 -54.118  1.00  0.00    -0.348 N 
HETATM   20  C   UNL     1     -40.596  54.017 -52.998  1.00  0.00     0.252 C 
HETATM   21  O   UNL     1     -40.847  54.491 -51.893  1.00  0.00    -0.268 OA
HETATM   22  H   UNL     1     -40.119  54.488 -54.973  1.00  0.00     0.163 HD
BRANCH  20  23
HETATM   23  C   UNL     1     -40.276  52.567 -53.144  1.00  0.00     0.033 A 
HETATM   24  C   UNL     1     -39.914  51.862 -51.987  1.00  0.00     0.041 A 
HETATM   25  C   UNL     1     -39.619  50.501 -52.059  1.00  0.00     0.035 A 
HETATM   26 CL   UNL     1     -39.181  49.646 -50.633  1.00  0.00    -0.084 Cl
HETATM   27  C   UNL     1     -39.681  49.829 -53.276  1.00  0.00     0.024 A 
HETATM   28  C   UNL     1     -40.048  50.520 -54.431  1.00  0.00     0.003 A 
HETATM   29  C   UNL     1     -40.350  51.884 -54.367  1.00  0.00     0.017 A 
ENDBRANCH  20  23
ENDBRANCH  18  19
ENDBRANCH   2  18
TORSDOF 5
ENDMDL
