MODEL 1
REMARK VINA RESULT:      -8.9      0.000      0.000
REMARK  4 active torsions:
REMARK  status: ('A' for Active; 'I' for Inactive)
REMARK       I    between atoms: C_2  and  N_3 
REMARK    1  A    between atoms: N_3  and  C_4 
REMARK    2  A    between atoms: C_7  and  C_8 
REMARK    3  A    between atoms: C_12  and  N_13 
REMARK    4  A    between atoms: C_20  and  C_21 
ROOT
HETATM    1  C   UNL     1     -40.182  53.819 -51.995  1.00  0.00     0.105 C 
HETATM    2  C   UNL     1     -40.062  52.296 -51.930  1.00  0.00     0.067 C 
HETATM    3  C   UNL     1     -39.963  51.531 -53.239  1.00  0.00     0.020 C 
HETATM    4  N   UNL     1     -39.880  50.895 -54.325  1.00  0.00    -0.096 N 
HETATM    5  C   UNL     1     -40.076  51.600 -50.762  1.00  0.00     0.139 C 
HETATM    6  O   UNL     1     -40.232  52.240 -49.523  1.00  0.00    -0.279 OA
HETATM    7  C   UNL     1     -40.540  53.532 -49.566  1.00  0.00     0.175 A 
HETATM    8  C   UNL     1     -40.582  54.365 -50.658  1.00  0.00     0.040 A 
HETATM    9  N   UNL     1     -40.928  54.256 -48.491  1.00  0.00    -0.256 N 
HETATM   10  H   UNL     1     -41.019  53.953 -47.528  1.00  0.00     0.191 HD
HETATM   11  N   UNL     1     -41.261  55.518 -48.807  1.00  0.00    -0.172 NA
HETATM   12  C   UNL     1     -41.061  55.604 -50.138  1.00  0.00     0.099 A 
ENDROOT
BRANCH   1  13
HETATM   13  C   UNL     1     -41.147  54.340 -53.044  1.00  0.00    -0.044 A 
HETATM   14  C   UNL     1     -42.521  54.051 -53.045  1.00  0.00     0.010 A 
HETATM   15  C   UNL     1     -43.376  54.624 -53.996  1.00  0.00     0.030 A 
HETATM   16  C   UNL     1     -42.875  55.475 -54.981  1.00  0.00     0.034 A 
HETATM   17  C   UNL     1     -41.499  55.713 -55.027  1.00  0.00     0.030 A 
HETATM   18  C   UNL     1     -40.646  55.151 -54.075  1.00  0.00     0.010 A 
BRANCH  16  19
HETATM   19  N   UNL     1     -43.667  56.140 -55.941  1.00  0.00    -0.328 N 
HETATM   20  C   UNL     1     -43.843  57.502 -56.090  1.00  0.00     0.218 C 
HETATM   21  C   UNL     1     -44.696  57.843 -57.289  1.00  0.00     0.117 C 
HETATM   22  O   UNL     1     -43.360  58.391 -55.397  1.00  0.00    -0.274 OA
HETATM   23  H   UNL     1     -44.113  55.546 -56.627  1.00  0.00     0.169 HD
ENDBRANCH  16  19
ENDBRANCH   1  13
BRANCH   5  24
HETATM   24  N   UNL     1     -39.953  50.235 -50.641  1.00  0.00    -0.282 NA
HETATM   25  H   UNL     1     -39.939  49.867 -49.693  1.00  0.00     0.126 HD
HETATM   26  H   UNL     1     -40.586  49.732 -51.258  1.00  0.00     0.126 HD
ENDBRANCH   5  24
BRANCH  12  27
HETATM   27  C   UNL     1     -41.402  56.835 -50.844  1.00  0.00    -0.005 A 
HETATM   28  C   UNL     1     -40.423  57.767 -51.203  1.00  0.00     0.014 A 
HETATM   29  C   UNL     1     -40.777  58.916 -51.917  1.00  0.00     0.001 A 
HETATM   30  C   UNL     1     -42.108  59.141 -52.270  1.00  0.00     0.000 A 
HETATM   31  C   UNL     1     -43.092  58.226 -51.902  1.00  0.00     0.001 A 
HETATM   32  C   UNL     1     -42.740  57.080 -51.188  1.00  0.00     0.014 A 
ENDBRANCH  12  27
TORSDOF 4
ENDMDL
MODEL 2
REMARK VINA RESULT:      -8.8      2.143      6.095
REMARK  4 active torsions:
REMARK  status: ('A' for Active; 'I' for Inactive)
REMARK       I    between atoms: C_2  and  N_3 
REMARK    1  A    between atoms: N_3  and  C_4 
REMARK    2  A    between atoms: C_7  and  C_8 
REMARK    3  A    between atoms: C_12  and  N_13 
REMARK    4  A    between atoms: C_20  and  C_21 
ROOT
HETATM    1  C   UNL     1     -42.444  57.369 -54.026  1.00  0.00     0.105 C 
HETATM    2  C   UNL     1     -42.282  58.303 -55.226  1.00  0.00     0.067 C 
HETATM    3  C   UNL     1     -42.560  57.744 -56.610  1.00  0.00     0.020 C 
HETATM    4  N   UNL     1     -42.791  57.279 -57.760  1.00  0.00    -0.096 N 
HETATM    5  C   UNL     1     -41.870  59.594 -55.110  1.00  0.00     0.139 C 
HETATM    6  O   UNL     1     -41.533  60.153 -53.867  1.00  0.00    -0.279 OA
HETATM    7  C   UNL     1     -41.471  59.309 -52.844  1.00  0.00     0.175 A 
HETATM    8  C   UNL     1     -41.835  57.985 -52.804  1.00  0.00     0.040 A 
HETATM    9  N   UNL     1     -40.965  59.626 -51.629  1.00  0.00    -0.256 N 
HETATM   10  H   UNL     1     -40.596  60.515 -51.313  1.00  0.00     0.191 HD
HETATM   11  N   UNL     1     -40.939  58.579 -50.789  1.00  0.00    -0.172 NA
HETATM   12  C   UNL     1     -41.464  57.556 -51.494  1.00  0.00     0.099 A 
ENDROOT
BRANCH   1  13
HETATM   13  C   UNL     1     -41.862  55.980 -54.216  1.00  0.00    -0.044 A 
HETATM   14  C   UNL     1     -40.513  55.740 -54.517  1.00  0.00     0.010 A 
HETATM   15  C   UNL     1     -40.016  54.432 -54.603  1.00  0.00     0.030 A 
HETATM   16  C   UNL     1     -40.861  53.337 -54.419  1.00  0.00     0.034 A 
HETATM   17  C   UNL     1     -42.220  53.569 -54.187  1.00  0.00     0.030 A 
HETATM   18  C   UNL     1     -42.715  54.871 -54.089  1.00  0.00     0.010 A 
BRANCH  16  19
HETATM   19  N   UNL     1     -40.441  51.991 -54.431  1.00  0.00    -0.328 N 
HETATM   20  C   UNL     1     -39.792  51.302 -53.425  1.00  0.00     0.218 C 
HETATM   21  C   UNL     1     -39.581  49.846 -53.769  1.00  0.00     0.117 C 
HETATM   22  O   UNL     1     -39.437  51.742 -52.337  1.00  0.00    -0.274 OA
HETATM   23  H   UNL     1     -40.692  51.461 -55.255  1.00  0.00     0.169 HD
ENDBRANCH  16  19
ENDBRANCH   1  13
BRANCH   5  24
HETATM   24  N   UNL     1     -41.725  60.485 -56.148  1.00  0.00    -0.282 NA
HETATM   25  H   UNL     1     -42.114  60.201 -57.043  1.00  0.00     0.126 HD
HETATM   26  H   UNL     1     -41.975  61.435 -55.883  1.00  0.00     0.126 HD
ENDBRANCH   5  24
BRANCH  12  27
HETATM   27  C   UNL     1     -41.518  56.222 -50.906  1.00  0.00    -0.005 A 
HETATM   28  C   UNL     1     -42.736  55.582 -50.655  1.00  0.00     0.014 A 
HETATM   29  C   UNL     1     -42.753  54.285 -50.131  1.00  0.00     0.001 A 
HETATM   30  C   UNL     1     -41.556  53.626 -49.850  1.00  0.00     0.000 A 
HETATM   31  C   UNL     1     -40.338  54.263 -50.082  1.00  0.00     0.001 A 
HETATM   32  C   UNL     1     -40.320  55.557 -50.603  1.00  0.00     0.014 A 
ENDBRANCH  12  27
TORSDOF 4
ENDMDL
MODEL 3
REMARK VINA RESULT:      -8.6      1.188      1.496
REMARK  4 active torsions:
REMARK  status: ('A' for Active; 'I' for Inactive)
REMARK       I    between atoms: C_2  and  N_3 
REMARK    1  A    between atoms: N_3  and  C_4 
REMARK    2  A    between atoms: C_7  and  C_8 
REMARK    3  A    between atoms: C_12  and  N_13 
REMARK    4  A    between atoms: C_20  and  C_21 
ROOT
HETATM    1  C   UNL     1     -40.082  53.809 -52.238  1.00  0.00     0.105 C 
HETATM    2  C   UNL     1     -39.996  52.309 -51.953  1.00  0.00     0.067 C 
HETATM    3  C   UNL     1     -39.720  51.375 -53.119  1.00  0.00     0.020 C 
HETATM    4  N   UNL     1     -39.491  50.599 -54.087  1.00  0.00    -0.096 N 
HETATM    5  C   UNL     1     -40.188  51.777 -50.717  1.00  0.00     0.139 C 
HETATM    6  O   UNL     1     -40.512  52.577 -49.611  1.00  0.00    -0.279 OA
HETATM    7  C   UNL     1     -40.791  53.850 -49.870  1.00  0.00     0.175 A 
HETATM    8  C   UNL     1     -40.663  54.528 -51.058  1.00  0.00     0.040 A 
HETATM    9  N   UNL     1     -41.320  54.710 -48.970  1.00  0.00    -0.256 N 
HETATM   10  H   UNL     1     -41.553  54.540 -47.998  1.00  0.00     0.191 HD
HETATM   11  N   UNL     1     -41.584  55.916 -49.497  1.00  0.00    -0.172 NA
HETATM   12  C   UNL     1     -41.193  55.824 -50.785  1.00  0.00     0.099 A 
ENDROOT
BRANCH   1  13
HETATM   13  C   UNL     1     -40.878  54.179 -53.476  1.00  0.00    -0.044 A 
HETATM   14  C   UNL     1     -40.350  54.921 -54.544  1.00  0.00     0.010 A 
HETATM   15  C   UNL     1     -41.111  55.164 -55.697  1.00  0.00     0.030 A 
HETATM   16  C   UNL     1     -42.421  54.698 -55.795  1.00  0.00     0.034 A 
HETATM   17  C   UNL     1     -42.976  54.017 -54.707  1.00  0.00     0.030 A 
HETATM   18  C   UNL     1     -42.218  53.763 -53.563  1.00  0.00     0.010 A 
BRANCH  16  19
HETATM   19  N   UNL     1     -43.239  54.845 -56.935  1.00  0.00    -0.328 N 
HETATM   20  C   UNL     1     -43.254  55.896 -57.832  1.00  0.00     0.218 C 
HETATM   21  C   UNL     1     -44.206  55.659 -58.979  1.00  0.00     0.117 C 
HETATM   22  O   UNL     1     -42.571  56.914 -57.789  1.00  0.00    -0.274 OA
HETATM   23  H   UNL     1     -43.847  54.063 -57.142  1.00  0.00     0.169 HD
ENDBRANCH  16  19
ENDBRANCH   1  13
BRANCH   5  24
HETATM   24  N   UNL     1     -40.105  50.441 -50.397  1.00  0.00    -0.282 NA
HETATM   25  H   UNL     1     -40.893  50.051 -49.887  1.00  0.00     0.126 HD
HETATM   26  H   UNL     1     -39.814  49.870 -51.187  1.00  0.00     0.126 HD
ENDBRANCH   5  24
BRANCH  12  27
HETATM   27  C   UNL     1     -41.411  56.947 -51.691  1.00  0.00    -0.005 A 
HETATM   28  C   UNL     1     -40.358  57.772 -52.098  1.00  0.00     0.014 A 
HETATM   29  C   UNL     1     -40.591  58.813 -53.002  1.00  0.00     0.001 A 
HETATM   30  C   UNL     1     -41.877  59.038 -53.496  1.00  0.00     0.000 A 
HETATM   31  C   UNL     1     -42.934  58.231 -53.082  1.00  0.00     0.001 A 
HETATM   32  C   UNL     1     -42.702  57.193 -52.180  1.00  0.00     0.014 A 
ENDBRANCH  12  27
TORSDOF 4
ENDMDL
MODEL 4
REMARK VINA RESULT:      -7.5      2.415      6.815
REMARK  4 active torsions:
REMARK  status: ('A' for Active; 'I' for Inactive)
REMARK       I    between atoms: C_2  and  N_3 
REMARK    1  A    between atoms: N_3  and  C_4 
REMARK    2  A    between atoms: C_7  and  C_8 
REMARK    3  A    between atoms: C_12  and  N_13 
REMARK    4  A    between atoms: C_20  and  C_21 
ROOT
HETATM    1  C   UNL     1     -43.451  56.919 -56.785  1.00  0.00     0.105 C 
HETATM    2  C   UNL     1     -43.436  56.531 -58.264  1.00  0.00     0.067 C 
HETATM    3  C   UNL     1     -43.826  55.111 -58.635  1.00  0.00     0.020 C 
HETATM    4  N   UNL     1     -44.150  53.931 -58.943  1.00  0.00    -0.096 N 
HETATM    5  C   UNL     1     -43.057  57.387 -59.252  1.00  0.00     0.139 C 
HETATM    6  O   UNL     1     -42.621  58.691 -58.971  1.00  0.00    -0.279 OA
HETATM    7  C   UNL     1     -42.434  58.983 -57.689  1.00  0.00     0.175 A 
HETATM    8  C   UNL     1     -42.749  58.227 -56.585  1.00  0.00     0.040 A 
HETATM    9  N   UNL     1     -41.826  60.108 -57.248  1.00  0.00    -0.256 N 
HETATM   10  H   UNL     1     -41.457  60.879 -57.792  1.00  0.00     0.191 HD
HETATM   11  N   UNL     1     -41.685  60.133 -55.912  1.00  0.00    -0.172 NA
HETATM   12  C   UNL     1     -42.241  58.981 -55.485  1.00  0.00     0.099 A 
ENDROOT
BRANCH   1  13
HETATM   13  C   UNL     1     -42.845  55.890 -55.849  1.00  0.00    -0.044 A 
HETATM   14  C   UNL     1     -41.527  55.421 -55.962  1.00  0.00     0.010 A 
HETATM   15  C   UNL     1     -40.998  54.528 -55.020  1.00  0.00     0.030 A 
HETATM   16  C   UNL     1     -41.780  54.063 -53.963  1.00  0.00     0.034 A 
HETATM   17  C   UNL     1     -43.114  54.474 -53.883  1.00  0.00     0.030 A 
HETATM   18  C   UNL     1     -43.641  55.372 -54.814  1.00  0.00     0.010 A 
BRANCH  16  19
HETATM   19  N   UNL     1     -41.316  53.211 -52.939  1.00  0.00    -0.328 N 
HETATM   20  C   UNL     1     -40.819  53.573 -51.702  1.00  0.00     0.218 C 
HETATM   21  C   UNL     1     -40.504  52.375 -50.838  1.00  0.00     0.117 C 
HETATM   22  O   UNL     1     -40.665  54.710 -51.271  1.00  0.00    -0.274 OA
HETATM   23  H   UNL     1     -41.409  52.220 -53.119  1.00  0.00     0.169 HD
ENDBRANCH  16  19
ENDBRANCH   1  13
BRANCH   5  24
HETATM   24  N   UNL     1     -43.041  57.101 -60.597  1.00  0.00    -0.282 NA
HETATM   25  H   UNL     1     -42.152  56.790 -60.980  1.00  0.00     0.126 HD
HETATM   26  H   UNL     1     -43.826  56.521 -60.880  1.00  0.00     0.126 HD
ENDBRANCH   5  24
BRANCH  12  27
HETATM   27  C   UNL     1     -42.194  58.635 -54.068  1.00  0.00    -0.005 A 
HETATM   28  C   UNL     1     -43.342  58.671 -53.269  1.00  0.00     0.014 A 
HETATM   29  C   UNL     1     -43.272  58.292 -51.924  1.00  0.00     0.001 A 
HETATM   30  C   UNL     1     -42.058  57.883 -51.372  1.00  0.00     0.000 A 
HETATM   31  C   UNL     1     -40.907  57.861 -52.157  1.00  0.00     0.001 A 
HETATM   32  C   UNL     1     -40.975  58.240 -53.498  1.00  0.00     0.014 A 
ENDBRANCH  12  27
TORSDOF 4
ENDMDL
MODEL 5
REMARK VINA RESULT:      -7.4      3.239      6.781
REMARK  4 active torsions:
REMARK  status: ('A' for Active; 'I' for Inactive)
REMARK       I    between atoms: C_2  and  N_3 
REMARK    1  A    between atoms: N_3  and  C_4 
REMARK    2  A    between atoms: C_7  and  C_8 
REMARK    3  A    between atoms: C_12  and  N_13 
REMARK    4  A    between atoms: C_20  and  C_21 
ROOT
HETATM    1  C   UNL     1     -41.970  57.134 -55.566  1.00  0.00     0.105 C 
HETATM    2  C   UNL     1     -42.413  57.986 -56.755  1.00  0.00     0.067 C 
HETATM    3  C   UNL     1     -42.180  59.486 -56.687  1.00  0.00     0.020 C 
HETATM    4  N   UNL     1     -41.986  60.731 -56.631  1.00  0.00    -0.096 N 
HETATM    5  C   UNL     1     -43.035  57.468 -57.849  1.00  0.00     0.139 C 
HETATM    6  O   UNL     1     -43.341  56.101 -57.945  1.00  0.00    -0.279 OA
HETATM    7  C   UNL     1     -43.150  55.380 -56.847  1.00  0.00     0.175 A 
HETATM    8  C   UNL     1     -42.554  55.758 -55.667  1.00  0.00     0.040 A 
HETATM    9  N   UNL     1     -43.580  54.106 -56.691  1.00  0.00    -0.256 N 
HETATM   10  H   UNL     1     -44.068  53.521 -57.359  1.00  0.00     0.191 HD
HETATM   11  N   UNL     1     -43.336  53.622 -55.462  1.00  0.00    -0.172 NA
HETATM   12  C   UNL     1     -42.711  54.626 -54.814  1.00  0.00     0.099 A 
ENDROOT
BRANCH   1  13
HETATM   13  C   UNL     1     -42.312  57.711 -54.204  1.00  0.00    -0.044 A 
HETATM   14  C   UNL     1     -41.357  57.960 -53.206  1.00  0.00     0.010 A 
HETATM   15  C   UNL     1     -41.722  58.568 -51.997  1.00  0.00     0.030 A 
HETATM   16  C   UNL     1     -43.050  58.913 -51.747  1.00  0.00     0.034 A 
HETATM   17  C   UNL     1     -44.017  58.606 -52.709  1.00  0.00     0.030 A 
HETATM   18  C   UNL     1     -43.654  58.011 -53.920  1.00  0.00     0.010 A 
BRANCH  16  19
HETATM   19  N   UNL     1     -43.499  59.577 -50.587  1.00  0.00    -0.328 N 
HETATM   20  C   UNL     1     -43.599  60.940 -50.381  1.00  0.00     0.218 C 
HETATM   21  C   UNL     1     -44.207  61.275 -49.040  1.00  0.00     0.117 C 
HETATM   22  O   UNL     1     -43.290  61.831 -51.164  1.00  0.00    -0.274 OA
HETATM   23  H   UNL     1     -43.834  58.980 -49.842  1.00  0.00     0.169 HD
ENDBRANCH  16  19
ENDBRANCH   1  13
BRANCH   5  24
HETATM   24  N   UNL     1     -43.439  58.180 -58.954  1.00  0.00    -0.282 NA
HETATM   25  H   UNL     1     -43.869  57.643 -59.703  1.00  0.00     0.126 HD
HETATM   26  H   UNL     1     -43.962  59.016 -58.707  1.00  0.00     0.126 HD
ENDBRANCH   5  24
BRANCH  12  27
HETATM   27  C   UNL     1     -42.362  54.472 -53.405  1.00  0.00    -0.005 A 
HETATM   28  C   UNL     1     -43.327  54.579 -52.398  1.00  0.00     0.014 A 
HETATM   29  C   UNL     1     -42.969  54.382 -51.060  1.00  0.00     0.001 A 
HETATM   30  C   UNL     1     -41.648  54.086 -50.723  1.00  0.00     0.000 A 
HETATM   31  C   UNL     1     -40.678  53.995 -51.719  1.00  0.00     0.001 A 
HETATM   32  C   UNL     1     -41.033  54.192 -53.053  1.00  0.00     0.014 A 
ENDBRANCH  12  27
TORSDOF 4
ENDMDL
MODEL 6
REMARK VINA RESULT:      -7.3      2.134      7.432
REMARK  4 active torsions:
REMARK  status: ('A' for Active; 'I' for Inactive)
REMARK       I    between atoms: C_2  and  N_3 
REMARK    1  A    between atoms: N_3  and  C_4 
REMARK    2  A    between atoms: C_7  and  C_8 
REMARK    3  A    between atoms: C_12  and  N_13 
REMARK    4  A    between atoms: C_20  and  C_21 
ROOT
HETATM    1  C   UNL     1     -42.505  58.467 -54.277  1.00  0.00     0.105 C 
HETATM    2  C   UNL     1     -43.369  59.726 -54.191  1.00  0.00     0.067 C 
HETATM    3  C   UNL     1     -43.146  60.668 -53.021  1.00  0.00     0.020 C 
HETATM    4  N   UNL     1     -42.960  61.450 -52.049  1.00  0.00    -0.096 N 
HETATM    5  C   UNL     1     -44.345  60.019 -55.092  1.00  0.00     0.139 C 
HETATM    6  O   UNL     1     -44.648  59.157 -56.158  1.00  0.00    -0.279 OA
HETATM    7  C   UNL     1     -44.054  57.970 -56.138  1.00  0.00     0.175 A 
HETATM    8  C   UNL     1     -43.069  57.520 -55.293  1.00  0.00     0.040 A 
HETATM    9  N   UNL     1     -44.380  56.944 -56.959  1.00  0.00    -0.256 N 
HETATM   10  H   UNL     1     -45.074  56.925 -57.697  1.00  0.00     0.191 HD
HETATM   11  N   UNL     1     -43.692  55.823 -56.688  1.00  0.00    -0.172 NA
HETATM   12  C   UNL     1     -42.883  56.155 -55.661  1.00  0.00     0.099 A 
ENDROOT
BRANCH   1  13
HETATM   13  C   UNL     1     -42.325  57.726 -52.965  1.00  0.00    -0.044 A 
HETATM   14  C   UNL     1     -43.385  57.148 -52.250  1.00  0.00     0.010 A 
HETATM   15  C   UNL     1     -43.147  56.408 -51.083  1.00  0.00     0.030 A 
HETATM   16  C   UNL     1     -41.850  56.254 -50.591  1.00  0.00     0.034 A 
HETATM   17  C   UNL     1     -40.798  56.884 -51.261  1.00  0.00     0.030 A 
HETATM   18  C   UNL     1     -41.031  57.613 -52.430  1.00  0.00     0.010 A 
BRANCH  16  19
HETATM   19  N   UNL     1     -41.511  55.482 -49.461  1.00  0.00    -0.328 N 
HETATM   20  C   UNL     1     -40.670  54.387 -49.409  1.00  0.00     0.218 C 
HETATM   21  C   UNL     1     -40.480  53.874 -48.001  1.00  0.00     0.117 C 
HETATM   22  O   UNL     1     -40.078  53.865 -50.347  1.00  0.00    -0.274 OA
HETATM   23  H   UNL     1     -41.890  55.804 -48.580  1.00  0.00     0.169 HD
ENDBRANCH  16  19
ENDBRANCH   1  13
BRANCH   5  24
HETATM   24  N   UNL     1     -45.139  61.142 -55.077  1.00  0.00    -0.282 NA
HETATM   25  H   UNL     1     -45.840  61.188 -54.342  1.00  0.00     0.126 HD
HETATM   26  H   UNL     1     -44.601  61.999 -55.174  1.00  0.00     0.126 HD
ENDBRANCH   5  24
BRANCH  12  27
HETATM   27  C   UNL     1     -42.035  55.137 -55.049  1.00  0.00    -0.005 A 
HETATM   28  C   UNL     1     -40.679  55.024 -55.372  1.00  0.00     0.014 A 
HETATM   29  C   UNL     1     -39.883  54.066 -54.735  1.00  0.00     0.001 A 
HETATM   30  C   UNL     1     -40.439  53.214 -53.780  1.00  0.00     0.000 A 
HETATM   31  C   UNL     1     -41.793  53.309 -53.465  1.00  0.00     0.001 A 
HETATM   32  C   UNL     1     -42.588  54.263 -54.100  1.00  0.00     0.014 A 
ENDBRANCH  12  27
TORSDOF 4
ENDMDL
MODEL 7
REMARK VINA RESULT:      -7.2      3.414      6.337
REMARK  4 active torsions:
REMARK  status: ('A' for Active; 'I' for Inactive)
REMARK       I    between atoms: C_2  and  N_3 
REMARK    1  A    between atoms: N_3  and  C_4 
REMARK    2  A    between atoms: C_7  and  C_8 
REMARK    3  A    between atoms: C_12  and  N_13 
REMARK    4  A    between atoms: C_20  and  C_21 
ROOT
HETATM    1  C   UNL     1     -43.849  59.345 -52.181  1.00  0.00     0.105 C 
HETATM    2  C   UNL     1     -43.944  60.869 -52.265  1.00  0.00     0.067 C 
HETATM    3  C   UNL     1     -44.865  61.471 -53.313  1.00  0.00     0.020 C 
HETATM    4  N   UNL     1     -45.630  61.971 -54.183  1.00  0.00    -0.096 N 
HETATM    5  C   UNL     1     -43.220  61.703 -51.471  1.00  0.00     0.139 C 
HETATM    6  O   UNL     1     -42.302  61.212 -50.530  1.00  0.00    -0.279 OA
HETATM    7  C   UNL     1     -42.053  59.909 -50.578  1.00  0.00     0.175 A 
HETATM    8  C   UNL     1     -42.683  58.945 -51.330  1.00  0.00     0.040 A 
HETATM    9  N   UNL     1     -41.056  59.300 -49.896  1.00  0.00    -0.256 N 
HETATM   10  H   UNL     1     -40.389  59.713 -49.255  1.00  0.00     0.191 HD
HETATM   11  N   UNL     1     -40.960  57.990 -50.175  1.00  0.00    -0.172 NA
HETATM   12  C   UNL     1     -41.949  57.752 -51.061  1.00  0.00     0.099 A 
ENDROOT
BRANCH   1  13
HETATM   13  C   UNL     1     -43.742  58.638 -53.520  1.00  0.00    -0.044 A 
HETATM   14  C   UNL     1     -42.743  58.915 -54.465  1.00  0.00     0.010 A 
HETATM   15  C   UNL     1     -42.649  58.174 -55.651  1.00  0.00     0.030 A 
HETATM   16  C   UNL     1     -43.566  57.161 -55.931  1.00  0.00     0.034 A 
HETATM   17  C   UNL     1     -44.604  56.925 -55.025  1.00  0.00     0.030 A 
HETATM   18  C   UNL     1     -44.694  57.655 -53.838  1.00  0.00     0.010 A 
BRANCH  16  19
HETATM   19  N   UNL     1     -43.515  56.328 -57.068  1.00  0.00    -0.328 N 
HETATM   20  C   UNL     1     -43.843  56.657 -58.370  1.00  0.00     0.218 C 
HETATM   21  C   UNL     1     -43.576  55.525 -59.333  1.00  0.00     0.117 C 
HETATM   22  O   UNL     1     -44.264  57.735 -58.776  1.00  0.00    -0.274 OA
HETATM   23  H   UNL     1     -43.147  55.399 -56.914  1.00  0.00     0.169 HD
ENDBRANCH  16  19
ENDBRANCH   1  13
BRANCH   5  24
HETATM   24  N   UNL     1     -43.277  63.077 -51.488  1.00  0.00    -0.282 NA
HETATM   25  H   UNL     1     -43.841  63.495 -52.224  1.00  0.00     0.126 HD
HETATM   26  H   UNL     1     -43.462  63.469 -50.568  1.00  0.00     0.126 HD
ENDBRANCH   5  24
BRANCH  12  27
HETATM   27  C   UNL     1     -42.092  56.424 -51.648  1.00  0.00    -0.005 A 
HETATM   28  C   UNL     1     -43.068  55.528 -51.200  1.00  0.00     0.014 A 
HETATM   29  C   UNL     1     -43.208  54.279 -51.813  1.00  0.00     0.001 A 
HETATM   30  C   UNL     1     -42.371  53.917 -52.869  1.00  0.00     0.000 A 
HETATM   31  C   UNL     1     -41.385  54.797 -53.310  1.00  0.00     0.001 A 
HETATM   32  C   UNL     1     -41.243  56.043 -52.698  1.00  0.00     0.014 A 
ENDBRANCH  12  27
TORSDOF 4
ENDMDL
MODEL 8
REMARK VINA RESULT:      -7.0      2.130      4.751
REMARK  4 active torsions:
REMARK  status: ('A' for Active; 'I' for Inactive)
REMARK       I    between atoms: C_2  and  N_3 
REMARK    1  A    between atoms: N_3  and  C_4 
REMARK    2  A    between atoms: C_7  and  C_8 
REMARK    3  A    between atoms: C_12  and  N_13 
REMARK    4  A    between atoms: C_20  and  C_21 
ROOT
HETATM    1  C   UNL     1     -41.992  54.485 -52.186  1.00  0.00     0.105 C 
HETATM    2  C   UNL     1     -40.997  53.596 -51.438  1.00  0.00     0.067 C 
HETATM    3  C   UNL     1     -40.984  53.658 -49.920  1.00  0.00     0.020 C 
HETATM    4  N   UNL     1     -40.974  53.710 -48.660  1.00  0.00    -0.096 N 
HETATM    5  C   UNL     1     -40.107  52.785 -52.069  1.00  0.00     0.139 C 
HETATM    6  O   UNL     1     -40.021  52.731 -53.469  1.00  0.00    -0.279 OA
HETATM    7  C   UNL     1     -40.729  53.637 -54.135  1.00  0.00     0.175 A 
HETATM    8  C   UNL     1     -41.652  54.529 -53.645  1.00  0.00     0.040 A 
HETATM    9  N   UNL     1     -40.610  53.868 -55.463  1.00  0.00    -0.256 N 
HETATM   10  H   UNL     1     -40.011  53.398 -56.132  1.00  0.00     0.191 HD
HETATM   11  N   UNL     1     -41.375  54.888 -55.883  1.00  0.00    -0.172 NA
HETATM   12  C   UNL     1     -42.021  55.314 -54.778  1.00  0.00     0.099 A 
ENDROOT
BRANCH   1  13
HETATM   13  C   UNL     1     -42.096  55.906 -51.665  1.00  0.00    -0.044 A 
HETATM   14  C   UNL     1     -40.985  56.737 -51.452  1.00  0.00     0.010 A 
HETATM   15  C   UNL     1     -41.148  58.067 -51.043  1.00  0.00     0.030 A 
HETATM   16  C   UNL     1     -42.421  58.588 -50.811  1.00  0.00     0.034 A 
HETATM   17  C   UNL     1     -43.528  57.747 -50.955  1.00  0.00     0.030 A 
HETATM   18  C   UNL     1     -43.369  56.424 -51.373  1.00  0.00     0.010 A 
BRANCH  16  19
HETATM   19  N   UNL     1     -42.685  59.927 -50.454  1.00  0.00    -0.328 N 
HETATM   20  C   UNL     1     -42.784  61.020 -51.294  1.00  0.00     0.218 C 
HETATM   21  C   UNL     1     -43.165  62.280 -50.553  1.00  0.00     0.117 C 
HETATM   22  O   UNL     1     -42.637  61.033 -52.511  1.00  0.00    -0.274 OA
HETATM   23  H   UNL     1     -42.872  60.090 -49.473  1.00  0.00     0.169 HD
ENDBRANCH  16  19
ENDBRANCH   1  13
BRANCH   5  24
HETATM   24  N   UNL     1     -39.204  51.951 -51.452  1.00  0.00    -0.282 NA
HETATM   25  H   UNL     1     -38.993  51.080 -51.932  1.00  0.00     0.126 HD
HETATM   26  H   UNL     1     -38.374  52.446 -51.134  1.00  0.00     0.126 HD
ENDBRANCH   5  24
BRANCH  12  27
HETATM   27  C   UNL     1     -42.893  56.481 -54.853  1.00  0.00    -0.005 A 
HETATM   28  C   UNL     1     -44.281  56.365 -54.724  1.00  0.00     0.014 A 
HETATM   29  C   UNL     1     -45.087  57.508 -54.757  1.00  0.00     0.001 A 
HETATM   30  C   UNL     1     -44.511  58.768 -54.924  1.00  0.00     0.000 A 
HETATM   31  C   UNL     1     -43.131  58.890 -55.070  1.00  0.00     0.001 A 
HETATM   32  C   UNL     1     -42.327  57.751 -55.039  1.00  0.00     0.014 A 
ENDBRANCH  12  27
TORSDOF 4
ENDMDL
MODEL 9
REMARK VINA RESULT:      -6.9     14.736     18.275
REMARK  4 active torsions:
REMARK  status: ('A' for Active; 'I' for Inactive)
REMARK       I    between atoms: C_2  and  N_3 
REMARK    1  A    between atoms: N_3  and  C_4 
REMARK    2  A    between atoms: C_7  and  C_8 
REMARK    3  A    between atoms: C_12  and  N_13 
REMARK    4  A    between atoms: C_20  and  C_21 
ROOT
HETATM    1  C   UNL     1     -35.428  39.694 -55.487  1.00  0.00     0.105 C 
HETATM    2  C   UNL     1     -36.043  40.167 -56.805  1.00  0.00     0.067 C 
HETATM    3  C   UNL     1     -35.673  39.420 -58.075  1.00  0.00     0.020 C 
HETATM    4  N   UNL     1     -35.365  38.800 -59.130  1.00  0.00    -0.096 N 
HETATM    5  C   UNL     1     -36.873  41.240 -56.893  1.00  0.00     0.139 C 
HETATM    6  O   UNL     1     -37.201  42.014 -55.769  1.00  0.00    -0.279 OA
HETATM    7  C   UNL     1     -36.525  41.748 -54.658  1.00  0.00     0.175 A 
HETATM    8  C   UNL     1     -35.647  40.719 -54.416  1.00  0.00     0.040 A 
HETATM    9  N   UNL     1     -36.557  42.520 -53.546  1.00  0.00    -0.256 N 
HETATM   10  H   UNL     1     -37.092  43.365 -53.383  1.00  0.00     0.191 HD
HETATM   11  N   UNL     1     -35.725  42.084 -52.587  1.00  0.00    -0.172 NA
HETATM   12  C   UNL     1     -35.150  40.979 -53.105  1.00  0.00     0.099 A 
ENDROOT
BRANCH   1  13
HETATM   13  C   UNL     1     -33.948  39.367 -55.554  1.00  0.00    -0.044 A 
HETATM   14  C   UNL     1     -32.965  40.295 -55.930  1.00  0.00     0.010 A 
HETATM   15  C   UNL     1     -31.605  39.957 -55.898  1.00  0.00     0.030 A 
HETATM   16  C   UNL     1     -31.200  38.677 -55.518  1.00  0.00     0.034 A 
HETATM   17  C   UNL     1     -32.177  37.727 -55.209  1.00  0.00     0.030 A 
HETATM   18  C   UNL     1     -33.532  38.065 -55.229  1.00  0.00     0.010 A 
BRANCH  16  19
HETATM   19  N   UNL     1     -29.856  38.265 -55.402  1.00  0.00    -0.328 N 
HETATM   20  C   UNL     1     -28.920  38.146 -56.412  1.00  0.00     0.218 C 
HETATM   21  C   UNL     1     -27.557  37.761 -55.889  1.00  0.00     0.117 C 
HETATM   22  O   UNL     1     -29.092  38.355 -57.608  1.00  0.00    -0.274 OA
HETATM   23  H   UNL     1     -29.532  38.087 -54.461  1.00  0.00     0.169 HD
ENDBRANCH  16  19
ENDBRANCH   1  13
BRANCH   5  24
HETATM   24  N   UNL     1     -37.470  41.700 -58.045  1.00  0.00    -0.282 NA
HETATM   25  H   UNL     1     -37.961  42.587 -57.973  1.00  0.00     0.126 HD
HETATM   26  H   UNL     1     -36.851  41.646 -58.850  1.00  0.00     0.126 HD
ENDBRANCH   5  24
BRANCH  12  27
HETATM   27  C   UNL     1     -34.115  40.280 -52.350  1.00  0.00    -0.005 A 
HETATM   28  C   UNL     1     -34.358  39.039 -51.753  1.00  0.00     0.014 A 
HETATM   29  C   UNL     1     -33.332  38.374 -51.073  1.00  0.00     0.001 A 
HETATM   30  C   UNL     1     -32.064  38.948 -50.983  1.00  0.00     0.000 A 
HETATM   31  C   UNL     1     -31.818  40.191 -51.560  1.00  0.00     0.001 A 
HETATM   32  C   UNL     1     -32.841  40.856 -52.237  1.00  0.00     0.014 A 
ENDBRANCH  12  27
TORSDOF 4
ENDMDL
MODEL 10
REMARK VINA RESULT:      -6.8      2.679      6.829
REMARK  4 active torsions:
REMARK  status: ('A' for Active; 'I' for Inactive)
REMARK       I    between atoms: C_2  and  N_3 
REMARK    1  A    between atoms: N_3  and  C_4 
REMARK    2  A    between atoms: C_7  and  C_8 
REMARK    3  A    between atoms: C_12  and  N_13 
REMARK    4  A    between atoms: C_20  and  C_21 
ROOT
HETATM    1  C   UNL     1     -43.630  58.246 -54.703  1.00  0.00     0.105 C 
HETATM    2  C   UNL     1     -43.026  57.528 -55.911  1.00  0.00     0.067 C 
HETATM    3  C   UNL     1     -42.972  56.010 -55.887  1.00  0.00     0.020 C 
HETATM    4  N   UNL     1     -42.928  54.749 -55.868  1.00  0.00    -0.096 N 
HETATM    5  C   UNL     1     -42.507  58.186 -56.982  1.00  0.00     0.139 C 
HETATM    6  O   UNL     1     -42.464  59.588 -57.037  1.00  0.00    -0.279 OA
HETATM    7  C   UNL     1     -42.794  60.228 -55.921  1.00  0.00     0.175 A 
HETATM    8  C   UNL     1     -43.315  59.709 -54.760  1.00  0.00     0.040 A 
HETATM    9  N   UNL     1     -42.613  61.555 -55.725  1.00  0.00    -0.256 N 
HETATM   10  H   UNL     1     -42.240  62.241 -56.371  1.00  0.00     0.191 HD
HETATM   11  N   UNL     1     -42.952  61.947 -54.486  1.00  0.00    -0.172 NA
HETATM   12  C   UNL     1     -43.380  60.825 -53.873  1.00  0.00     0.099 A 
ENDROOT
BRANCH   1  13
HETATM   13  C   UNL     1     -43.193  57.703 -53.355  1.00  0.00    -0.044 A 
HETATM   14  C   UNL     1     -44.088  57.231 -52.383  1.00  0.00     0.010 A 
HETATM   15  C   UNL     1     -43.622  56.669 -51.187  1.00  0.00     0.030 A 
HETATM   16  C   UNL     1     -42.254  56.592 -50.924  1.00  0.00     0.034 A 
HETATM   17  C   UNL     1     -41.359  57.123 -51.857  1.00  0.00     0.030 A 
HETATM   18  C   UNL     1     -41.821  57.674 -53.055  1.00  0.00     0.010 A 
BRANCH  16  19
HETATM   19  N   UNL     1     -41.692  55.994 -49.776  1.00  0.00    -0.328 N 
HETATM   20  C   UNL     1     -41.347  54.667 -49.601  1.00  0.00     0.218 C 
HETATM   21  C   UNL     1     -40.689  54.417 -48.265  1.00  0.00     0.117 C 
HETATM   22  O   UNL     1     -41.487  53.754 -50.407  1.00  0.00    -0.274 OA
HETATM   23  H   UNL     1     -41.473  56.624 -49.016  1.00  0.00     0.169 HD
ENDBRANCH  16  19
ENDBRANCH   1  13
BRANCH   5  24
HETATM   24  N   UNL     1     -41.969  57.596 -58.102  1.00  0.00    -0.282 NA
HETATM   25  H   UNL     1     -42.561  57.575 -58.929  1.00  0.00     0.126 HD
HETATM   26  H   UNL     1     -41.023  57.916 -58.293  1.00  0.00     0.126 HD
ENDBRANCH   5  24
BRANCH  12  27
HETATM   27  C   UNL     1     -43.760  60.869 -52.465  1.00  0.00    -0.005 A 
HETATM   28  C   UNL     1     -45.101  60.867 -52.069  1.00  0.00     0.014 A 
HETATM   29  C   UNL     1     -45.431  60.865 -50.709  1.00  0.00     0.001 A 
HETATM   30  C   UNL     1     -44.425  60.871 -49.743  1.00  0.00     0.000 A 
HETATM   31  C   UNL     1     -43.087  60.890 -50.129  1.00  0.00     0.001 A 
HETATM   32  C   UNL     1     -42.757  60.893 -51.484  1.00  0.00     0.014 A 
ENDBRANCH  12  27
TORSDOF 4
ENDMDL
