MODEL 1
REMARK VINA RESULT:      -7.7      0.000      0.000
REMARK  10 active torsions:
REMARK  status: ('A' for Active; 'I' for Inactive)
REMARK    1  A    between atoms: C_2  and  O_3 
REMARK    2  A    between atoms: O_3  and  C_4 
REMARK    3  A    between atoms: C_4  and  C_5 
REMARK    4  A    between atoms: C_10  and  N_11 
REMARK       I    between atoms: N_11  and  C_12 
REMARK    5  A    between atoms: C_12  and  C_13 
REMARK    6  A    between atoms: C_13  and  C_14 
REMARK    7  A    between atoms: C_14  and  N_15 
REMARK    8  A    between atoms: C_19  and  C_20 
REMARK    9  A    between atoms: C_20  and  O_21 
REMARK   10  A    between atoms: O_21  and  C_22 
ROOT
HETATM    1  N   UNL     1     -43.209  55.360 -53.153  1.00  0.00    -0.324 N 
HETATM    2  C   UNL     1     -43.498  55.665 -54.440  1.00  0.00     0.223 C 
HETATM    3  O   UNL     1     -44.614  56.130 -54.696  1.00  0.00    -0.273 OA
HETATM    4  H   UNL     1     -44.018  55.573 -52.562  1.00  0.00     0.169 HD
ENDROOT
BRANCH   1   5
HETATM    5  C   UNL     1     -42.135  54.813 -52.452  1.00  0.00     0.080 A 
HETATM    6  C   UNL     1     -41.684  55.502 -51.325  1.00  0.00     0.137 A 
HETATM    7  N   UNL     1     -40.674  54.772 -50.759  1.00  0.00    -0.349 N 
HETATM    8  H   UNL     1     -40.179  55.046 -49.918  1.00  0.00     0.166 HD
HETATM    9  C   UNL     1     -40.410  53.651 -51.497  1.00  0.00     0.045 A 
HETATM   10  C   UNL     1     -41.290  53.647 -52.589  1.00  0.00     0.021 A 
HETATM   11  C   UNL     1     -39.443  52.662 -51.260  1.00  0.00     0.032 A 
HETATM   12  C   UNL     1     -41.127  52.573 -53.495  1.00  0.00     0.035 A 
HETATM   13  C   UNL     1     -40.159  51.582 -53.280  1.00  0.00     0.012 A 
HETATM   14  C   UNL     1     -39.330  51.618 -52.174  1.00  0.00     0.021 A 
HETATM   15 BR   UNL     1     -39.991  50.178 -54.541  1.00  0.00    -0.051 Br
BRANCH   6  16
HETATM   16  C   UNL     1     -42.142  56.763 -50.782  1.00  0.00     0.312 C 
HETATM   17  O   UNL     1     -43.278  57.196 -50.917  1.00  0.00    -0.258 OA
BRANCH  16  18
HETATM   18  O   UNL     1     -41.123  57.387 -50.131  1.00  0.00    -0.317 OA
BRANCH  18  19
HETATM   19  C   UNL     1     -40.513  58.481 -50.833  1.00  0.00     0.175 C 
HETATM   20  C   UNL     1     -40.923  59.800 -50.207  1.00  0.00     0.034 C 
ENDBRANCH  18  19
ENDBRANCH  16  18
ENDBRANCH   6  16
ENDBRANCH   1   5
BRANCH   2  21
HETATM   21  C   UNL     1     -42.518  55.465 -55.554  1.00  0.00     0.131 C 
BRANCH  21  22
HETATM   22  C   UNL     1     -42.141  56.821 -56.140  1.00  0.00     0.244 C 
BRANCH  22  23
HETATM   23  N   UNL     1     -42.086  56.819 -57.674  1.00  0.00    -0.071 N 
HETATM   24  H   UNL     1     -41.161  56.455 -57.942  1.00  0.00     0.279 HD
HETATM   25  C   UNL     1     -43.123  55.831 -58.184  1.00  0.00     0.235 C 
HETATM   26  C   UNL     1     -43.127  55.791 -59.704  1.00  0.00     0.042 C 
HETATM   27  C   UNL     1     -43.368  57.176 -60.306  1.00  0.00     0.088 C 
HETATM   28  C   UNL     1     -42.272  58.121 -59.802  1.00  0.00     0.042 C 
HETATM   29  C   UNL     1     -42.230  58.200 -58.278  1.00  0.00     0.235 C 
BRANCH  27  30
HETATM   30  C   UNL     1     -44.745  57.728 -59.956  1.00  0.00     0.263 C 
HETATM   31  O   UNL     1     -45.033  58.914 -60.023  1.00  0.00    -0.265 OA
BRANCH  30  32
HETATM   32  O   UNL     1     -45.566  56.745 -59.508  1.00  0.00    -0.322 OA
BRANCH  32  33
HETATM   33  C   UNL     1     -46.967  56.927 -59.782  1.00  0.00     0.174 C 
HETATM   34  C   UNL     1     -47.305  56.364 -61.151  1.00  0.00     0.034 C 
ENDBRANCH  32  33
ENDBRANCH  30  32
ENDBRANCH  27  30
ENDBRANCH  22  23
ENDBRANCH  21  22
ENDBRANCH   2  21
TORSDOF 10
ENDMDL
MODEL 2
REMARK VINA RESULT:      -7.6      1.463      1.841
REMARK  10 active torsions:
REMARK  status: ('A' for Active; 'I' for Inactive)
REMARK    1  A    between atoms: C_2  and  O_3 
REMARK    2  A    between atoms: O_3  and  C_4 
REMARK    3  A    between atoms: C_4  and  C_5 
REMARK    4  A    between atoms: C_10  and  N_11 
REMARK       I    between atoms: N_11  and  C_12 
REMARK    5  A    between atoms: C_12  and  C_13 
REMARK    6  A    between atoms: C_13  and  C_14 
REMARK    7  A    between atoms: C_14  and  N_15 
REMARK    8  A    between atoms: C_19  and  C_20 
REMARK    9  A    between atoms: C_20  and  O_21 
REMARK   10  A    between atoms: O_21  and  C_22 
ROOT
HETATM    1  N   UNL     1     -44.420  56.547 -53.626  1.00  0.00    -0.324 N 
HETATM    2  C   UNL     1     -44.349  57.212 -54.804  1.00  0.00     0.223 C 
HETATM    3  O   UNL     1     -45.381  57.337 -55.470  1.00  0.00    -0.273 OA
HETATM    4  H   UNL     1     -45.382  56.228 -53.472  1.00  0.00     0.169 HD
ENDROOT
BRANCH   1   5
HETATM    5  C   UNL     1     -43.537  56.165 -52.617  1.00  0.00     0.080 A 
HETATM    6  C   UNL     1     -43.587  56.874 -51.415  1.00  0.00     0.137 A 
HETATM    7  N   UNL     1     -42.690  56.307 -50.551  1.00  0.00    -0.349 N 
HETATM    8  H   UNL     1     -42.537  56.627 -49.602  1.00  0.00     0.166 HD
HETATM    9  C   UNL     1     -42.017  55.279 -51.153  1.00  0.00     0.045 A 
HETATM   10  C   UNL     1     -42.500  55.168 -52.465  1.00  0.00     0.021 A 
HETATM   11  C   UNL     1     -41.012  54.463 -50.611  1.00  0.00     0.032 A 
HETATM   12  C   UNL     1     -41.877  54.177 -53.259  1.00  0.00     0.035 A 
HETATM   13  C   UNL     1     -40.864  53.360 -52.737  1.00  0.00     0.012 A 
HETATM   14  C   UNL     1     -40.439  53.492 -51.428  1.00  0.00     0.021 A 
HETATM   15 BR   UNL     1     -40.068  52.059 -53.861  1.00  0.00    -0.051 Br
BRANCH   6  16
HETATM   16  C   UNL     1     -44.407  58.014 -51.062  1.00  0.00     0.312 C 
HETATM   17  O   UNL     1     -45.616  57.962 -50.887  1.00  0.00    -0.258 OA
BRANCH  16  18
HETATM   18  O   UNL     1     -43.637  59.133 -50.978  1.00  0.00    -0.317 OA
BRANCH  18  19
HETATM   19  C   UNL     1     -43.416  59.830 -52.215  1.00  0.00     0.175 C 
HETATM   20  C   UNL     1     -41.930  59.967 -52.482  1.00  0.00     0.034 C 
ENDBRANCH  18  19
ENDBRANCH  16  18
ENDBRANCH   6  16
ENDBRANCH   1   5
BRANCH   2  21
HETATM   21  C   UNL     1     -43.073  57.803 -55.318  1.00  0.00     0.131 C 
BRANCH  21  22
HETATM   22  C   UNL     1     -42.220  56.698 -55.933  1.00  0.00     0.244 C 
BRANCH  22  23
HETATM   23  N   UNL     1     -42.122  56.796 -57.461  1.00  0.00    -0.071 N 
HETATM   24  H   UNL     1     -41.155  56.552 -57.717  1.00  0.00     0.279 HD
HETATM   25  C   UNL     1     -43.028  55.734 -58.064  1.00  0.00     0.235 C 
HETATM   26  C   UNL     1     -42.984  55.787 -59.583  1.00  0.00     0.042 C 
HETATM   27  C   UNL     1     -43.360  57.172 -60.112  1.00  0.00     0.088 C 
HETATM   28  C   UNL     1     -42.391  58.198 -59.515  1.00  0.00     0.042 C 
HETATM   29  C   UNL     1     -42.401  58.187 -57.989  1.00  0.00     0.235 C 
BRANCH  27  30
HETATM   30  C   UNL     1     -44.799  57.547 -59.779  1.00  0.00     0.263 C 
HETATM   31  O   UNL     1     -45.131  58.651 -59.370  1.00  0.00    -0.265 OA
BRANCH  30  32
HETATM   32  O   UNL     1     -45.630  56.487 -59.935  1.00  0.00    -0.322 OA
BRANCH  32  33
HETATM   33  C   UNL     1     -47.036  56.791 -59.956  1.00  0.00     0.174 C 
HETATM   34  C   UNL     1     -47.602  56.533 -61.341  1.00  0.00     0.034 C 
ENDBRANCH  32  33
ENDBRANCH  30  32
ENDBRANCH  27  30
ENDBRANCH  22  23
ENDBRANCH  21  22
ENDBRANCH   2  21
TORSDOF 10
ENDMDL
MODEL 3
REMARK VINA RESULT:      -7.5      2.192      3.239
REMARK  10 active torsions:
REMARK  status: ('A' for Active; 'I' for Inactive)
REMARK    1  A    between atoms: C_2  and  O_3 
REMARK    2  A    between atoms: O_3  and  C_4 
REMARK    3  A    between atoms: C_4  and  C_5 
REMARK    4  A    between atoms: C_10  and  N_11 
REMARK       I    between atoms: N_11  and  C_12 
REMARK    5  A    between atoms: C_12  and  C_13 
REMARK    6  A    between atoms: C_13  and  C_14 
REMARK    7  A    between atoms: C_14  and  N_15 
REMARK    8  A    between atoms: C_19  and  C_20 
REMARK    9  A    between atoms: C_20  and  O_21 
REMARK   10  A    between atoms: O_21  and  C_22 
ROOT
HETATM    1  N   UNL     1     -41.315  58.367 -53.701  1.00  0.00    -0.324 N 
HETATM    2  C   UNL     1     -42.078  58.712 -54.765  1.00  0.00     0.223 C 
HETATM    3  O   UNL     1     -41.687  59.627 -55.496  1.00  0.00    -0.273 OA
HETATM    4  H   UNL     1     -40.483  58.965 -53.670  1.00  0.00     0.169 HD
ENDROOT
BRANCH   1   5
HETATM    5  C   UNL     1     -41.386  57.456 -52.648  1.00  0.00     0.080 A 
HETATM    6  C   UNL     1     -41.663  57.962 -51.377  1.00  0.00     0.137 A 
HETATM    7  N   UNL     1     -41.745  56.906 -50.510  1.00  0.00    -0.349 N 
HETATM    8  H   UNL     1     -41.948  56.999 -49.522  1.00  0.00     0.166 HD
HETATM    9  C   UNL     1     -41.487  55.726 -51.152  1.00  0.00     0.045 A 
HETATM   10  C   UNL     1     -41.230  56.026 -52.498  1.00  0.00     0.021 A 
HETATM   11  C   UNL     1     -41.457  54.432 -50.613  1.00  0.00     0.032 A 
HETATM   12  C   UNL     1     -40.893  54.919 -53.312  1.00  0.00     0.035 A 
HETATM   13  C   UNL     1     -40.849  53.619 -52.788  1.00  0.00     0.012 A 
HETATM   14  C   UNL     1     -41.134  53.373 -51.457  1.00  0.00     0.021 A 
HETATM   15 BR   UNL     1     -40.381  52.186 -53.934  1.00  0.00    -0.051 Br
BRANCH   6  16
HETATM   16  C   UNL     1     -41.845  59.336 -50.962  1.00  0.00     0.312 C 
HETATM   17  O   UNL     1     -41.159  59.894 -50.116  1.00  0.00    -0.258 OA
BRANCH  16  18
HETATM   18  O   UNL     1     -42.891  59.891 -51.631  1.00  0.00    -0.317 OA
BRANCH  18  19
HETATM   19  C   UNL     1     -44.177  59.741 -51.009  1.00  0.00     0.175 C 
HETATM   20  C   UNL     1     -45.131  59.022 -51.944  1.00  0.00     0.034 C 
ENDBRANCH  18  19
ENDBRANCH  16  18
ENDBRANCH   6  16
ENDBRANCH   1   5
BRANCH   2  21
HETATM   21  C   UNL     1     -43.369  58.023 -55.086  1.00  0.00     0.131 C 
BRANCH  21  22
HETATM   22  C   UNL     1     -43.070  56.676 -55.735  1.00  0.00     0.244 C 
BRANCH  22  23
HETATM   23  N   UNL     1     -43.878  56.436 -57.017  1.00  0.00    -0.071 N 
HETATM   24  H   UNL     1     -44.757  55.977 -56.738  1.00  0.00     0.279 HD
HETATM   25  C   UNL     1     -44.245  57.787 -57.608  1.00  0.00     0.235 C 
HETATM   26  C   UNL     1     -45.040  57.616 -58.893  1.00  0.00     0.042 C 
HETATM   27  C   UNL     1     -44.282  56.774 -59.919  1.00  0.00     0.088 C 
HETATM   28  C   UNL     1     -43.978  55.407 -59.296  1.00  0.00     0.042 C 
HETATM   29  C   UNL     1     -43.177  55.525 -58.002  1.00  0.00     0.235 C 
BRANCH  27  30
HETATM   30  C   UNL     1     -42.992  57.444 -60.379  1.00  0.00     0.263 C 
HETATM   31  O   UNL     1     -41.906  56.882 -60.389  1.00  0.00    -0.265 OA
BRANCH  30  32
HETATM   32  O   UNL     1     -43.206  58.742 -60.707  1.00  0.00    -0.322 OA
BRANCH  32  33
HETATM   33  C   UNL     1     -42.063  59.611 -60.601  1.00  0.00     0.174 C 
HETATM   34  C   UNL     1     -42.036  60.267 -59.232  1.00  0.00     0.034 C 
ENDBRANCH  32  33
ENDBRANCH  30  32
ENDBRANCH  27  30
ENDBRANCH  22  23
ENDBRANCH  21  22
ENDBRANCH   2  21
TORSDOF 10
ENDMDL
MODEL 4
REMARK VINA RESULT:      -7.3      2.113      2.708
REMARK  10 active torsions:
REMARK  status: ('A' for Active; 'I' for Inactive)
REMARK    1  A    between atoms: C_2  and  O_3 
REMARK    2  A    between atoms: O_3  and  C_4 
REMARK    3  A    between atoms: C_4  and  C_5 
REMARK    4  A    between atoms: C_10  and  N_11 
REMARK       I    between atoms: N_11  and  C_12 
REMARK    5  A    between atoms: C_12  and  C_13 
REMARK    6  A    between atoms: C_13  and  C_14 
REMARK    7  A    between atoms: C_14  and  N_15 
REMARK    8  A    between atoms: C_19  and  C_20 
REMARK    9  A    between atoms: C_20  and  O_21 
REMARK   10  A    between atoms: O_21  and  C_22 
ROOT
HETATM    1  N   UNL     1     -41.164  58.481 -53.361  1.00  0.00    -0.324 N 
HETATM    2  C   UNL     1     -41.802  58.759 -54.522  1.00  0.00     0.223 C 
HETATM    3  O   UNL     1     -41.499  59.794 -55.125  1.00  0.00    -0.273 OA
HETATM    4  H   UNL     1     -40.493  59.227 -53.153  1.00  0.00     0.169 HD
ENDROOT
BRANCH   1   5
HETATM    5  C   UNL     1     -41.211  57.486 -52.385  1.00  0.00     0.080 A 
HETATM    6  C   UNL     1     -41.404  57.890 -51.063  1.00  0.00     0.137 A 
HETATM    7  N   UNL     1     -41.475  56.766 -50.284  1.00  0.00    -0.349 N 
HETATM    8  H   UNL     1     -41.623  56.780 -49.282  1.00  0.00     0.166 HD
HETATM    9  C   UNL     1     -41.291  55.638 -51.036  1.00  0.00     0.045 A 
HETATM   10  C   UNL     1     -41.095  56.044 -52.365  1.00  0.00     0.021 A 
HETATM   11  C   UNL     1     -41.277  54.302 -50.610  1.00  0.00     0.032 A 
HETATM   12  C   UNL     1     -40.839  55.002 -53.286  1.00  0.00     0.035 A 
HETATM   13  C   UNL     1     -40.810  53.661 -52.875  1.00  0.00     0.012 A 
HETATM   14  C   UNL     1     -41.034  53.310 -51.556  1.00  0.00     0.021 A 
HETATM   15 BR   UNL     1     -40.452  52.318 -54.162  1.00  0.00    -0.051 Br
BRANCH   6  16
HETATM   16  C   UNL     1     -41.517  59.228 -50.524  1.00  0.00     0.312 C 
HETATM   17  O   UNL     1     -40.637  59.787 -49.885  1.00  0.00    -0.258 OA
BRANCH  16  18
HETATM   18  O   UNL     1     -42.741  59.746 -50.818  1.00  0.00    -0.317 OA
BRANCH  18  19
HETATM   19  C   UNL     1     -42.742  61.090 -51.324  1.00  0.00     0.175 C 
HETATM   20  C   UNL     1     -43.384  62.028 -50.321  1.00  0.00     0.034 C 
ENDBRANCH  18  19
ENDBRANCH  16  18
ENDBRANCH   6  16
ENDBRANCH   1   5
BRANCH   2  21
HETATM   21  C   UNL     1     -42.850  57.859 -55.100  1.00  0.00     0.131 C 
BRANCH  21  22
HETATM   22  C   UNL     1     -43.748  58.666 -56.031  1.00  0.00     0.244 C 
BRANCH  22  23
HETATM   23  N   UNL     1     -43.155  58.840 -57.435  1.00  0.00    -0.071 N 
HETATM   24  H   UNL     1     -42.330  59.449 -57.341  1.00  0.00     0.279 HD
HETATM   25  C   UNL     1     -42.660  57.485 -57.913  1.00  0.00     0.235 C 
HETATM   26  C   UNL     1     -42.069  57.588 -59.310  1.00  0.00     0.042 C 
HETATM   27  C   UNL     1     -43.072  58.172 -60.307  1.00  0.00     0.088 C 
HETATM   28  C   UNL     1     -43.502  59.555 -59.807  1.00  0.00     0.042 C 
HETATM   29  C   UNL     1     -44.107  59.505 -58.407  1.00  0.00     0.235 C 
BRANCH  27  30
HETATM   30  C   UNL     1     -44.290  57.275 -60.496  1.00  0.00     0.263 C 
HETATM   31  O   UNL     1     -45.427  57.609 -60.193  1.00  0.00    -0.265 OA
BRANCH  30  32
HETATM   32  O   UNL     1     -43.931  56.059 -60.975  1.00  0.00    -0.322 OA
BRANCH  32  33
HETATM   33  C   UNL     1     -44.888  55.001 -60.779  1.00  0.00     0.174 C 
HETATM   34  C   UNL     1     -44.541  54.214 -59.527  1.00  0.00     0.034 C 
ENDBRANCH  32  33
ENDBRANCH  30  32
ENDBRANCH  27  30
ENDBRANCH  22  23
ENDBRANCH  21  22
ENDBRANCH   2  21
TORSDOF 10
ENDMDL
MODEL 5
REMARK VINA RESULT:      -7.2      3.921      7.464
REMARK  10 active torsions:
REMARK  status: ('A' for Active; 'I' for Inactive)
REMARK    1  A    between atoms: C_2  and  O_3 
REMARK    2  A    between atoms: O_3  and  C_4 
REMARK    3  A    between atoms: C_4  and  C_5 
REMARK    4  A    between atoms: C_10  and  N_11 
REMARK       I    between atoms: N_11  and  C_12 
REMARK    5  A    between atoms: C_12  and  C_13 
REMARK    6  A    between atoms: C_13  and  C_14 
REMARK    7  A    between atoms: C_14  and  N_15 
REMARK    8  A    between atoms: C_19  and  C_20 
REMARK    9  A    between atoms: C_20  and  O_21 
REMARK   10  A    between atoms: O_21  and  C_22 
ROOT
HETATM    1  N   UNL     1     -43.020  59.739 -51.923  1.00  0.00    -0.324 N 
HETATM    2  C   UNL     1     -41.830  59.765 -51.278  1.00  0.00     0.223 C 
HETATM    3  O   UNL     1     -41.649  60.629 -50.415  1.00  0.00    -0.273 OA
HETATM    4  H   UNL     1     -43.615  60.496 -51.571  1.00  0.00     0.169 HD
ENDROOT
BRANCH   1   5
HETATM    5  C   UNL     1     -43.612  58.991 -52.940  1.00  0.00     0.080 A 
HETATM    6  C   UNL     1     -44.589  58.064 -52.571  1.00  0.00     0.137 A 
HETATM    7  N   UNL     1     -45.076  57.486 -53.712  1.00  0.00    -0.349 N 
HETATM    8  H   UNL     1     -45.806  56.784 -53.725  1.00  0.00     0.166 HD
HETATM    9  C   UNL     1     -44.425  57.964 -54.817  1.00  0.00     0.045 A 
HETATM   10  C   UNL     1     -43.476  58.897 -54.376  1.00  0.00     0.021 A 
HETATM   11  C   UNL     1     -44.621  57.611 -56.160  1.00  0.00     0.032 A 
HETATM   12  C   UNL     1     -42.668  59.465 -55.390  1.00  0.00     0.035 A 
HETATM   13  C   UNL     1     -42.842  59.116 -56.737  1.00  0.00     0.012 A 
HETATM   14  C   UNL     1     -43.810  58.207 -57.123  1.00  0.00     0.021 A 
HETATM   15 BR   UNL     1     -41.718  59.909 -58.040  1.00  0.00    -0.051 Br
BRANCH   6  16
HETATM   16  C   UNL     1     -45.062  57.713 -51.249  1.00  0.00     0.312 C 
HETATM   17  O   UNL     1     -44.655  56.756 -50.606  1.00  0.00    -0.258 OA
BRANCH  16  18
HETATM   18  O   UNL     1     -46.026  58.588 -50.852  1.00  0.00    -0.317 OA
BRANCH  18  19
HETATM   19  C   UNL     1     -45.616  59.572 -49.890  1.00  0.00     0.175 C 
HETATM   20  C   UNL     1     -45.974  60.963 -50.377  1.00  0.00     0.034 C 
ENDBRANCH  18  19
ENDBRANCH  16  18
ENDBRANCH   6  16
ENDBRANCH   1   5
BRANCH   2  21
HETATM   21  C   UNL     1     -40.736  58.784 -51.569  1.00  0.00     0.131 C 
BRANCH  21  22
HETATM   22  C   UNL     1     -40.799  57.647 -50.555  1.00  0.00     0.244 C 
BRANCH  22  23
HETATM   23  N   UNL     1     -41.663  56.470 -51.026  1.00  0.00    -0.071 N 
HETATM   24  H   UNL     1     -42.646  56.763 -50.936  1.00  0.00     0.279 HD
HETATM   25  C   UNL     1     -41.396  56.246 -52.506  1.00  0.00     0.235 C 
HETATM   26  C   UNL     1     -42.218  55.080 -53.033  1.00  0.00     0.042 C 
HETATM   27  C   UNL     1     -41.951  53.798 -52.242  1.00  0.00     0.088 C 
HETATM   28  C   UNL     1     -42.281  54.060 -50.769  1.00  0.00     0.042 C 
HETATM   29  C   UNL     1     -41.477  55.221 -50.191  1.00  0.00     0.235 C 
BRANCH  27  30
HETATM   30  C   UNL     1     -40.511  53.319 -52.386  1.00  0.00     0.263 C 
HETATM   31  O   UNL     1     -39.750  53.178 -51.439  1.00  0.00    -0.265 OA
BRANCH  30  32
HETATM   32  O   UNL     1     -40.185  53.137 -53.689  1.00  0.00    -0.322 OA
BRANCH  32  33
HETATM   33  C   UNL     1     -40.681  51.930 -54.296  1.00  0.00     0.174 C 
HETATM   34  C   UNL     1     -39.820  50.749 -53.883  1.00  0.00     0.034 C 
ENDBRANCH  32  33
ENDBRANCH  30  32
ENDBRANCH  27  30
ENDBRANCH  22  23
ENDBRANCH  21  22
ENDBRANCH   2  21
TORSDOF 10
ENDMDL
MODEL 6
REMARK VINA RESULT:      -7.2      2.227      2.790
REMARK  10 active torsions:
REMARK  status: ('A' for Active; 'I' for Inactive)
REMARK    1  A    between atoms: C_2  and  O_3 
REMARK    2  A    between atoms: O_3  and  C_4 
REMARK    3  A    between atoms: C_4  and  C_5 
REMARK    4  A    between atoms: C_10  and  N_11 
REMARK       I    between atoms: N_11  and  C_12 
REMARK    5  A    between atoms: C_12  and  C_13 
REMARK    6  A    between atoms: C_13  and  C_14 
REMARK    7  A    between atoms: C_14  and  N_15 
REMARK    8  A    between atoms: C_19  and  C_20 
REMARK    9  A    between atoms: C_20  and  O_21 
REMARK   10  A    between atoms: O_21  and  C_22 
ROOT
HETATM    1  N   UNL     1     -43.810  58.566 -53.499  1.00  0.00    -0.324 N 
HETATM    2  C   UNL     1     -43.818  58.644 -54.850  1.00  0.00     0.223 C 
HETATM    3  O   UNL     1     -43.849  59.763 -55.373  1.00  0.00    -0.273 OA
HETATM    4  H   UNL     1     -43.840  59.511 -53.102  1.00  0.00     0.169 HD
ENDROOT
BRANCH   1   5
HETATM    5  C   UNL     1     -43.808  57.558 -52.536  1.00  0.00     0.080 A 
HETATM    6  C   UNL     1     -44.585  57.757 -51.393  1.00  0.00     0.137 A 
HETATM    7  N   UNL     1     -44.487  56.635 -50.615  1.00  0.00    -0.349 N 
HETATM    8  H   UNL     1     -44.966  56.516 -49.730  1.00  0.00     0.166 HD
HETATM    9  C   UNL     1     -43.639  55.722 -51.179  1.00  0.00     0.045 A 
HETATM   10  C   UNL     1     -43.166  56.271 -52.380  1.00  0.00     0.021 A 
HETATM   11  C   UNL     1     -43.264  54.463 -50.685  1.00  0.00     0.032 A 
HETATM   12  C   UNL     1     -42.230  55.477 -53.083  1.00  0.00     0.035 A 
HETATM   13  C   UNL     1     -41.836  54.220 -52.599  1.00  0.00     0.012 A 
HETATM   14  C   UNL     1     -42.350  53.713 -51.420  1.00  0.00     0.021 A 
HETATM   15 BR   UNL     1     -40.571  53.215 -53.588  1.00  0.00    -0.051 Br
BRANCH   6  16
HETATM   16  C   UNL     1     -45.379  58.907 -51.019  1.00  0.00     0.312 C 
HETATM   17  O   UNL     1     -46.500  58.839 -50.533  1.00  0.00    -0.258 OA
BRANCH  16  18
HETATM   18  O   UNL     1     -44.704  60.053 -51.306  1.00  0.00    -0.317 OA
BRANCH  18  19
HETATM   19  C   UNL     1     -43.953  60.622 -50.222  1.00  0.00     0.175 C 
HETATM   20  C   UNL     1     -42.492  60.749 -50.605  1.00  0.00     0.034 C 
ENDBRANCH  18  19
ENDBRANCH  16  18
ENDBRANCH   6  16
ENDBRANCH   1   5
BRANCH   2  21
HETATM   21  C   UNL     1     -43.784  57.430 -55.726  1.00  0.00     0.131 C 
BRANCH  21  22
HETATM   22  C   UNL     1     -42.346  57.165 -56.160  1.00  0.00     0.244 C 
BRANCH  22  23
HETATM   23  N   UNL     1     -42.205  56.954 -57.673  1.00  0.00    -0.071 N 
HETATM   24  H   UNL     1     -41.245  56.622 -57.843  1.00  0.00     0.279 HD
HETATM   25  C   UNL     1     -43.146  55.835 -58.087  1.00  0.00     0.235 C 
HETATM   26  C   UNL     1     -43.062  55.585 -59.585  1.00  0.00     0.042 C 
HETATM   27  C   UNL     1     -43.355  56.854 -60.387  1.00  0.00     0.088 C 
HETATM   28  C   UNL     1     -42.351  57.934 -59.970  1.00  0.00     0.042 C 
HETATM   29  C   UNL     1     -42.400  58.225 -58.473  1.00  0.00     0.235 C 
BRANCH  27  30
HETATM   30  C   UNL     1     -44.782  57.350 -60.185  1.00  0.00     0.263 C 
HETATM   31  O   UNL     1     -45.075  58.532 -60.072  1.00  0.00    -0.265 OA
BRANCH  30  32
HETATM   32  O   UNL     1     -45.650  56.314 -60.085  1.00  0.00    -0.322 OA
BRANCH  32  33
HETATM   33  C   UNL     1     -47.045  56.668 -60.046  1.00  0.00     0.174 C 
HETATM   34  C   UNL     1     -47.655  56.520 -61.429  1.00  0.00     0.034 C 
ENDBRANCH  32  33
ENDBRANCH  30  32
ENDBRANCH  27  30
ENDBRANCH  22  23
ENDBRANCH  21  22
ENDBRANCH   2  21
TORSDOF 10
ENDMDL
MODEL 7
REMARK VINA RESULT:      -7.0      2.744      7.199
REMARK  10 active torsions:
REMARK  status: ('A' for Active; 'I' for Inactive)
REMARK    1  A    between atoms: C_2  and  O_3 
REMARK    2  A    between atoms: O_3  and  C_4 
REMARK    3  A    between atoms: C_4  and  C_5 
REMARK    4  A    between atoms: C_10  and  N_11 
REMARK       I    between atoms: N_11  and  C_12 
REMARK    5  A    between atoms: C_12  and  C_13 
REMARK    6  A    between atoms: C_13  and  C_14 
REMARK    7  A    between atoms: C_14  and  N_15 
REMARK    8  A    between atoms: C_19  and  C_20 
REMARK    9  A    between atoms: C_20  and  O_21 
REMARK   10  A    between atoms: O_21  and  C_22 
ROOT
HETATM    1  N   UNL     1     -44.536  57.497 -56.167  1.00  0.00    -0.324 N 
HETATM    2  C   UNL     1     -44.960  58.621 -55.543  1.00  0.00     0.223 C 
HETATM    3  O   UNL     1     -45.851  59.288 -56.079  1.00  0.00    -0.273 OA
HETATM    4  H   UNL     1     -45.053  57.377 -57.044  1.00  0.00     0.169 HD
ENDROOT
BRANCH   1   5
HETATM    5  C   UNL     1     -43.578  56.508 -55.946  1.00  0.00     0.080 A 
HETATM    6  C   UNL     1     -42.699  56.218 -56.991  1.00  0.00     0.137 A 
HETATM    7  N   UNL     1     -41.814  55.272 -56.549  1.00  0.00    -0.349 N 
HETATM    8  H   UNL     1     -41.062  54.892 -57.111  1.00  0.00     0.166 HD
HETATM    9  C   UNL     1     -42.104  54.893 -55.266  1.00  0.00     0.045 A 
HETATM   10  C   UNL     1     -43.225  55.629 -54.853  1.00  0.00     0.021 A 
HETATM   11  C   UNL     1     -41.448  53.943 -54.471  1.00  0.00     0.032 A 
HETATM   12  C   UNL     1     -43.701  55.330 -53.555  1.00  0.00     0.035 A 
HETATM   13  C   UNL     1     -43.063  54.376 -52.749  1.00  0.00     0.012 A 
HETATM   14  C   UNL     1     -41.946  53.693 -53.194  1.00  0.00     0.021 A 
HETATM   15 BR   UNL     1     -43.761  54.020 -51.024  1.00  0.00    -0.051 Br
BRANCH   6  16
HETATM   16  C   UNL     1     -42.658  56.767 -58.329  1.00  0.00     0.312 C 
HETATM   17  O   UNL     1     -42.873  56.119 -59.344  1.00  0.00    -0.258 OA
BRANCH  16  18
HETATM   18  O   UNL     1     -42.330  58.087 -58.280  1.00  0.00    -0.317 OA
BRANCH  18  19
HETATM   19  C   UNL     1     -43.058  58.943 -59.175  1.00  0.00     0.175 C 
HETATM   20  C   UNL     1     -42.145  59.450 -60.275  1.00  0.00     0.034 C 
ENDBRANCH  18  19
ENDBRANCH  16  18
ENDBRANCH   6  16
ENDBRANCH   1   5
BRANCH   2  21
HETATM   21  C   UNL     1     -44.395  59.076 -54.233  1.00  0.00     0.131 C 
BRANCH  21  22
HETATM   22  C   UNL     1     -43.335  60.143 -54.487  1.00  0.00     0.244 C 
BRANCH  22  23
HETATM   23  N   UNL     1     -42.119  60.014 -53.561  1.00  0.00    -0.071 N 
HETATM   24  H   UNL     1     -41.525  60.839 -53.726  1.00  0.00     0.279 HD
HETATM   25  C   UNL     1     -42.607  60.092 -52.123  1.00  0.00     0.235 C 
HETATM   26  C   UNL     1     -41.445  59.958 -51.151  1.00  0.00     0.042 C 
HETATM   27  C   UNL     1     -40.664  58.663 -51.380  1.00  0.00     0.088 C 
HETATM   28  C   UNL     1     -40.153  58.654 -52.824  1.00  0.00     0.042 C 
HETATM   29  C   UNL     1     -41.284  58.782 -53.841  1.00  0.00     0.235 C 
BRANCH  27  30
HETATM   30  C   UNL     1     -41.507  57.423 -51.108  1.00  0.00     0.263 C 
HETATM   31  O   UNL     1     -42.714  57.457 -50.915  1.00  0.00    -0.265 OA
BRANCH  30  32
HETATM   32  O   UNL     1     -40.734  56.310 -51.048  1.00  0.00    -0.322 OA
BRANCH  32  33
HETATM   33  C   UNL     1     -40.740  55.611 -49.790  1.00  0.00     0.174 C 
HETATM   34  C   UNL     1     -40.005  54.289 -49.928  1.00  0.00     0.034 C 
ENDBRANCH  32  33
ENDBRANCH  30  32
ENDBRANCH  27  30
ENDBRANCH  22  23
ENDBRANCH  21  22
ENDBRANCH   2  21
TORSDOF 10
ENDMDL
MODEL 8
REMARK VINA RESULT:      -6.9      2.696      3.477
REMARK  10 active torsions:
REMARK  status: ('A' for Active; 'I' for Inactive)
REMARK    1  A    between atoms: C_2  and  O_3 
REMARK    2  A    between atoms: O_3  and  C_4 
REMARK    3  A    between atoms: C_4  and  C_5 
REMARK    4  A    between atoms: C_10  and  N_11 
REMARK       I    between atoms: N_11  and  C_12 
REMARK    5  A    between atoms: C_12  and  C_13 
REMARK    6  A    between atoms: C_13  and  C_14 
REMARK    7  A    between atoms: C_14  and  N_15 
REMARK    8  A    between atoms: C_19  and  C_20 
REMARK    9  A    between atoms: C_20  and  O_21 
REMARK   10  A    between atoms: O_21  and  C_22 
ROOT
HETATM    1  N   UNL     1     -43.553  59.125 -53.214  1.00  0.00    -0.324 N 
HETATM    2  C   UNL     1     -43.747  59.629 -54.456  1.00  0.00     0.223 C 
HETATM    3  O   UNL     1     -43.661  60.851 -54.613  1.00  0.00    -0.273 OA
HETATM    4  H   UNL     1     -43.359  59.892 -52.562  1.00  0.00     0.169 HD
ENDROOT
BRANCH   1   5
HETATM    5  C   UNL     1     -43.584  57.870 -52.607  1.00  0.00     0.080 A 
HETATM    6  C   UNL     1     -44.400  57.718 -51.485  1.00  0.00     0.137 A 
HETATM    7  N   UNL     1     -44.329  56.411 -51.085  1.00  0.00    -0.349 N 
HETATM    8  H   UNL     1     -44.838  56.031 -50.296  1.00  0.00     0.166 HD
HETATM    9  C   UNL     1     -43.461  55.706 -51.873  1.00  0.00     0.045 A 
HETATM   10  C   UNL     1     -42.947  56.591 -52.832  1.00  0.00     0.021 A 
HETATM   11  C   UNL     1     -43.102  54.353 -51.777  1.00  0.00     0.032 A 
HETATM   12  C   UNL     1     -41.986  56.041 -53.712  1.00  0.00     0.035 A 
HETATM   13  C   UNL     1     -41.608  54.693 -53.624  1.00  0.00     0.012 A 
HETATM   14  C   UNL     1     -42.162  53.854 -52.675  1.00  0.00     0.021 A 
HETATM   15 BR   UNL     1     -40.308  54.027 -54.830  1.00  0.00    -0.051 Br
BRANCH   6  16
HETATM   16  C   UNL     1     -45.208  58.706 -50.803  1.00  0.00     0.312 C 
HETATM   17  O   UNL     1     -46.366  58.524 -50.455  1.00  0.00    -0.258 OA
BRANCH  16  18
HETATM   18  O   UNL     1     -44.495  59.853 -50.634  1.00  0.00    -0.317 OA
BRANCH  18  19
HETATM   19  C   UNL     1     -45.273  61.053 -50.494  1.00  0.00     0.175 C 
HETATM   20  C   UNL     1     -44.623  61.985 -49.489  1.00  0.00     0.034 C 
ENDBRANCH  18  19
ENDBRANCH  16  18
ENDBRANCH   6  16
ENDBRANCH   1   5
BRANCH   2  21
HETATM   21  C   UNL     1     -44.054  58.762 -55.637  1.00  0.00     0.131 C 
BRANCH  21  22
HETATM   22  C   UNL     1     -44.530  59.636 -56.792  1.00  0.00     0.244 C 
BRANCH  22  23
HETATM   23  N   UNL     1     -43.720  59.426 -58.078  1.00  0.00    -0.071 N 
HETATM   24  H   UNL     1     -43.265  60.323 -58.298  1.00  0.00     0.279 HD
HETATM   25  C   UNL     1     -42.617  58.422 -57.786  1.00  0.00     0.235 C 
HETATM   26  C   UNL     1     -41.782  58.161 -59.030  1.00  0.00     0.042 C 
HETATM   27  C   UNL     1     -42.643  57.682 -60.199  1.00  0.00     0.088 C 
HETATM   28  C   UNL     1     -43.707  58.746 -60.486  1.00  0.00     0.042 C 
HETATM   29  C   UNL     1     -44.576  59.042 -59.267  1.00  0.00     0.235 C 
BRANCH  27  30
HETATM   30  C   UNL     1     -43.303  56.336 -59.918  1.00  0.00     0.263 C 
HETATM   31  O   UNL     1     -43.107  55.689 -58.899  1.00  0.00    -0.265 OA
BRANCH  30  32
HETATM   32  O   UNL     1     -44.069  55.940 -60.964  1.00  0.00    -0.322 OA
BRANCH  32  33
HETATM   33  C   UNL     1     -45.206  55.123 -60.632  1.00  0.00     0.174 C 
HETATM   34  C   UNL     1     -46.384  56.002 -60.251  1.00  0.00     0.034 C 
ENDBRANCH  32  33
ENDBRANCH  30  32
ENDBRANCH  27  30
ENDBRANCH  22  23
ENDBRANCH  21  22
ENDBRANCH   2  21
TORSDOF 10
ENDMDL
MODEL 9
REMARK VINA RESULT:      -6.9      3.185      5.070
REMARK  10 active torsions:
REMARK  status: ('A' for Active; 'I' for Inactive)
REMARK    1  A    between atoms: C_2  and  O_3 
REMARK    2  A    between atoms: O_3  and  C_4 
REMARK    3  A    between atoms: C_4  and  C_5 
REMARK    4  A    between atoms: C_10  and  N_11 
REMARK       I    between atoms: N_11  and  C_12 
REMARK    5  A    between atoms: C_12  and  C_13 
REMARK    6  A    between atoms: C_13  and  C_14 
REMARK    7  A    between atoms: C_14  and  N_15 
REMARK    8  A    between atoms: C_19  and  C_20 
REMARK    9  A    between atoms: C_20  and  O_21 
REMARK   10  A    between atoms: O_21  and  C_22 
ROOT
HETATM    1  N   UNL     1     -41.570  55.782 -54.890  1.00  0.00    -0.324 N 
HETATM    2  C   UNL     1     -42.754  56.158 -55.429  1.00  0.00     0.223 C 
HETATM    3  O   UNL     1     -42.743  56.760 -56.508  1.00  0.00    -0.273 OA
HETATM    4  H   UNL     1     -40.805  56.085 -55.503  1.00  0.00     0.169 HD
ENDROOT
BRANCH   1   5
HETATM    5  C   UNL     1     -41.135  55.140 -53.732  1.00  0.00     0.080 A 
HETATM    6  C   UNL     1     -41.098  55.890 -52.555  1.00  0.00     0.137 A 
HETATM    7  N   UNL     1     -40.703  55.063 -51.538  1.00  0.00    -0.349 N 
HETATM    8  H   UNL     1     -40.605  55.357 -50.574  1.00  0.00     0.166 HD
HETATM    9  C   UNL     1     -40.434  53.806 -52.008  1.00  0.00     0.045 A 
HETATM   10  C   UNL     1     -40.668  53.814 -53.391  1.00  0.00     0.021 A 
HETATM   11  C   UNL     1     -39.990  52.686 -51.290  1.00  0.00     0.032 A 
HETATM   12  C   UNL     1     -40.393  52.598 -54.060  1.00  0.00     0.035 A 
HETATM   13  C   UNL     1     -39.939  51.471 -53.359  1.00  0.00     0.012 A 
HETATM   14  C   UNL     1     -39.746  51.508 -51.990  1.00  0.00     0.021 A 
HETATM   15 BR   UNL     1     -39.581  49.879 -54.321  1.00  0.00    -0.051 Br
BRANCH   6  16
HETATM   16  C   UNL     1     -41.404  57.290 -52.355  1.00  0.00     0.312 C 
HETATM   17  O   UNL     1     -41.435  58.121 -53.253  1.00  0.00    -0.258 OA
BRANCH  16  18
HETATM   18  O   UNL     1     -41.625  57.535 -51.035  1.00  0.00    -0.317 OA
BRANCH  18  19
HETATM   19  C   UNL     1     -40.665  58.386 -50.390  1.00  0.00     0.175 C 
HETATM   20  C   UNL     1     -41.264  59.756 -50.136  1.00  0.00     0.034 C 
ENDBRANCH  18  19
ENDBRANCH  16  18
ENDBRANCH   6  16
ENDBRANCH   1   5
BRANCH   2  21
HETATM   21  C   UNL     1     -44.066  55.865 -54.771  1.00  0.00     0.131 C 
BRANCH  21  22
HETATM   22  C   UNL     1     -44.939  57.115 -54.812  1.00  0.00     0.244 C 
BRANCH  22  23
HETATM   23  N   UNL     1     -44.346  58.287 -54.020  1.00  0.00    -0.071 N 
HETATM   24  H   UNL     1     -43.346  58.082 -53.881  1.00  0.00     0.279 HD
HETATM   25  C   UNL     1     -44.432  59.535 -54.883  1.00  0.00     0.235 C 
HETATM   26  C   UNL     1     -43.869  60.741 -54.147  1.00  0.00     0.042 C 
HETATM   27  C   UNL     1     -44.574  60.967 -52.809  1.00  0.00     0.088 C 
HETATM   28  C   UNL     1     -44.418  59.702 -51.958  1.00  0.00     0.042 C 
HETATM   29  C   UNL     1     -44.973  58.462 -52.653  1.00  0.00     0.235 C 
BRANCH  27  30
HETATM   30  C   UNL     1     -46.050  61.308 -52.983  1.00  0.00     0.263 C 
HETATM   31  O   UNL     1     -46.540  61.657 -54.048  1.00  0.00    -0.265 OA
BRANCH  30  32
HETATM   32  O   UNL     1     -46.711  61.233 -51.802  1.00  0.00    -0.322 OA
BRANCH  32  33
HETATM   33  C   UNL     1     -46.833  62.469 -51.074  1.00  0.00     0.174 C 
HETATM   34  C   UNL     1     -46.084  62.371 -49.757  1.00  0.00     0.034 C 
ENDBRANCH  32  33
ENDBRANCH  30  32
ENDBRANCH  27  30
ENDBRANCH  22  23
ENDBRANCH  21  22
ENDBRANCH   2  21
TORSDOF 10
ENDMDL
MODEL 10
REMARK VINA RESULT:      -6.8     15.396     19.414
REMARK  10 active torsions:
REMARK  status: ('A' for Active; 'I' for Inactive)
REMARK    1  A    between atoms: C_2  and  O_3 
REMARK    2  A    between atoms: O_3  and  C_4 
REMARK    3  A    between atoms: C_4  and  C_5 
REMARK    4  A    between atoms: C_10  and  N_11 
REMARK       I    between atoms: N_11  and  C_12 
REMARK    5  A    between atoms: C_12  and  C_13 
REMARK    6  A    between atoms: C_13  and  C_14 
REMARK    7  A    between atoms: C_14  and  N_15 
REMARK    8  A    between atoms: C_19  and  C_20 
REMARK    9  A    between atoms: C_20  and  O_21 
REMARK   10  A    between atoms: O_21  and  C_22 
ROOT
HETATM    1  N   UNL     1     -36.648  39.021 -55.129  1.00  0.00    -0.324 N 
HETATM    2  C   UNL     1     -35.628  38.282 -54.634  1.00  0.00     0.223 C 
HETATM    3  O   UNL     1     -35.898  37.335 -53.888  1.00  0.00    -0.273 OA
HETATM    4  H   UNL     1     -37.537  38.655 -54.777  1.00  0.00     0.169 HD
ENDROOT
BRANCH   1   5
HETATM    5  C   UNL     1     -36.790  40.143 -55.945  1.00  0.00     0.080 A 
HETATM    6  C   UNL     1     -36.779  41.395 -55.326  1.00  0.00     0.137 A 
HETATM    7  N   UNL     1     -36.873  42.350 -56.302  1.00  0.00    -0.349 N 
HETATM    8  H   UNL     1     -36.875  43.347 -56.121  1.00  0.00     0.166 HD
HETATM    9  C   UNL     1     -36.993  41.775 -57.537  1.00  0.00     0.045 A 
HETATM   10  C   UNL     1     -36.971  40.384 -57.360  1.00  0.00     0.021 A 
HETATM   11  C   UNL     1     -37.130  42.409 -58.781  1.00  0.00     0.032 A 
HETATM   12  C   UNL     1     -37.134  39.620 -58.539  1.00  0.00     0.035 A 
HETATM   13  C   UNL     1     -37.282  40.236 -59.789  1.00  0.00     0.012 A 
HETATM   14  C   UNL     1     -37.273  41.614 -59.915  1.00  0.00     0.021 A 
HETATM   15 BR   UNL     1     -37.505  39.150 -61.325  1.00  0.00    -0.051 Br
BRANCH   6  16
HETATM   16  C   UNL     1     -36.688  41.716 -53.918  1.00  0.00     0.312 C 
HETATM   17  O   UNL     1     -35.959  42.583 -53.457  1.00  0.00    -0.258 OA
BRANCH  16  18
HETATM   18  O   UNL     1     -37.508  40.901 -53.201  1.00  0.00    -0.317 OA
BRANCH  18  19
HETATM   19  C   UNL     1     -37.060  40.578 -51.874  1.00  0.00     0.175 C 
HETATM   20  C   UNL     1     -37.621  39.237 -51.443  1.00  0.00     0.034 C 
ENDBRANCH  18  19
ENDBRANCH  16  18
ENDBRANCH   6  16
ENDBRANCH   1   5
BRANCH   2  21
HETATM   21  C   UNL     1     -34.195  38.565 -54.962  1.00  0.00     0.131 C 
BRANCH  21  22
HETATM   22  C   UNL     1     -33.329  38.244 -53.748  1.00  0.00     0.244 C 
BRANCH  22  23
HETATM   23  N   UNL     1     -33.812  38.934 -52.466  1.00  0.00    -0.071 N 
HETATM   24  H   UNL     1     -34.801  39.180 -52.611  1.00  0.00     0.279 HD
HETATM   25  C   UNL     1     -33.762  37.922 -51.334  1.00  0.00     0.235 C 
HETATM   26  C   UNL     1     -34.219  38.551 -50.027  1.00  0.00     0.042 C 
HETATM   27  C   UNL     1     -33.391  39.787 -49.674  1.00  0.00     0.088 C 
HETATM   28  C   UNL     1     -33.513  40.796 -50.822  1.00  0.00     0.042 C 
HETATM   29  C   UNL     1     -33.061  40.212 -52.158  1.00  0.00     0.235 C 
BRANCH  27  30
HETATM   30  C   UNL     1     -31.927  39.450 -49.419  1.00  0.00     0.263 C 
HETATM   31  O   UNL     1     -30.999  39.988 -50.006  1.00  0.00    -0.265 OA
BRANCH  30  32
HETATM   32  O   UNL     1     -31.807  38.446 -48.516  1.00  0.00    -0.322 OA
BRANCH  32  33
HETATM   33  C   UNL     1     -31.634  38.855 -47.146  1.00  0.00     0.174 C 
HETATM   34  C   UNL     1     -31.987  37.708 -46.215  1.00  0.00     0.034 C 
ENDBRANCH  32  33
ENDBRANCH  30  32
ENDBRANCH  27  30
ENDBRANCH  22  23
ENDBRANCH  21  22
ENDBRANCH   2  21
TORSDOF 10
ENDMDL
