MODEL 1
REMARK VINA RESULT:      -8.8      0.000      0.000
REMARK  6 active torsions:
REMARK  status: ('A' for Active; 'I' for Inactive)
REMARK    1  A    between atoms: C_3  and  N_4 
REMARK    2  A    between atoms: N_4  and  C_5 
REMARK    3  A    between atoms: C_5  and  C_6 
REMARK    4  A    between atoms: N_8  and  C_10 
REMARK    5  A    between atoms: C_10  and  C_11 
REMARK    6  A    between atoms: C_12  and  C_13 
ROOT
HETATM    1  C   UNL     1     -43.258  56.208 -55.282  1.00  0.00     0.031 C 
HETATM    2  C   UNL     1     -43.831  55.593 -53.998  1.00  0.00     0.241 C 
HETATM    3  N   UNL     1     -42.668  55.527 -53.025  1.00  0.00    -0.067 N 
HETATM    4  H   UNL     1     -42.916  56.098 -52.205  1.00  0.00     0.280 HD
HETATM    5  C   UNL     1     -41.481  56.206 -53.673  1.00  0.00     0.235 C 
HETATM    6  C   UNL     1     -42.110  57.064 -54.751  1.00  0.00     0.035 C 
ENDROOT
BRANCH   3   7
HETATM    7  C   UNL     1     -42.393  54.147 -52.467  1.00  0.00     0.277 C 
BRANCH   7   8
HETATM    8  C   UNL     1     -41.254  54.102 -51.517  1.00  0.00     0.016 A 
HETATM    9  C   UNL     1     -40.185  53.149 -51.477  1.00  0.00     0.102 A 
HETATM   10  N   UNL     1     -39.309  53.469 -50.519  1.00  0.00    -0.174 NA
HETATM   11  N   UNL     1     -39.845  54.508 -49.875  1.00  0.00    -0.288 N 
HETATM   12  H   UNL     1     -39.360  54.870 -49.056  1.00  0.00     0.188 HD
HETATM   13  C   UNL     1     -41.003  54.948 -50.451  1.00  0.00     0.120 A 
BRANCH   9  14
HETATM   14  C   UNL     1     -39.953  51.972 -52.303  1.00  0.00     0.072 A 
HETATM   15  C   UNL     1     -39.821  50.697 -51.749  1.00  0.00     0.132 A 
HETATM   16  F   UNL     1     -39.839  50.527 -50.415  1.00  0.00    -0.205 F 
HETATM   17  C   UNL     1     -39.632  49.571 -52.551  1.00  0.00     0.043 A 
HETATM   18  C   UNL     1     -39.569  49.709 -53.936  1.00  0.00     0.006 A 
HETATM   19  C   UNL     1     -39.687  50.975 -54.509  1.00  0.00     0.043 A 
HETATM   20  C   UNL     1     -39.878  52.091 -53.694  1.00  0.00     0.132 A 
HETATM   21  F   UNL     1     -39.945  53.295 -54.280  1.00  0.00    -0.205 F 
ENDBRANCH   9  14
ENDBRANCH   7   8
ENDBRANCH   3   7
BRANCH   1  22
HETATM   22  C   UNL     1     -42.826  55.122 -56.287  1.00  0.00     0.127 C 
BRANCH  22  23
HETATM   23  N   UNL     1     -42.678  55.673 -57.633  1.00  0.00    -0.376 N 
HETATM   24  H   UNL     1     -41.897  56.308 -57.779  1.00  0.00     0.161 HD
BRANCH  23  25
HETATM   25  C   UNL     1     -43.723  55.697 -58.535  1.00  0.00     0.100 A 
HETATM   26  C   UNL     1     -43.968  54.707 -59.497  1.00  0.00     0.048 A 
HETATM   27  C   UNL     1     -45.035  54.835 -60.386  1.00  0.00     0.005 A 
HETATM   28  C   UNL     1     -45.843  55.961 -60.329  1.00  0.00     0.017 A 
HETATM   29  C   UNL     1     -45.566  56.930 -59.380  1.00  0.00     0.089 A 
HETATM   30  N   UNL     1     -44.538  56.768 -58.531  1.00  0.00    -0.353 N 
HETATM   31  H   UNL     1     -44.353  57.508 -57.860  1.00  0.00     0.166 HD
ENDBRANCH  23  25
ENDBRANCH  22  23
ENDBRANCH   1  22
TORSDOF 6
ENDMDL
MODEL 2
REMARK VINA RESULT:      -8.6      2.647      4.671
REMARK  6 active torsions:
REMARK  status: ('A' for Active; 'I' for Inactive)
REMARK    1  A    between atoms: C_3  and  N_4 
REMARK    2  A    between atoms: N_4  and  C_5 
REMARK    3  A    between atoms: C_5  and  C_6 
REMARK    4  A    between atoms: N_8  and  C_10 
REMARK    5  A    between atoms: C_10  and  C_11 
REMARK    6  A    between atoms: C_12  and  C_13 
ROOT
HETATM    1  C   UNL     1     -41.156  55.000 -55.136  1.00  0.00     0.031 C 
HETATM    2  C   UNL     1     -41.071  55.274 -53.629  1.00  0.00     0.241 C 
HETATM    3  N   UNL     1     -40.609  53.970 -53.004  1.00  0.00    -0.067 N 
HETATM    4  H   UNL     1     -39.715  54.153 -52.527  1.00  0.00     0.280 HD
HETATM    5  C   UNL     1     -40.306  53.000 -54.124  1.00  0.00     0.235 C 
HETATM    6  C   UNL     1     -40.116  53.898 -55.328  1.00  0.00     0.035 C 
ENDROOT
BRANCH   3   7
HETATM    7  C   UNL     1     -41.522  53.436 -51.920  1.00  0.00     0.277 C 
BRANCH   7   8
HETATM    8  C   UNL     1     -41.177  53.913 -50.558  1.00  0.00     0.016 A 
HETATM    9  C   UNL     1     -41.545  55.155 -49.947  1.00  0.00     0.102 A 
HETATM   10  N   UNL     1     -41.103  55.205 -48.686  1.00  0.00    -0.174 NA
HETATM   11  N   UNL     1     -40.368  54.103 -48.519  1.00  0.00    -0.288 N 
HETATM   12  H   UNL     1     -39.880  53.978 -47.634  1.00  0.00     0.188 HD
HETATM   13  C   UNL     1     -40.401  53.275 -49.605  1.00  0.00     0.120 A 
BRANCH   9  14
HETATM   14  C   UNL     1     -42.297  56.277 -50.493  1.00  0.00     0.072 A 
HETATM   15  C   UNL     1     -41.681  57.487 -50.821  1.00  0.00     0.132 A 
HETATM   16  F   UNL     1     -40.372  57.675 -50.577  1.00  0.00    -0.205 F 
HETATM   17  C   UNL     1     -42.403  58.545 -51.374  1.00  0.00     0.043 A 
HETATM   18  C   UNL     1     -43.771  58.404 -51.606  1.00  0.00     0.006 A 
HETATM   19  C   UNL     1     -44.406  57.208 -51.276  1.00  0.00     0.043 A 
HETATM   20  C   UNL     1     -43.670  56.159 -50.725  1.00  0.00     0.132 A 
HETATM   21  F   UNL     1     -44.325  55.040 -50.382  1.00  0.00    -0.205 F 
ENDBRANCH   9  14
ENDBRANCH   7   8
ENDBRANCH   3   7
BRANCH   1  22
HETATM   22  C   UNL     1     -42.584  54.602 -55.559  1.00  0.00     0.127 C 
BRANCH  22  23
HETATM   23  N   UNL     1     -43.292  55.731 -56.162  1.00  0.00    -0.376 N 
HETATM   24  H   UNL     1     -44.202  55.957 -55.770  1.00  0.00     0.161 HD
BRANCH  23  25
HETATM   25  C   UNL     1     -42.984  56.199 -57.424  1.00  0.00     0.100 A 
HETATM   26  C   UNL     1     -43.272  55.522 -58.618  1.00  0.00     0.048 A 
HETATM   27  C   UNL     1     -42.895  56.064 -59.846  1.00  0.00     0.005 A 
HETATM   28  C   UNL     1     -42.210  57.270 -59.881  1.00  0.00     0.017 A 
HETATM   29  C   UNL     1     -41.923  57.907 -58.685  1.00  0.00     0.089 A 
HETATM   30  N   UNL     1     -42.314  57.362 -57.522  1.00  0.00    -0.353 N 
HETATM   31  H   UNL     1     -42.071  57.848 -56.663  1.00  0.00     0.166 HD
ENDBRANCH  23  25
ENDBRANCH  22  23
ENDBRANCH   1  22
TORSDOF 6
ENDMDL
MODEL 3
REMARK VINA RESULT:      -8.6      2.816      6.222
REMARK  6 active torsions:
REMARK  status: ('A' for Active; 'I' for Inactive)
REMARK    1  A    between atoms: C_3  and  N_4 
REMARK    2  A    between atoms: N_4  and  C_5 
REMARK    3  A    between atoms: C_5  and  C_6 
REMARK    4  A    between atoms: N_8  and  C_10 
REMARK    5  A    between atoms: C_10  and  C_11 
REMARK    6  A    between atoms: C_12  and  C_13 
ROOT
HETATM    1  C   UNL     1     -42.323  54.256 -55.343  1.00  0.00     0.031 C 
HETATM    2  C   UNL     1     -43.186  54.944 -54.277  1.00  0.00     0.241 C 
HETATM    3  N   UNL     1     -43.326  56.384 -54.736  1.00  0.00    -0.067 N 
HETATM    4  H   UNL     1     -44.329  56.570 -54.876  1.00  0.00     0.280 HD
HETATM    5  C   UNL     1     -42.677  56.503 -56.098  1.00  0.00     0.235 C 
HETATM    6  C   UNL     1     -42.633  55.074 -56.595  1.00  0.00     0.035 C 
ENDROOT
BRANCH   3   7
HETATM    7  C   UNL     1     -42.881  57.414 -53.719  1.00  0.00     0.277 C 
BRANCH   7   8
HETATM    8  C   UNL     1     -43.819  57.576 -52.582  1.00  0.00     0.016 A 
HETATM    9  C   UNL     1     -43.725  56.988 -51.279  1.00  0.00     0.102 A 
HETATM   10  N   UNL     1     -44.725  57.416 -50.499  1.00  0.00    -0.174 NA
HETATM   11  N   UNL     1     -45.510  58.148 -51.293  1.00  0.00    -0.288 N 
HETATM   12  H   UNL     1     -46.376  58.519 -50.904  1.00  0.00     0.188 HD
HETATM   13  C   UNL     1     -44.999  58.301 -52.550  1.00  0.00     0.120 A 
BRANCH   9  14
HETATM   14  C   UNL     1     -42.738  56.062 -50.742  1.00  0.00     0.072 A 
HETATM   15  C   UNL     1     -43.011  54.700 -50.590  1.00  0.00     0.132 A 
HETATM   16  F   UNL     1     -44.230  54.212 -50.878  1.00  0.00    -0.205 F 
HETATM   17  C   UNL     1     -42.047  53.815 -50.107  1.00  0.00     0.043 A 
HETATM   18  C   UNL     1     -40.782  54.287 -49.761  1.00  0.00     0.006 A 
HETATM   19  C   UNL     1     -40.494  55.645 -49.894  1.00  0.00     0.043 A 
HETATM   20  C   UNL     1     -41.466  56.518 -50.382  1.00  0.00     0.132 A 
HETATM   21  F   UNL     1     -41.164  57.822 -50.455  1.00  0.00    -0.205 F 
ENDBRANCH   9  14
ENDBRANCH   7   8
ENDBRANCH   3   7
BRANCH   1  22
HETATM   22  C   UNL     1     -40.833  54.246 -54.946  1.00  0.00     0.127 C 
BRANCH  22  23
HETATM   23  N   UNL     1     -40.642  53.662 -53.620  1.00  0.00    -0.376 N 
HETATM   24  H   UNL     1     -40.473  54.312 -52.857  1.00  0.00     0.161 HD
BRANCH  23  25
HETATM   25  C   UNL     1     -40.287  52.339 -53.446  1.00  0.00     0.100 A 
HETATM   26  C   UNL     1     -40.422  51.342 -54.423  1.00  0.00     0.048 A 
HETATM   27  C   UNL     1     -40.063  50.024 -54.142  1.00  0.00     0.005 A 
HETATM   28  C   UNL     1     -39.589  49.697 -52.880  1.00  0.00     0.017 A 
HETATM   29  C   UNL     1     -39.484  50.699 -51.930  1.00  0.00     0.089 A 
HETATM   30  N   UNL     1     -39.827  51.960 -52.239  1.00  0.00    -0.353 N 
HETATM   31  H   UNL     1     -39.754  52.666 -51.512  1.00  0.00     0.166 HD
ENDBRANCH  23  25
ENDBRANCH  22  23
ENDBRANCH   1  22
TORSDOF 6
ENDMDL
MODEL 4
REMARK VINA RESULT:      -8.5      1.934      2.848
REMARK  6 active torsions:
REMARK  status: ('A' for Active; 'I' for Inactive)
REMARK    1  A    between atoms: C_3  and  N_4 
REMARK    2  A    between atoms: N_4  and  C_5 
REMARK    3  A    between atoms: C_5  and  C_6 
REMARK    4  A    between atoms: N_8  and  C_10 
REMARK    5  A    between atoms: C_10  and  C_11 
REMARK    6  A    between atoms: C_12  and  C_13 
ROOT
HETATM    1  C   UNL     1     -43.158  57.553 -55.695  1.00  0.00     0.031 C 
HETATM    2  C   UNL     1     -43.552  57.182 -54.259  1.00  0.00     0.241 C 
HETATM    3  N   UNL     1     -42.500  57.823 -53.372  1.00  0.00    -0.067 N 
HETATM    4  H   UNL     1     -42.982  58.484 -52.746  1.00  0.00     0.280 HD
HETATM    5  C   UNL     1     -41.593  58.655 -54.252  1.00  0.00     0.235 C 
HETATM    6  C   UNL     1     -42.419  58.875 -55.502  1.00  0.00     0.035 C 
ENDROOT
BRANCH   3   7
HETATM    7  C   UNL     1     -41.790  56.860 -52.444  1.00  0.00     0.277 C 
BRANCH   7   8
HETATM    8  C   UNL     1     -42.703  55.931 -51.734  1.00  0.00     0.016 A 
HETATM    9  C   UNL     1     -42.614  54.503 -51.659  1.00  0.00     0.102 A 
HETATM   10  N   UNL     1     -43.581  54.015 -50.875  1.00  0.00    -0.174 NA
HETATM   11  N   UNL     1     -44.346  55.061 -50.555  1.00  0.00    -0.288 N 
HETATM   12  H   UNL     1     -45.188  54.892 -50.007  1.00  0.00     0.188 HD
HETATM   13  C   UNL     1     -43.848  56.244 -51.022  1.00  0.00     0.120 A 
BRANCH   9  14
HETATM   14  C   UNL     1     -41.660  53.594 -52.280  1.00  0.00     0.072 A 
HETATM   15  C   UNL     1     -41.715  53.285 -53.642  1.00  0.00     0.132 A 
HETATM   16  F   UNL     1     -42.702  53.774 -54.413  1.00  0.00    -0.205 F 
HETATM   17  C   UNL     1     -40.777  52.440 -54.234  1.00  0.00     0.043 A 
HETATM   18  C   UNL     1     -39.759  51.882 -53.461  1.00  0.00     0.006 A 
HETATM   19  C   UNL     1     -39.694  52.169 -52.098  1.00  0.00     0.043 A 
HETATM   20  C   UNL     1     -40.638  53.018 -51.520  1.00  0.00     0.132 A 
HETATM   21  F   UNL     1     -40.566  53.236 -50.199  1.00  0.00    -0.205 F 
ENDBRANCH   9  14
ENDBRANCH   7   8
ENDBRANCH   3   7
BRANCH   1  22
HETATM   22  C   UNL     1     -42.312  56.445 -56.354  1.00  0.00     0.127 C 
BRANCH  22  23
HETATM   23  N   UNL     1     -43.159  55.436 -56.988  1.00  0.00    -0.376 N 
HETATM   24  H   UNL     1     -43.167  54.515 -56.559  1.00  0.00     0.161 HD
BRANCH  23  25
HETATM   25  C   UNL     1     -43.590  55.557 -58.294  1.00  0.00     0.100 A 
HETATM   26  C   UNL     1     -43.393  56.689 -59.098  1.00  0.00     0.048 A 
HETATM   27  C   UNL     1     -43.893  56.728 -60.399  1.00  0.00     0.005 A 
HETATM   28  C   UNL     1     -44.607  55.645 -60.891  1.00  0.00     0.017 A 
HETATM   29  C   UNL     1     -44.801  54.548 -60.069  1.00  0.00     0.089 A 
HETATM   30  N   UNL     1     -44.294  54.540 -58.825  1.00  0.00    -0.353 N 
HETATM   31  H   UNL     1     -44.471  53.726 -58.243  1.00  0.00     0.166 HD
ENDBRANCH  23  25
ENDBRANCH  22  23
ENDBRANCH   1  22
TORSDOF 6
ENDMDL
MODEL 5
REMARK VINA RESULT:      -8.4      2.619      5.280
REMARK  6 active torsions:
REMARK  status: ('A' for Active; 'I' for Inactive)
REMARK    1  A    between atoms: C_3  and  N_4 
REMARK    2  A    between atoms: N_4  and  C_5 
REMARK    3  A    between atoms: C_5  and  C_6 
REMARK    4  A    between atoms: N_8  and  C_10 
REMARK    5  A    between atoms: C_10  and  C_11 
REMARK    6  A    between atoms: C_12  and  C_13 
ROOT
HETATM    1  C   UNL     1     -42.432  56.643 -54.416  1.00  0.00     0.031 C 
HETATM    2  C   UNL     1     -41.584  55.673 -53.583  1.00  0.00     0.241 C 
HETATM    3  N   UNL     1     -42.434  54.425 -53.424  1.00  0.00    -0.067 N 
HETATM    4  H   UNL     1     -41.918  53.641 -53.849  1.00  0.00     0.280 HD
HETATM    5  C   UNL     1     -43.687  54.608 -54.251  1.00  0.00     0.235 C 
HETATM    6  C   UNL     1     -43.307  55.696 -55.234  1.00  0.00     0.035 C 
ENDROOT
BRANCH   3   7
HETATM    7  C   UNL     1     -42.666  54.002 -51.989  1.00  0.00     0.277 C 
BRANCH   7   8
HETATM    8  C   UNL     1     -41.488  54.198 -51.110  1.00  0.00     0.016 A 
HETATM    9  C   UNL     1     -40.364  53.324 -50.944  1.00  0.00     0.102 A 
HETATM   10  N   UNL     1     -39.468  53.866 -50.113  1.00  0.00    -0.174 NA
HETATM   11  N   UNL     1     -40.036  54.983 -49.652  1.00  0.00    -0.288 N 
HETATM   12  H   UNL     1     -39.538  55.520 -48.945  1.00  0.00     0.188 HD
HETATM   13  C   UNL     1     -41.240  55.246 -50.240  1.00  0.00     0.120 A 
BRANCH   9  14
HETATM   14  C   UNL     1     -40.100  52.021 -51.541  1.00  0.00     0.072 A 
HETATM   15  C   UNL     1     -39.810  51.878 -52.900  1.00  0.00     0.132 A 
HETATM   16  F   UNL     1     -39.831  52.945 -53.718  1.00  0.00    -0.205 F 
HETATM   17  C   UNL     1     -39.525  50.631 -53.456  1.00  0.00     0.043 A 
HETATM   18  C   UNL     1     -39.531  49.494 -52.649  1.00  0.00     0.006 A 
HETATM   19  C   UNL     1     -39.829  49.614 -51.292  1.00  0.00     0.043 A 
HETATM   20  C   UNL     1     -40.109  50.869 -50.750  1.00  0.00     0.132 A 
HETATM   21  F   UNL     1     -40.433  50.937 -49.450  1.00  0.00    -0.205 F 
ENDBRANCH   9  14
ENDBRANCH   7   8
ENDBRANCH   3   7
BRANCH   1  22
HETATM   22  C   UNL     1     -43.221  57.619 -53.520  1.00  0.00     0.127 C 
BRANCH  22  23
HETATM   23  N   UNL     1     -42.510  58.886 -53.361  1.00  0.00    -0.376 N 
HETATM   24  H   UNL     1     -42.429  59.468 -54.190  1.00  0.00     0.161 HD
BRANCH  23  25
HETATM   25  C   UNL     1     -41.642  59.113 -52.311  1.00  0.00     0.100 A 
HETATM   26  C   UNL     1     -42.028  59.565 -51.041  1.00  0.00     0.048 A 
HETATM   27  C   UNL     1     -41.072  59.793 -50.052  1.00  0.00     0.005 A 
HETATM   28  C   UNL     1     -39.729  59.591 -50.337  1.00  0.00     0.017 A 
HETATM   29  C   UNL     1     -39.377  59.162 -51.606  1.00  0.00     0.089 A 
HETATM   30  N   UNL     1     -40.325  58.940 -52.529  1.00  0.00    -0.353 N 
HETATM   31  H   UNL     1     -40.029  58.643 -53.455  1.00  0.00     0.166 HD
ENDBRANCH  23  25
ENDBRANCH  22  23
ENDBRANCH   1  22
TORSDOF 6
ENDMDL
MODEL 6
REMARK VINA RESULT:      -8.4      3.173      5.145
REMARK  6 active torsions:
REMARK  status: ('A' for Active; 'I' for Inactive)
REMARK    1  A    between atoms: C_3  and  N_4 
REMARK    2  A    between atoms: N_4  and  C_5 
REMARK    3  A    between atoms: C_5  and  C_6 
REMARK    4  A    between atoms: N_8  and  C_10 
REMARK    5  A    between atoms: C_10  and  C_11 
REMARK    6  A    between atoms: C_12  and  C_13 
ROOT
HETATM    1  C   UNL     1     -40.736  54.373 -54.904  1.00  0.00     0.031 C 
HETATM    2  C   UNL     1     -40.657  54.745 -53.417  1.00  0.00     0.241 C 
HETATM    3  N   UNL     1     -40.538  53.427 -52.674  1.00  0.00    -0.067 N 
HETATM    4  H   UNL     1     -39.648  53.440 -52.157  1.00  0.00     0.280 HD
HETATM    5  C   UNL     1     -40.417  52.323 -53.702  1.00  0.00     0.235 C 
HETATM    6  C   UNL     1     -39.971  53.052 -54.953  1.00  0.00     0.035 C 
ENDROOT
BRANCH   3   7
HETATM    7  C   UNL     1     -41.597  53.206 -51.615  1.00  0.00     0.277 C 
BRANCH   7   8
HETATM    8  C   UNL     1     -41.245  53.773 -50.290  1.00  0.00     0.016 A 
HETATM    9  C   UNL     1     -41.582  55.067 -49.774  1.00  0.00     0.102 A 
HETATM   10  N   UNL     1     -41.144  55.197 -48.517  1.00  0.00    -0.174 NA
HETATM   11  N   UNL     1     -40.441  54.091 -48.265  1.00  0.00    -0.288 N 
HETATM   12  H   UNL     1     -39.960  54.020 -47.370  1.00  0.00     0.188 HD
HETATM   13  C   UNL     1     -40.491  53.187 -49.288  1.00  0.00     0.120 A 
BRANCH   9  14
HETATM   14  C   UNL     1     -42.301  56.164 -50.407  1.00  0.00     0.072 A 
HETATM   15  C   UNL     1     -41.654  57.340 -50.799  1.00  0.00     0.132 A 
HETATM   16  F   UNL     1     -40.347  57.518 -50.541  1.00  0.00    -0.205 F 
HETATM   17  C   UNL     1     -42.345  58.372 -51.433  1.00  0.00     0.043 A 
HETATM   18  C   UNL     1     -43.710  58.242 -51.685  1.00  0.00     0.006 A 
HETATM   19  C   UNL     1     -44.376  57.082 -51.291  1.00  0.00     0.043 A 
HETATM   20  C   UNL     1     -43.671  56.057 -50.659  1.00  0.00     0.132 A 
HETATM   21  F   UNL     1     -44.355  54.975 -50.258  1.00  0.00    -0.205 F 
ENDBRANCH   9  14
ENDBRANCH   7   8
ENDBRANCH   3   7
BRANCH   1  22
HETATM   22  C   UNL     1     -42.198  54.276 -55.386  1.00  0.00     0.127 C 
BRANCH  22  23
HETATM   23  N   UNL     1     -43.099  55.007 -54.497  1.00  0.00    -0.376 N 
HETATM   24  H   UNL     1     -43.603  54.455 -53.809  1.00  0.00     0.161 HD
BRANCH  23  25
HETATM   25  C   UNL     1     -43.576  56.265 -54.808  1.00  0.00     0.100 A 
HETATM   26  C   UNL     1     -42.772  57.356 -55.168  1.00  0.00     0.048 A 
HETATM   27  C   UNL     1     -43.347  58.598 -55.437  1.00  0.00     0.005 A 
HETATM   28  C   UNL     1     -44.721  58.756 -55.325  1.00  0.00     0.017 A 
HETATM   29  C   UNL     1     -45.486  57.665 -54.950  1.00  0.00     0.089 A 
HETATM   30  N   UNL     1     -44.901  56.481 -54.712  1.00  0.00    -0.353 N 
HETATM   31  H   UNL     1     -45.492  55.707 -54.421  1.00  0.00     0.166 HD
ENDBRANCH  23  25
ENDBRANCH  22  23
ENDBRANCH   1  22
TORSDOF 6
ENDMDL
MODEL 7
REMARK VINA RESULT:      -8.3      2.905      4.863
REMARK  6 active torsions:
REMARK  status: ('A' for Active; 'I' for Inactive)
REMARK    1  A    between atoms: C_3  and  N_4 
REMARK    2  A    between atoms: N_4  and  C_5 
REMARK    3  A    between atoms: C_5  and  C_6 
REMARK    4  A    between atoms: N_8  and  C_10 
REMARK    5  A    between atoms: C_10  and  C_11 
REMARK    6  A    between atoms: C_12  and  C_13 
ROOT
HETATM    1  C   UNL     1     -41.214  54.736 -55.064  1.00  0.00     0.031 C 
HETATM    2  C   UNL     1     -41.127  55.097 -53.575  1.00  0.00     0.241 C 
HETATM    3  N   UNL     1     -40.624  53.843 -52.883  1.00  0.00    -0.067 N 
HETATM    4  H   UNL     1     -39.732  54.077 -52.425  1.00  0.00     0.280 HD
HETATM    5  C   UNL     1     -40.301  52.821 -53.950  1.00  0.00     0.235 C 
HETATM    6  C   UNL     1     -40.144  53.656 -55.203  1.00  0.00     0.035 C 
ENDROOT
BRANCH   3   7
HETATM    7  C   UNL     1     -41.514  53.345 -51.763  1.00  0.00     0.277 C 
BRANCH   7   8
HETATM    8  C   UNL     1     -41.175  53.909 -50.434  1.00  0.00     0.016 A 
HETATM    9  C   UNL     1     -41.555  55.184 -49.901  1.00  0.00     0.102 A 
HETATM   10  N   UNL     1     -41.115  55.315 -48.645  1.00  0.00    -0.174 NA
HETATM   11  N   UNL     1     -40.370  54.232 -48.410  1.00  0.00    -0.288 N 
HETATM   12  H   UNL     1     -39.882  54.167 -47.518  1.00  0.00     0.188 HD
HETATM   13  C   UNL     1     -40.394  53.339 -49.442  1.00  0.00     0.120 A 
BRANCH   9  14
HETATM   14  C   UNL     1     -42.316  56.263 -50.515  1.00  0.00     0.072 A 
HETATM   15  C   UNL     1     -43.692  56.161 -50.736  1.00  0.00     0.132 A 
HETATM   16  F   UNL     1     -44.348  55.025 -50.442  1.00  0.00    -0.205 F 
HETATM   17  C   UNL     1     -44.419  57.213 -51.295  1.00  0.00     0.043 A 
HETATM   18  C   UNL     1     -43.768  58.394 -51.649  1.00  0.00     0.006 A 
HETATM   19  C   UNL     1     -42.394  58.511 -51.448  1.00  0.00     0.043 A 
HETATM   20  C   UNL     1     -41.681  57.452 -50.885  1.00  0.00     0.132 A 
HETATM   21  F   UNL     1     -40.354  57.587 -50.747  1.00  0.00    -0.205 F 
ENDBRANCH   9  14
ENDBRANCH   7   8
ENDBRANCH   3   7
BRANCH   1  22
HETATM   22  C   UNL     1     -42.633  54.276 -55.453  1.00  0.00     0.127 C 
BRANCH  22  23
HETATM   23  N   UNL     1     -43.163  55.070 -56.561  1.00  0.00    -0.376 N 
HETATM   24  H   UNL     1     -43.373  54.568 -57.419  1.00  0.00     0.161 HD
BRANCH  23  25
HETATM   25  C   UNL     1     -43.003  56.440 -56.623  1.00  0.00     0.100 A 
HETATM   26  C   UNL     1     -43.529  57.347 -55.692  1.00  0.00     0.048 A 
HETATM   27  C   UNL     1     -43.339  58.719 -55.857  1.00  0.00     0.005 A 
HETATM   28  C   UNL     1     -42.643  59.186 -56.962  1.00  0.00     0.017 A 
HETATM   29  C   UNL     1     -42.151  58.267 -57.875  1.00  0.00     0.089 A 
HETATM   30  N   UNL     1     -42.342  56.953 -57.677  1.00  0.00    -0.353 N 
HETATM   31  H   UNL     1     -41.983  56.309 -58.376  1.00  0.00     0.166 HD
ENDBRANCH  23  25
ENDBRANCH  22  23
ENDBRANCH   1  22
TORSDOF 6
ENDMDL
MODEL 8
REMARK VINA RESULT:      -8.2      2.651      5.021
REMARK  6 active torsions:
REMARK  status: ('A' for Active; 'I' for Inactive)
REMARK    1  A    between atoms: C_3  and  N_4 
REMARK    2  A    between atoms: N_4  and  C_5 
REMARK    3  A    between atoms: C_5  and  C_6 
REMARK    4  A    between atoms: N_8  and  C_10 
REMARK    5  A    between atoms: C_10  and  C_11 
REMARK    6  A    between atoms: C_12  and  C_13 
ROOT
HETATM    1  C   UNL     1     -43.162  56.851 -54.128  1.00  0.00     0.031 C 
HETATM    2  C   UNL     1     -42.080  56.128 -53.314  1.00  0.00     0.241 C 
HETATM    3  N   UNL     1     -42.452  54.657 -53.360  1.00  0.00    -0.067 N 
HETATM    4  H   UNL     1     -41.673  54.153 -53.807  1.00  0.00     0.280 HD
HETATM    5  C   UNL     1     -43.641  54.507 -54.283  1.00  0.00     0.235 C 
HETATM    6  C   UNL     1     -43.606  55.773 -55.114  1.00  0.00     0.035 C 
ENDROOT
BRANCH   3   7
HETATM    7  C   UNL     1     -42.606  54.006 -52.002  1.00  0.00     0.277 C 
BRANCH   7   8
HETATM    8  C   UNL     1     -41.387  54.083 -51.160  1.00  0.00     0.016 A 
HETATM    9  C   UNL     1     -40.247  53.215 -51.189  1.00  0.00     0.102 A 
HETATM   10  N   UNL     1     -39.317  53.636 -50.326  1.00  0.00    -0.174 NA
HETATM   11  N   UNL     1     -39.872  54.657 -49.669  1.00  0.00    -0.288 N 
HETATM   12  H   UNL     1     -39.345  55.085 -48.910  1.00  0.00     0.188 HD
HETATM   13  C   UNL     1     -41.108  54.986 -50.149  1.00  0.00     0.120 A 
BRANCH   9  14
HETATM   14  C   UNL     1     -39.999  52.027 -51.995  1.00  0.00     0.072 A 
HETATM   15  C   UNL     1     -39.892  50.757 -51.423  1.00  0.00     0.132 A 
HETATM   16  F   UNL     1     -39.951  50.602 -50.088  1.00  0.00    -0.205 F 
HETATM   17  C   UNL     1     -39.687  49.621 -52.206  1.00  0.00     0.043 A 
HETATM   18  C   UNL     1     -39.582  49.743 -53.591  1.00  0.00     0.006 A 
HETATM   19  C   UNL     1     -39.675  51.003 -54.181  1.00  0.00     0.043 A 
HETATM   20  C   UNL     1     -39.882  52.130 -53.384  1.00  0.00     0.132 A 
HETATM   21  F   UNL     1     -39.923  53.328 -53.984  1.00  0.00    -0.205 F 
ENDBRANCH   9  14
ENDBRANCH   7   8
ENDBRANCH   3   7
BRANCH   1  22
HETATM   22  C   UNL     1     -44.291  57.383 -53.222  1.00  0.00     0.127 C 
BRANCH  22  23
HETATM   23  N   UNL     1     -43.835  57.534 -51.841  1.00  0.00    -0.376 N 
HETATM   24  H   UNL     1     -43.952  56.727 -51.234  1.00  0.00     0.161 HD
BRANCH  23  25
HETATM   25  C   UNL     1     -43.654  58.773 -51.259  1.00  0.00     0.100 A 
HETATM   26  C   UNL     1     -42.453  59.496 -51.281  1.00  0.00     0.048 A 
HETATM   27  C   UNL     1     -42.359  60.730 -50.638  1.00  0.00     0.005 A 
HETATM   28  C   UNL     1     -43.458  61.232 -49.955  1.00  0.00     0.017 A 
HETATM   29  C   UNL     1     -44.625  60.487 -49.936  1.00  0.00     0.089 A 
HETATM   30  N   UNL     1     -44.683  59.309 -50.577  1.00  0.00    -0.353 N 
HETATM   31  H   UNL     1     -45.550  58.781 -50.527  1.00  0.00     0.166 HD
ENDBRANCH  23  25
ENDBRANCH  22  23
ENDBRANCH   1  22
TORSDOF 6
ENDMDL
MODEL 9
REMARK VINA RESULT:      -8.2      2.152      2.745
REMARK  6 active torsions:
REMARK  status: ('A' for Active; 'I' for Inactive)
REMARK    1  A    between atoms: C_3  and  N_4 
REMARK    2  A    between atoms: N_4  and  C_5 
REMARK    3  A    between atoms: C_5  and  C_6 
REMARK    4  A    between atoms: N_8  and  C_10 
REMARK    5  A    between atoms: C_10  and  C_11 
REMARK    6  A    between atoms: C_12  and  C_13 
ROOT
HETATM    1  C   UNL     1     -42.882  57.616 -55.479  1.00  0.00     0.031 C 
HETATM    2  C   UNL     1     -43.380  57.278 -54.068  1.00  0.00     0.241 C 
HETATM    3  N   UNL     1     -42.371  57.903 -53.121  1.00  0.00    -0.067 N 
HETATM    4  H   UNL     1     -42.874  58.585 -52.537  1.00  0.00     0.280 HD
HETATM    5  C   UNL     1     -41.385  58.696 -53.950  1.00  0.00     0.235 C 
HETATM    6  C   UNL     1     -42.120  58.920 -55.255  1.00  0.00     0.035 C 
ENDROOT
BRANCH   3   7
HETATM    7  C   UNL     1     -41.751  56.934 -52.136  1.00  0.00     0.277 C 
BRANCH   7   8
HETATM    8  C   UNL     1     -42.716  55.967 -51.560  1.00  0.00     0.016 A 
HETATM    9  C   UNL     1     -42.655  54.536 -51.607  1.00  0.00     0.102 A 
HETATM   10  N   UNL     1     -43.672  54.002 -50.922  1.00  0.00    -0.174 NA
HETATM   11  N   UNL     1     -44.436  55.032 -50.552  1.00  0.00    -0.288 N 
HETATM   12  H   UNL     1     -45.310  54.834 -50.068  1.00  0.00     0.188 HD
HETATM   13  C   UNL     1     -43.894  56.240 -50.886  1.00  0.00     0.120 A 
BRANCH   9  14
HETATM   14  C   UNL     1     -41.683  53.664 -52.252  1.00  0.00     0.072 A 
HETATM   15  C   UNL     1     -40.623  53.090 -51.545  1.00  0.00     0.132 A 
HETATM   16  F   UNL     1     -40.432  53.383 -50.246  1.00  0.00    -0.205 F 
HETATM   17  C   UNL     1     -39.716  52.231 -52.164  1.00  0.00     0.043 A 
HETATM   18  C   UNL     1     -39.857  51.932 -53.519  1.00  0.00     0.006 A 
HETATM   19  C   UNL     1     -40.901  52.504 -54.245  1.00  0.00     0.043 A 
HETATM   20  C   UNL     1     -41.802  53.360 -53.611  1.00  0.00     0.132 A 
HETATM   21  F   UNL     1     -42.767  53.923 -54.353  1.00  0.00    -0.205 F 
ENDBRANCH   9  14
ENDBRANCH   7   8
ENDBRANCH   3   7
BRANCH   1  22
HETATM   22  C   UNL     1     -42.026  56.475 -56.066  1.00  0.00     0.127 C 
BRANCH  22  23
HETATM   23  N   UNL     1     -42.584  55.988 -57.326  1.00  0.00    -0.376 N 
HETATM   24  H   UNL     1     -42.469  54.997 -57.521  1.00  0.00     0.161 HD
BRANCH  23  25
HETATM   25  C   UNL     1     -42.869  56.836 -58.379  1.00  0.00     0.100 A 
HETATM   26  C   UNL     1     -44.162  57.160 -58.815  1.00  0.00     0.048 A 
HETATM   27  C   UNL     1     -44.347  58.004 -59.909  1.00  0.00     0.005 A 
HETATM   28  C   UNL     1     -43.243  58.509 -60.580  1.00  0.00     0.017 A 
HETATM   29  C   UNL     1     -41.979  58.157 -60.138  1.00  0.00     0.089 A 
HETATM   30  N   UNL     1     -41.837  57.352 -59.073  1.00  0.00    -0.353 N 
HETATM   31  H   UNL     1     -40.895  57.100 -58.787  1.00  0.00     0.166 HD
ENDBRANCH  23  25
ENDBRANCH  22  23
ENDBRANCH   1  22
TORSDOF 6
ENDMDL
MODEL 10
REMARK VINA RESULT:      -8.2      3.321      6.927
REMARK  6 active torsions:
REMARK  status: ('A' for Active; 'I' for Inactive)
REMARK    1  A    between atoms: C_3  and  N_4 
REMARK    2  A    between atoms: N_4  and  C_5 
REMARK    3  A    between atoms: C_5  and  C_6 
REMARK    4  A    between atoms: N_8  and  C_10 
REMARK    5  A    between atoms: C_10  and  C_11 
REMARK    6  A    between atoms: C_12  and  C_13 
ROOT
HETATM    1  C   UNL     1     -42.000  54.482 -50.072  1.00  0.00     0.031 C 
HETATM    2  C   UNL     1     -41.612  55.930 -49.742  1.00  0.00     0.241 C 
HETATM    3  N   UNL     1     -42.671  56.794 -50.403  1.00  0.00    -0.067 N 
HETATM    4  H   UNL     1     -43.139  57.333 -49.661  1.00  0.00     0.280 HD
HETATM    5  C   UNL     1     -43.721  55.876 -50.990  1.00  0.00     0.235 C 
HETATM    6  C   UNL     1     -43.515  54.577 -50.238  1.00  0.00     0.035 C 
ENDROOT
BRANCH   3   7
HETATM    7  C   UNL     1     -42.125  57.838 -51.354  1.00  0.00     0.277 C 
BRANCH   7   8
HETATM    8  C   UNL     1     -43.002  58.099 -52.522  1.00  0.00     0.016 A 
HETATM    9  C   UNL     1     -43.093  57.341 -53.735  1.00  0.00     0.102 A 
HETATM   10  N   UNL     1     -44.041  57.845 -54.532  1.00  0.00    -0.174 NA
HETATM   11  N   UNL     1     -44.462  58.959 -53.928  1.00  0.00    -0.288 N 
HETATM   12  H   UNL     1     -45.149  59.537 -54.409  1.00  0.00     0.188 HD
HETATM   13  C   UNL     1     -43.891  59.145 -52.702  1.00  0.00     0.120 A 
BRANCH   9  14
HETATM   14  C   UNL     1     -42.340  56.169 -54.161  1.00  0.00     0.072 A 
HETATM   15  C   UNL     1     -42.970  54.961 -54.471  1.00  0.00     0.132 A 
HETATM   16  F   UNL     1     -44.300  54.826 -54.320  1.00  0.00    -0.205 F 
HETATM   17  C   UNL     1     -42.244  53.853 -54.910  1.00  0.00     0.043 A 
HETATM   18  C   UNL     1     -40.859  53.940 -55.044  1.00  0.00     0.006 A 
HETATM   19  C   UNL     1     -40.210  55.134 -54.729  1.00  0.00     0.043 A 
HETATM   20  C   UNL     1     -40.950  56.233 -54.293  1.00  0.00     0.132 A 
HETATM   21  F   UNL     1     -40.285  57.349 -53.959  1.00  0.00    -0.205 F 
ENDBRANCH   9  14
ENDBRANCH   7   8
ENDBRANCH   3   7
BRANCH   1  22
HETATM   22  C   UNL     1     -41.257  53.968 -51.322  1.00  0.00     0.127 C 
BRANCH  22  23
HETATM   23  N   UNL     1     -40.111  53.138 -50.953  1.00  0.00    -0.376 N 
HETATM   24  H   UNL     1     -39.292  53.626 -50.603  1.00  0.00     0.161 HD
BRANCH  23  25
HETATM   25  C   UNL     1     -39.957  51.849 -51.425  1.00  0.00     0.100 A 
HETATM   26  C   UNL     1     -39.917  50.704 -50.617  1.00  0.00     0.048 A 
HETATM   27  C   UNL     1     -39.728  49.445 -51.186  1.00  0.00     0.005 A 
HETATM   28  C   UNL     1     -39.557  49.331 -52.558  1.00  0.00     0.017 A 
HETATM   29  C   UNL     1     -39.583  50.481 -53.328  1.00  0.00     0.089 A 
HETATM   30  N   UNL     1     -39.781  51.676 -52.748  1.00  0.00    -0.353 N 
HETATM   31  H   UNL     1     -39.776  52.501 -53.342  1.00  0.00     0.166 HD
ENDBRANCH  23  25
ENDBRANCH  22  23
ENDBRANCH   1  22
TORSDOF 6
ENDMDL
