MODEL 1
REMARK VINA RESULT:      -8.7      0.000      0.000
REMARK  7 active torsions:
REMARK  status: ('A' for Active; 'I' for Inactive)
REMARK    1  A    between atoms: C_2  and  C_3 
REMARK    2  A    between atoms: C_6  and  C_7 
REMARK    3  A    between atoms: N_8  and  C_9 
REMARK    4  A    between atoms: C_14  and  S_15 
REMARK    5  A    between atoms: S_15  and  C_16 
REMARK    6  A    between atoms: C_16  and  C_17 
REMARK       I    between atoms: C_17  and  N_18 
REMARK    7  A    between atoms: N_18  and  C_19 
ROOT
HETATM    1  C   UNL     1     -42.385  58.820 -55.036  1.00  0.00     0.164 C 
HETATM    2  N   UNL     1     -41.948  57.908 -54.086  1.00  0.00    -0.302 N 
HETATM    3  C   UNL     1     -41.196  58.654 -53.216  1.00  0.00     0.192 C 
HETATM    4  N   UNL     1     -40.945  59.827 -53.747  1.00  0.00    -0.122 NA
HETATM    5  N   UNL     1     -41.697  59.939 -54.879  1.00  0.00    -0.128 NA
ENDROOT
BRANCH   3   6
HETATM    6  S   UNL     1     -40.740  58.189 -51.616  1.00  0.00    -0.081 SA
BRANCH   6   7
HETATM    7  C   UNL     1     -42.306  57.532 -50.964  1.00  0.00     0.185 C 
BRANCH   7   8
HETATM    8  C   UNL     1     -42.308  56.010 -50.845  1.00  0.00     0.231 C 
HETATM    9  N   UNL     1     -41.081  55.436 -51.120  1.00  0.00    -0.326 N 
HETATM   10  H   UNL     1     -40.280  56.069 -51.127  1.00  0.00     0.169 HD
HETATM   11  O   UNL     1     -43.339  55.400 -50.567  1.00  0.00    -0.272 OA
BRANCH   9  12
HETATM   12  C   UNL     1     -40.770  54.072 -51.287  1.00  0.00     0.037 A 
HETATM   13  C   UNL     1     -40.559  53.474 -52.533  1.00  0.00     0.061 A 
HETATM   14  C   UNL     1     -40.193  52.146 -52.532  1.00  0.00     0.065 A 
HETATM   15  C   UNL     1     -40.047  51.410 -51.357  1.00  0.00     0.063 A 
HETATM   16  N   UNL     1     -39.885  51.307 -53.598  1.00  0.00    -0.306 N 
HETATM   17  N   UNL     1     -39.656  50.121 -51.701  1.00  0.00    -0.307 N 
HETATM   18  C   UNL     1     -40.262  51.960 -50.119  1.00  0.00     0.034 A 
HETATM   19  C   UNL     1     -39.542  50.043 -53.097  1.00  0.00     0.325 A 
HETATM   20  H   UNL     1     -39.460  49.355 -51.079  1.00  0.00     0.170 HD
HETATM   21  O   UNL     1     -39.207  49.067 -53.744  1.00  0.00    -0.247 OA
HETATM   22  C   UNL     1     -40.621  53.313 -50.095  1.00  0.00     0.032 A 
HETATM   23  H   UNL     1     -39.883  51.545 -54.577  1.00  0.00     0.170 HD
ENDBRANCH   9  12
ENDBRANCH   7   8
ENDBRANCH   6   7
ENDBRANCH   3   6
BRANCH   2  24
HETATM   24  C   UNL     1     -42.111  56.472 -54.149  1.00  0.00     0.094 C 
HETATM   25  C   UNL     1     -43.570  55.986 -54.134  1.00  0.00     0.026 C 
HETATM   26  C   UNL     1     -43.483  54.598 -54.746  1.00  0.00     0.002 C 
HETATM   27  C   UNL     1     -42.482  54.780 -55.877  1.00  0.00     0.002 C 
HETATM   28  C   UNL     1     -41.441  55.760 -55.336  1.00  0.00     0.026 C 
ENDBRANCH   2  24
BRANCH   1  29
HETATM   29  C   UNL     1     -43.434  58.633 -56.038  1.00  0.00     0.012 A 
HETATM   30  C   UNL     1     -44.774  58.927 -55.767  1.00  0.00     0.016 A 
HETATM   31  C   UNL     1     -45.747  58.838 -56.771  1.00  0.00     0.009 A 
HETATM   32  C   UNL     1     -45.412  58.472 -58.085  1.00  0.00    -0.051 A 
HETATM   33  C   UNL     1     -44.063  58.166 -58.339  1.00  0.00     0.009 A 
HETATM   34  C   UNL     1     -43.089  58.254 -57.337  1.00  0.00     0.016 A 
BRANCH  32  35
HETATM   35  C   UNL     1     -46.448  58.412 -59.220  1.00  0.00    -0.024 C 
HETATM   36  C   UNL     1     -45.945  59.010 -60.554  1.00  0.00     0.019 C 
HETATM   37  C   UNL     1     -47.705  59.200 -58.798  1.00  0.00     0.019 C 
HETATM   38  C   UNL     1     -46.843  56.945 -59.512  1.00  0.00     0.019 C 
ENDBRANCH  32  35
ENDBRANCH   1  29
TORSDOF 7
ENDMDL
MODEL 2
REMARK VINA RESULT:      -8.2      3.372      6.055
REMARK  7 active torsions:
REMARK  status: ('A' for Active; 'I' for Inactive)
REMARK    1  A    between atoms: C_2  and  C_3 
REMARK    2  A    between atoms: C_6  and  C_7 
REMARK    3  A    between atoms: N_8  and  C_9 
REMARK    4  A    between atoms: C_14  and  S_15 
REMARK    5  A    between atoms: S_15  and  C_16 
REMARK    6  A    between atoms: C_16  and  C_17 
REMARK       I    between atoms: C_17  and  N_18 
REMARK    7  A    between atoms: N_18  and  C_19 
ROOT
HETATM    1  C   UNL     1     -44.241  59.657 -53.289  1.00  0.00     0.164 C 
HETATM    2  N   UNL     1     -43.150  58.966 -53.794  1.00  0.00    -0.302 N 
HETATM    3  C   UNL     1     -43.351  58.949 -55.150  1.00  0.00     0.192 C 
HETATM    4  N   UNL     1     -44.582  59.316 -55.414  1.00  0.00    -0.122 NA
HETATM    5  N   UNL     1     -45.137  59.771 -54.256  1.00  0.00    -0.128 NA
ENDROOT
BRANCH   3   6
HETATM    6  S   UNL     1     -42.151  58.617 -56.347  1.00  0.00    -0.081 SA
BRANCH   6   7
HETATM    7  C   UNL     1     -42.628  56.950 -56.894  1.00  0.00     0.185 C 
BRANCH   7   8
HETATM    8  C   UNL     1     -42.615  55.926 -55.762  1.00  0.00     0.231 C 
HETATM    9  N   UNL     1     -41.354  55.430 -55.484  1.00  0.00    -0.326 N 
HETATM   10  H   UNL     1     -40.569  55.956 -55.872  1.00  0.00     0.169 HD
HETATM   11  O   UNL     1     -43.658  55.581 -55.209  1.00  0.00    -0.272 OA
BRANCH   9  12
HETATM   12  C   UNL     1     -41.000  54.355 -54.647  1.00  0.00     0.037 A 
HETATM   13  C   UNL     1     -40.798  53.050 -55.108  1.00  0.00     0.061 A 
HETATM   14  C   UNL     1     -40.387  52.119 -54.179  1.00  0.00     0.065 A 
HETATM   15  C   UNL     1     -40.190  52.437 -52.836  1.00  0.00     0.063 A 
HETATM   16  N   UNL     1     -40.074  50.773 -54.346  1.00  0.00    -0.306 N 
HETATM   17  N   UNL     1     -39.762  51.288 -52.179  1.00  0.00    -0.307 N 
HETATM   18  C   UNL     1     -40.395  53.702 -52.347  1.00  0.00     0.034 A 
HETATM   19  C   UNL     1     -39.678  50.243 -53.110  1.00  0.00     0.325 A 
HETATM   20  H   UNL     1     -39.526  51.193 -51.206  1.00  0.00     0.170 HD
HETATM   21  O   UNL     1     -39.324  49.099 -52.886  1.00  0.00    -0.247 OA
HETATM   22  C   UNL     1     -40.799  54.668 -53.276  1.00  0.00     0.032 A 
HETATM   23  H   UNL     1     -40.103  50.246 -55.203  1.00  0.00     0.170 HD
ENDBRANCH   9  12
ENDBRANCH   7   8
ENDBRANCH   6   7
ENDBRANCH   3   6
BRANCH   2  24
HETATM   24  C   UNL     1     -42.152  58.269 -53.012  1.00  0.00     0.094 C 
HETATM   25  C   UNL     1     -40.966  59.135 -52.555  1.00  0.00     0.026 C 
HETATM   26  C   UNL     1     -40.411  58.370 -51.366  1.00  0.00     0.002 C 
HETATM   27  C   UNL     1     -41.662  57.895 -50.644  1.00  0.00     0.002 C 
HETATM   28  C   UNL     1     -42.655  57.544 -51.753  1.00  0.00     0.026 C 
ENDBRANCH   2  24
BRANCH   1  29
HETATM   29  C   UNL     1     -44.409  60.205 -51.944  1.00  0.00     0.012 A 
HETATM   30  C   UNL     1     -43.573  61.209 -51.446  1.00  0.00     0.016 A 
HETATM   31  C   UNL     1     -43.813  61.791 -50.194  1.00  0.00     0.009 A 
HETATM   32  C   UNL     1     -44.909  61.404 -49.406  1.00  0.00    -0.051 A 
HETATM   33  C   UNL     1     -45.733  60.383 -49.913  1.00  0.00     0.009 A 
HETATM   34  C   UNL     1     -45.494  59.800 -51.163  1.00  0.00     0.016 A 
BRANCH  32  35
HETATM   35  C   UNL     1     -45.227  62.056 -48.049  1.00  0.00    -0.024 C 
HETATM   36  C   UNL     1     -44.618  63.466 -47.880  1.00  0.00     0.019 C 
HETATM   37  C   UNL     1     -44.671  61.166 -46.919  1.00  0.00     0.019 C 
HETATM   38  C   UNL     1     -46.755  62.208 -47.870  1.00  0.00     0.019 C 
ENDBRANCH  32  35
ENDBRANCH   1  29
TORSDOF 7
ENDMDL
MODEL 3
REMARK VINA RESULT:      -8.2      4.099      6.811
REMARK  7 active torsions:
REMARK  status: ('A' for Active; 'I' for Inactive)
REMARK    1  A    between atoms: C_2  and  C_3 
REMARK    2  A    between atoms: C_6  and  C_7 
REMARK    3  A    between atoms: N_8  and  C_9 
REMARK    4  A    between atoms: C_14  and  S_15 
REMARK    5  A    between atoms: S_15  and  C_16 
REMARK    6  A    between atoms: C_16  and  C_17 
REMARK       I    between atoms: C_17  and  N_18 
REMARK    7  A    between atoms: N_18  and  C_19 
ROOT
HETATM    1  C   UNL     1     -44.788  60.024 -51.427  1.00  0.00     0.164 C 
HETATM    2  N   UNL     1     -43.599  59.399 -51.772  1.00  0.00    -0.302 N 
HETATM    3  C   UNL     1     -43.759  59.063 -53.091  1.00  0.00     0.192 C 
HETATM    4  N   UNL     1     -45.021  59.189 -53.426  1.00  0.00    -0.122 NA
HETATM    5  N   UNL     1     -45.665  59.801 -52.392  1.00  0.00    -0.128 NA
ENDROOT
BRANCH   3   6
HETATM    6  S   UNL     1     -42.492  58.652 -54.192  1.00  0.00    -0.081 SA
BRANCH   6   7
HETATM    7  C   UNL     1     -43.264  57.321 -55.161  1.00  0.00     0.185 C 
BRANCH   7   8
HETATM    8  C   UNL     1     -43.117  55.949 -54.508  1.00  0.00     0.231 C 
HETATM    9  N   UNL     1     -41.822  55.660 -54.121  1.00  0.00    -0.326 N 
HETATM   10  H   UNL     1     -41.178  56.452 -54.083  1.00  0.00     0.169 HD
HETATM   11  O   UNL     1     -44.083  55.195 -54.397  1.00  0.00    -0.272 OA
BRANCH   9  12
HETATM   12  C   UNL     1     -41.295  54.436 -53.666  1.00  0.00     0.037 A 
HETATM   13  C   UNL     1     -41.149  53.307 -54.479  1.00  0.00     0.061 A 
HETATM   14  C   UNL     1     -40.553  52.204 -53.909  1.00  0.00     0.065 A 
HETATM   15  C   UNL     1     -40.121  52.185 -52.585  1.00  0.00     0.063 A 
HETATM   16  N   UNL     1     -40.245  50.969 -54.473  1.00  0.00    -0.306 N 
HETATM   17  N   UNL     1     -39.553  50.941 -52.333  1.00  0.00    -0.307 N 
HETATM   18  C   UNL     1     -40.263  53.268 -51.755  1.00  0.00     0.034 A 
HETATM   19  C   UNL     1     -39.616  50.173 -53.505  1.00  0.00     0.325 A 
HETATM   20  H   UNL     1     -39.141  50.620 -51.474  1.00  0.00     0.170 HD
HETATM   21  O   UNL     1     -39.201  49.037 -53.651  1.00  0.00    -0.247 OA
HETATM   22  C   UNL     1     -40.853  54.407 -52.316  1.00  0.00     0.032 A 
HETATM   23  H   UNL     1     -40.417  50.674 -55.420  1.00  0.00     0.170 HD
ENDBRANCH   9  12
ENDBRANCH   7   8
ENDBRANCH   6   7
ENDBRANCH   3   6
BRANCH   2  24
HETATM   24  C   UNL     1     -42.537  59.033 -50.860  1.00  0.00     0.094 C 
HETATM   25  C   UNL     1     -41.952  57.628 -51.079  1.00  0.00     0.026 C 
HETATM   26  C   UNL     1     -40.583  57.713 -50.427  1.00  0.00     0.002 C 
HETATM   27  C   UNL     1     -40.091  59.094 -50.832  1.00  0.00     0.002 C 
HETATM   28  C   UNL     1     -41.332  59.987 -50.797  1.00  0.00     0.026 C 
ENDBRANCH   2  24
BRANCH   1  29
HETATM   29  C   UNL     1     -45.067  60.820 -50.231  1.00  0.00     0.012 A 
HETATM   30  C   UNL     1     -45.533  60.237 -49.049  1.00  0.00     0.016 A 
HETATM   31  C   UNL     1     -45.697  61.001 -47.886  1.00  0.00     0.009 A 
HETATM   32  C   UNL     1     -45.381  62.369 -47.859  1.00  0.00    -0.051 A 
HETATM   33  C   UNL     1     -44.927  62.945 -49.060  1.00  0.00     0.009 A 
HETATM   34  C   UNL     1     -44.763  62.183 -50.222  1.00  0.00     0.016 A 
BRANCH  32  35
HETATM   35  C   UNL     1     -45.504  63.225 -46.586  1.00  0.00    -0.024 C 
HETATM   36  C   UNL     1     -44.670  64.525 -46.628  1.00  0.00     0.019 C 
HETATM   37  C   UNL     1     -45.024  62.399 -45.376  1.00  0.00     0.019 C 
HETATM   38  C   UNL     1     -46.975  63.647 -46.361  1.00  0.00     0.019 C 
ENDBRANCH  32  35
ENDBRANCH   1  29
TORSDOF 7
ENDMDL
MODEL 4
REMARK VINA RESULT:      -8.2      5.040      9.699
REMARK  7 active torsions:
REMARK  status: ('A' for Active; 'I' for Inactive)
REMARK    1  A    between atoms: C_2  and  C_3 
REMARK    2  A    between atoms: C_6  and  C_7 
REMARK    3  A    between atoms: N_8  and  C_9 
REMARK    4  A    between atoms: C_14  and  S_15 
REMARK    5  A    between atoms: S_15  and  C_16 
REMARK    6  A    between atoms: C_16  and  C_17 
REMARK       I    between atoms: C_17  and  N_18 
REMARK    7  A    between atoms: N_18  and  C_19 
ROOT
HETATM    1  C   UNL     1     -42.195  56.209 -54.066  1.00  0.00     0.164 C 
HETATM    2  N   UNL     1     -42.069  57.335 -53.266  1.00  0.00    -0.302 N 
HETATM    3  C   UNL     1     -43.107  58.145 -53.646  1.00  0.00     0.192 C 
HETATM    4  N   UNL     1     -43.622  57.699 -54.767  1.00  0.00    -0.122 NA
HETATM    5  N   UNL     1     -43.064  56.484 -55.026  1.00  0.00    -0.128 NA
ENDROOT
BRANCH   3   6
HETATM    6  S   UNL     1     -43.734  59.477 -52.743  1.00  0.00    -0.081 SA
BRANCH   6   7
HETATM    7  C   UNL     1     -44.304  58.656 -51.224  1.00  0.00     0.185 C 
BRANCH   7   8
HETATM    8  C   UNL     1     -45.478  59.376 -50.563  1.00  0.00     0.231 C 
HETATM    9  N   UNL     1     -45.142  60.613 -50.046  1.00  0.00    -0.326 N 
HETATM   10  H   UNL     1     -44.254  61.007 -50.362  1.00  0.00     0.169 HD
HETATM   11  O   UNL     1     -46.585  58.846 -50.491  1.00  0.00    -0.272 OA
BRANCH   9  12
HETATM   12  C   UNL     1     -45.911  61.456 -49.220  1.00  0.00     0.037 A 
HETATM   13  C   UNL     1     -45.879  61.409 -47.823  1.00  0.00     0.061 A 
HETATM   14  C   UNL     1     -46.636  62.345 -47.152  1.00  0.00     0.065 A 
HETATM   15  C   UNL     1     -47.414  63.293 -47.812  1.00  0.00     0.063 A 
HETATM   16  N   UNL     1     -46.771  62.563 -45.784  1.00  0.00    -0.306 N 
HETATM   17  N   UNL     1     -48.030  64.089 -46.854  1.00  0.00    -0.307 N 
HETATM   18  C   UNL     1     -47.481  63.358 -49.181  1.00  0.00     0.034 A 
HETATM   19  C   UNL     1     -47.633  63.651 -45.582  1.00  0.00     0.325 A 
HETATM   20  H   UNL     1     -48.647  64.868 -47.011  1.00  0.00     0.170 HD
HETATM   21  O   UNL     1     -47.969  64.128 -44.513  1.00  0.00    -0.247 OA
HETATM   22  C   UNL     1     -46.710  62.425 -49.885  1.00  0.00     0.032 A 
HETATM   23  H   UNL     1     -46.324  62.053 -45.041  1.00  0.00     0.170 HD
ENDBRANCH   9  12
ENDBRANCH   7   8
ENDBRANCH   6   7
ENDBRANCH   3   6
BRANCH   2  24
HETATM   24  C   UNL     1     -40.961  57.627 -52.382  1.00  0.00     0.094 C 
HETATM   25  C   UNL     1     -40.355  59.030 -52.547  1.00  0.00     0.026 C 
HETATM   26  C   UNL     1     -39.654  59.267 -51.220  1.00  0.00     0.002 C 
HETATM   27  C   UNL     1     -40.630  58.693 -50.205  1.00  0.00     0.002 C 
HETATM   28  C   UNL     1     -41.224  57.455 -50.877  1.00  0.00     0.026 C 
ENDBRANCH   2  24
BRANCH   1  29
HETATM   29  C   UNL     1     -41.528  54.917 -53.906  1.00  0.00     0.012 A 
HETATM   30  C   UNL     1     -41.761  54.100 -52.796  1.00  0.00     0.016 A 
HETATM   31  C   UNL     1     -41.191  52.823 -52.711  1.00  0.00     0.009 A 
HETATM   32  C   UNL     1     -40.385  52.311 -53.741  1.00  0.00    -0.051 A 
HETATM   33  C   UNL     1     -40.148  53.150 -54.845  1.00  0.00     0.009 A 
HETATM   34  C   UNL     1     -40.717  54.426 -54.931  1.00  0.00     0.016 A 
BRANCH  32  35
HETATM   35  C   UNL     1     -39.784  50.895 -53.699  1.00  0.00    -0.024 C 
HETATM   36  C   UNL     1     -38.404  50.786 -54.387  1.00  0.00     0.019 C 
HETATM   37  C   UNL     1     -40.742  49.920 -54.412  1.00  0.00     0.019 C 
HETATM   38  C   UNL     1     -39.588  50.436 -52.236  1.00  0.00     0.019 C 
ENDBRANCH  32  35
ENDBRANCH   1  29
TORSDOF 7
ENDMDL
MODEL 5
REMARK VINA RESULT:      -8.1      1.978      3.297
REMARK  7 active torsions:
REMARK  status: ('A' for Active; 'I' for Inactive)
REMARK    1  A    between atoms: C_2  and  C_3 
REMARK    2  A    between atoms: C_6  and  C_7 
REMARK    3  A    between atoms: N_8  and  C_9 
REMARK    4  A    between atoms: C_14  and  S_15 
REMARK    5  A    between atoms: S_15  and  C_16 
REMARK    6  A    between atoms: C_16  and  C_17 
REMARK       I    between atoms: C_17  and  N_18 
REMARK    7  A    between atoms: N_18  and  C_19 
ROOT
HETATM    1  C   UNL     1     -44.086  57.928 -53.999  1.00  0.00     0.164 C 
HETATM    2  N   UNL     1     -43.401  59.013 -53.470  1.00  0.00    -0.302 N 
HETATM    3  C   UNL     1     -43.343  58.759 -52.125  1.00  0.00     0.192 C 
HETATM    4  N   UNL     1     -44.170  57.785 -51.826  1.00  0.00    -0.122 NA
HETATM    5  N   UNL     1     -44.626  57.256 -52.996  1.00  0.00    -0.128 NA
ENDROOT
BRANCH   3   6
HETATM    6  S   UNL     1     -42.268  59.508 -50.999  1.00  0.00    -0.081 SA
BRANCH   6   7
HETATM    7  C   UNL     1     -41.163  58.128 -50.571  1.00  0.00     0.185 C 
BRANCH   7   8
HETATM    8  C   UNL     1     -40.926  57.172 -51.738  1.00  0.00     0.231 C 
HETATM    9  N   UNL     1     -41.352  55.881 -51.486  1.00  0.00    -0.326 N 
HETATM   10  H   UNL     1     -41.977  55.763 -50.687  1.00  0.00     0.169 HD
HETATM   11  O   UNL     1     -40.370  57.556 -52.766  1.00  0.00    -0.272 OA
BRANCH   9  12
HETATM   12  C   UNL     1     -41.128  54.719 -52.250  1.00  0.00     0.037 A 
HETATM   13  C   UNL     1     -40.294  53.674 -51.839  1.00  0.00     0.061 A 
HETATM   14  C   UNL     1     -40.229  52.571 -52.663  1.00  0.00     0.065 A 
HETATM   15  C   UNL     1     -40.939  52.486 -53.858  1.00  0.00     0.063 A 
HETATM   16  N   UNL     1     -39.526  51.381 -52.501  1.00  0.00    -0.306 N 
HETATM   17  N   UNL     1     -40.670  51.248 -54.433  1.00  0.00    -0.307 N 
HETATM   18  C   UNL     1     -41.753  53.498 -54.299  1.00  0.00     0.034 A 
HETATM   19  C   UNL     1     -39.794  50.544 -53.594  1.00  0.00     0.325 A 
HETATM   20  H   UNL     1     -41.038  50.881 -55.294  1.00  0.00     0.170 HD
HETATM   21  O   UNL     1     -39.358  49.421 -53.778  1.00  0.00    -0.247 OA
HETATM   22  C   UNL     1     -41.846  54.624 -53.472  1.00  0.00     0.032 A 
HETATM   23  H   UNL     1     -38.929  51.129 -51.730  1.00  0.00     0.170 HD
ENDBRANCH   9  12
ENDBRANCH   7   8
ENDBRANCH   6   7
ENDBRANCH   3   6
BRANCH   2  24
HETATM   24  C   UNL     1     -43.026  60.211 -54.189  1.00  0.00     0.094 C 
HETATM   25  C   UNL     1     -42.131  59.976 -55.417  1.00  0.00     0.026 C 
HETATM   26  C   UNL     1     -42.346  61.226 -56.253  1.00  0.00     0.002 C 
HETATM   27  C   UNL     1     -43.839  61.480 -56.116  1.00  0.00     0.002 C 
HETATM   28  C   UNL     1     -44.178  61.106 -54.673  1.00  0.00     0.026 C 
ENDBRANCH   2  24
BRANCH   1  29
HETATM   29  C   UNL     1     -44.199  57.540 -55.404  1.00  0.00     0.012 A 
HETATM   30  C   UNL     1     -45.184  58.075 -56.240  1.00  0.00     0.016 A 
HETATM   31  C   UNL     1     -45.213  57.767 -57.607  1.00  0.00     0.009 A 
HETATM   32  C   UNL     1     -44.247  56.931 -58.189  1.00  0.00    -0.051 A 
HETATM   33  C   UNL     1     -43.270  56.389 -57.334  1.00  0.00     0.009 A 
HETATM   34  C   UNL     1     -43.240  56.695 -55.968  1.00  0.00     0.016 A 
BRANCH  32  35
HETATM   35  C   UNL     1     -44.223  56.613 -59.694  1.00  0.00    -0.024 C 
HETATM   36  C   UNL     1     -44.019  55.113 -60.009  1.00  0.00     0.019 C 
HETATM   37  C   UNL     1     -43.067  57.392 -60.355  1.00  0.00     0.019 C 
HETATM   38  C   UNL     1     -45.558  57.028 -60.354  1.00  0.00     0.019 C 
ENDBRANCH  32  35
ENDBRANCH   1  29
TORSDOF 7
ENDMDL
MODEL 6
REMARK VINA RESULT:      -8.0      2.265      3.447
REMARK  7 active torsions:
REMARK  status: ('A' for Active; 'I' for Inactive)
REMARK    1  A    between atoms: C_2  and  C_3 
REMARK    2  A    between atoms: C_6  and  C_7 
REMARK    3  A    between atoms: N_8  and  C_9 
REMARK    4  A    between atoms: C_14  and  S_15 
REMARK    5  A    between atoms: S_15  and  C_16 
REMARK    6  A    between atoms: C_16  and  C_17 
REMARK       I    between atoms: C_17  and  N_18 
REMARK    7  A    between atoms: N_18  and  C_19 
ROOT
HETATM    1  C   UNL     1     -44.014  58.477 -54.026  1.00  0.00     0.164 C 
HETATM    2  N   UNL     1     -43.511  59.720 -53.672  1.00  0.00    -0.302 N 
HETATM    3  C   UNL     1     -43.481  59.701 -52.302  1.00  0.00     0.192 C 
HETATM    4  N   UNL     1     -44.179  58.681 -51.863  1.00  0.00    -0.122 NA
HETATM    5  N   UNL     1     -44.503  57.907 -52.937  1.00  0.00    -0.128 NA
ENDROOT
BRANCH   3   6
HETATM    6  S   UNL     1     -42.574  60.771 -51.294  1.00  0.00    -0.081 SA
BRANCH   6   7
HETATM    7  C   UNL     1     -41.826  59.613 -50.108  1.00  0.00     0.185 C 
BRANCH   7   8
HETATM    8  C   UNL     1     -41.110  58.447 -50.786  1.00  0.00     0.231 C 
HETATM    9  N   UNL     1     -41.722  57.226 -50.571  1.00  0.00    -0.326 N 
HETATM   10  H   UNL     1     -42.678  57.260 -50.212  1.00  0.00     0.169 HD
HETATM   11  O   UNL     1     -40.070  58.626 -51.418  1.00  0.00    -0.272 OA
BRANCH   9  12
HETATM   12  C   UNL     1     -41.244  55.939 -50.883  1.00  0.00     0.037 A 
HETATM   13  C   UNL     1     -41.422  55.329 -52.129  1.00  0.00     0.061 A 
HETATM   14  C   UNL     1     -40.837  54.094 -52.307  1.00  0.00     0.065 A 
HETATM   15  C   UNL     1     -40.109  53.459 -51.303  1.00  0.00     0.063 A 
HETATM   16  N   UNL     1     -40.811  53.275 -53.431  1.00  0.00    -0.306 N 
HETATM   17  N   UNL     1     -39.642  52.250 -51.807  1.00  0.00    -0.307 N 
HETATM   18  C   UNL     1     -39.928  54.021 -50.064  1.00  0.00     0.034 A 
HETATM   19  C   UNL     1     -40.066  52.124 -53.138  1.00  0.00     0.325 A 
HETATM   20  H   UNL     1     -39.077  51.567 -51.332  1.00  0.00     0.170 HD
HETATM   21  O   UNL     1     -39.827  51.197 -53.891  1.00  0.00    -0.247 OA
HETATM   22  C   UNL     1     -40.503  55.282 -49.865  1.00  0.00     0.032 A 
HETATM   23  H   UNL     1     -41.235  53.460 -54.326  1.00  0.00     0.170 HD
ENDBRANCH   9  12
ENDBRANCH   7   8
ENDBRANCH   6   7
ENDBRANCH   3   6
BRANCH   2  24
HETATM   24  C   UNL     1     -43.271  60.826 -54.574  1.00  0.00     0.094 C 
HETATM   25  C   UNL     1     -42.318  60.516 -55.740  1.00  0.00     0.026 C 
HETATM   26  C   UNL     1     -42.667  61.577 -56.770  1.00  0.00     0.002 C 
HETATM   27  C   UNL     1     -44.183  61.653 -56.689  1.00  0.00     0.002 C 
HETATM   28  C   UNL     1     -44.514  61.474 -55.206  1.00  0.00     0.026 C 
ENDBRANCH   2  24
BRANCH   1  29
HETATM   29  C   UNL     1     -44.006  57.852 -55.349  1.00  0.00     0.012 A 
HETATM   30  C   UNL     1     -44.977  58.149 -56.310  1.00  0.00     0.016 A 
HETATM   31  C   UNL     1     -44.895  57.618 -57.604  1.00  0.00     0.009 A 
HETATM   32  C   UNL     1     -43.829  56.787 -57.987  1.00  0.00    -0.051 A 
HETATM   33  C   UNL     1     -42.868  56.486 -57.006  1.00  0.00     0.009 A 
HETATM   34  C   UNL     1     -42.948  57.016 -55.712  1.00  0.00     0.016 A 
BRANCH  32  35
HETATM   35  C   UNL     1     -43.684  56.227 -59.413  1.00  0.00    -0.024 C 
HETATM   36  C   UNL     1     -42.241  56.289 -59.962  1.00  0.00     0.019 C 
HETATM   37  C   UNL     1     -44.584  57.038 -60.367  1.00  0.00     0.019 C 
HETATM   38  C   UNL     1     -44.111  54.741 -59.453  1.00  0.00     0.019 C 
ENDBRANCH  32  35
ENDBRANCH   1  29
TORSDOF 7
ENDMDL
MODEL 7
REMARK VINA RESULT:      -7.9      3.753      6.515
REMARK  7 active torsions:
REMARK  status: ('A' for Active; 'I' for Inactive)
REMARK    1  A    between atoms: C_2  and  C_3 
REMARK    2  A    between atoms: C_6  and  C_7 
REMARK    3  A    between atoms: N_8  and  C_9 
REMARK    4  A    between atoms: C_14  and  S_15 
REMARK    5  A    between atoms: S_15  and  C_16 
REMARK    6  A    between atoms: C_16  and  C_17 
REMARK       I    between atoms: C_17  and  N_18 
REMARK    7  A    between atoms: N_18  and  C_19 
ROOT
HETATM    1  C   UNL     1     -42.589  60.531 -52.363  1.00  0.00     0.164 C 
HETATM    2  N   UNL     1     -43.000  60.442 -53.685  1.00  0.00    -0.302 N 
HETATM    3  C   UNL     1     -42.056  59.650 -54.285  1.00  0.00     0.192 C 
HETATM    4  N   UNL     1     -41.019  59.527 -53.492  1.00  0.00    -0.122 NA
HETATM    5  N   UNL     1     -41.353  60.065 -52.286  1.00  0.00    -0.128 NA
ENDROOT
BRANCH   3   6
HETATM    6  S   UNL     1     -42.234  58.833 -55.797  1.00  0.00    -0.081 SA
BRANCH   6   7
HETATM    7  C   UNL     1     -43.343  57.464 -55.347  1.00  0.00     0.185 C 
BRANCH   7   8
HETATM    8  C   UNL     1     -42.638  56.109 -55.332  1.00  0.00     0.231 C 
HETATM    9  N   UNL     1     -42.544  55.552 -54.070  1.00  0.00    -0.326 N 
HETATM   10  H   UNL     1     -43.145  55.962 -53.353  1.00  0.00     0.169 HD
HETATM   11  O   UNL     1     -42.183  55.623 -56.365  1.00  0.00    -0.272 OA
BRANCH   9  12
HETATM   12  C   UNL     1     -41.809  54.422 -53.663  1.00  0.00     0.037 A 
HETATM   13  C   UNL     1     -41.739  53.237 -54.403  1.00  0.00     0.061 A 
HETATM   14  C   UNL     1     -40.923  52.243 -53.910  1.00  0.00     0.065 A 
HETATM   15  C   UNL     1     -40.202  52.384 -52.726  1.00  0.00     0.063 A 
HETATM   16  N   UNL     1     -40.629  50.990 -54.438  1.00  0.00    -0.306 N 
HETATM   17  N   UNL     1     -39.471  51.219 -52.524  1.00  0.00    -0.307 N 
HETATM   18  C   UNL     1     -40.258  53.526 -51.967  1.00  0.00     0.034 A 
HETATM   19  C   UNL     1     -39.721  50.341 -53.589  1.00  0.00     0.325 A 
HETATM   20  H   UNL     1     -38.844  51.014 -51.764  1.00  0.00     0.170 HD
HETATM   21  O   UNL     1     -39.238  49.234 -53.745  1.00  0.00    -0.247 OA
HETATM   22  C   UNL     1     -41.072  54.556 -52.456  1.00  0.00     0.032 A 
HETATM   23  H   UNL     1     -40.982  50.595 -55.294  1.00  0.00     0.170 HD
ENDBRANCH   9  12
ENDBRANCH   7   8
ENDBRANCH   6   7
ENDBRANCH   3   6
BRANCH   2  24
HETATM   24  C   UNL     1     -44.079  61.193 -54.290  1.00  0.00     0.094 C 
HETATM   25  C   UNL     1     -45.488  60.648 -54.002  1.00  0.00     0.026 C 
HETATM   26  C   UNL     1     -46.385  61.849 -54.247  1.00  0.00     0.002 C 
HETATM   27  C   UNL     1     -45.596  63.000 -53.642  1.00  0.00     0.002 C 
HETATM   28  C   UNL     1     -44.133  62.694 -53.964  1.00  0.00     0.026 C 
ENDBRANCH   2  24
BRANCH   1  29
HETATM   29  C   UNL     1     -43.356  61.021 -51.218  1.00  0.00     0.012 A 
HETATM   30  C   UNL     1     -44.389  60.271 -50.647  1.00  0.00     0.016 A 
HETATM   31  C   UNL     1     -45.044  60.713 -49.490  1.00  0.00     0.009 A 
HETATM   32  C   UNL     1     -44.675  61.909 -48.852  1.00  0.00    -0.051 A 
HETATM   33  C   UNL     1     -43.644  62.659 -49.445  1.00  0.00     0.009 A 
HETATM   34  C   UNL     1     -42.989  62.219 -50.602  1.00  0.00     0.016 A 
BRANCH  32  35
HETATM   35  C   UNL     1     -45.341  62.397 -47.554  1.00  0.00    -0.024 C 
HETATM   36  C   UNL     1     -46.885  62.441 -47.625  1.00  0.00     0.019 C 
HETATM   37  C   UNL     1     -44.846  63.823 -47.239  1.00  0.00     0.019 C 
HETATM   38  C   UNL     1     -44.977  61.462 -46.377  1.00  0.00     0.019 C 
ENDBRANCH  32  35
ENDBRANCH   1  29
TORSDOF 7
ENDMDL
MODEL 8
REMARK VINA RESULT:      -7.9      3.136      6.318
REMARK  7 active torsions:
REMARK  status: ('A' for Active; 'I' for Inactive)
REMARK    1  A    between atoms: C_2  and  C_3 
REMARK    2  A    between atoms: C_6  and  C_7 
REMARK    3  A    between atoms: N_8  and  C_9 
REMARK    4  A    between atoms: C_14  and  S_15 
REMARK    5  A    between atoms: S_15  and  C_16 
REMARK    6  A    between atoms: C_16  and  C_17 
REMARK       I    between atoms: C_17  and  N_18 
REMARK    7  A    between atoms: N_18  and  C_19 
ROOT
HETATM    1  C   UNL     1     -42.429  60.020 -56.773  1.00  0.00     0.164 C 
HETATM    2  N   UNL     1     -43.454  59.494 -57.545  1.00  0.00    -0.302 N 
HETATM    3  C   UNL     1     -42.848  59.139 -58.723  1.00  0.00     0.192 C 
HETATM    4  N   UNL     1     -41.652  59.674 -58.779  1.00  0.00    -0.122 NA
HETATM    5  N   UNL     1     -41.381  60.214 -57.558  1.00  0.00    -0.128 NA
ENDROOT
BRANCH   3   6
HETATM    6  S   UNL     1     -43.493  58.059 -59.906  1.00  0.00    -0.081 SA
BRANCH   6   7
HETATM    7  C   UNL     1     -42.561  56.535 -59.560  1.00  0.00     0.185 C 
BRANCH   7   8
HETATM    8  C   UNL     1     -42.996  55.853 -58.265  1.00  0.00     0.231 C 
HETATM    9  N   UNL     1     -42.220  56.199 -57.174  1.00  0.00    -0.326 N 
HETATM   10  H   UNL     1     -41.627  57.023 -57.289  1.00  0.00     0.169 HD
HETATM   11  O   UNL     1     -43.929  55.052 -58.256  1.00  0.00    -0.272 OA
BRANCH   9  12
HETATM   12  C   UNL     1     -42.216  55.631 -55.886  1.00  0.00     0.037 A 
HETATM   13  C   UNL     1     -43.155  55.948 -54.899  1.00  0.00     0.061 A 
HETATM   14  C   UNL     1     -43.064  55.258 -53.710  1.00  0.00     0.065 A 
HETATM   15  C   UNL     1     -42.083  54.296 -53.475  1.00  0.00     0.063 A 
HETATM   16  N   UNL     1     -43.867  55.330 -52.576  1.00  0.00    -0.306 N 
HETATM   17  N   UNL     1     -42.280  53.781 -52.198  1.00  0.00    -0.307 N 
HETATM   18  C   UNL     1     -41.138  53.972 -54.414  1.00  0.00     0.034 A 
HETATM   19  C   UNL     1     -43.395  54.411 -51.627  1.00  0.00     0.325 A 
HETATM   20  H   UNL     1     -41.745  53.064 -51.739  1.00  0.00     0.170 HD
HETATM   21  O   UNL     1     -43.863  54.197 -50.523  1.00  0.00    -0.247 OA
HETATM   22  C   UNL     1     -41.219  54.651 -55.636  1.00  0.00     0.032 A 
HETATM   23  H   UNL     1     -44.670  55.921 -52.438  1.00  0.00     0.170 HD
ENDBRANCH   9  12
ENDBRANCH   7   8
ENDBRANCH   6   7
ENDBRANCH   3   6
BRANCH   2  24
HETATM   24  C   UNL     1     -44.862  59.517 -57.215  1.00  0.00     0.094 C 
HETATM   25  C   UNL     1     -45.765  60.173 -58.273  1.00  0.00     0.026 C 
HETATM   26  C   UNL     1     -47.136  59.593 -57.972  1.00  0.00     0.002 C 
HETATM   27  C   UNL     1     -46.834  58.137 -57.654  1.00  0.00     0.002 C 
HETATM   28  C   UNL     1     -45.509  58.161 -56.890  1.00  0.00     0.026 C 
ENDBRANCH   2  24
BRANCH   1  29
HETATM   29  C   UNL     1     -42.444  60.304 -55.338  1.00  0.00     0.012 A 
HETATM   30  C   UNL     1     -43.069  61.441 -54.818  1.00  0.00     0.016 A 
HETATM   31  C   UNL     1     -43.161  61.643 -53.435  1.00  0.00     0.009 A 
HETATM   32  C   UNL     1     -42.649  60.705 -52.523  1.00  0.00    -0.051 A 
HETATM   33  C   UNL     1     -42.011  59.573 -53.061  1.00  0.00     0.009 A 
HETATM   34  C   UNL     1     -41.918  59.370 -54.443  1.00  0.00     0.016 A 
BRANCH  32  35
HETATM   35  C   UNL     1     -42.776  60.874 -50.999  1.00  0.00    -0.024 C 
HETATM   36  C   UNL     1     -42.760  62.348 -50.533  1.00  0.00     0.019 C 
HETATM   37  C   UNL     1     -41.598  60.153 -50.313  1.00  0.00     0.019 C 
HETATM   38  C   UNL     1     -44.106  60.264 -50.498  1.00  0.00     0.019 C 
ENDBRANCH  32  35
ENDBRANCH   1  29
TORSDOF 7
ENDMDL
MODEL 9
REMARK VINA RESULT:      -7.8      3.278      8.322
REMARK  7 active torsions:
REMARK  status: ('A' for Active; 'I' for Inactive)
REMARK    1  A    between atoms: C_2  and  C_3 
REMARK    2  A    between atoms: C_6  and  C_7 
REMARK    3  A    between atoms: N_8  and  C_9 
REMARK    4  A    between atoms: C_14  and  S_15 
REMARK    5  A    between atoms: S_15  and  C_16 
REMARK    6  A    between atoms: C_16  and  C_17 
REMARK       I    between atoms: C_17  and  N_18 
REMARK    7  A    between atoms: N_18  and  C_19 
ROOT
HETATM    1  C   UNL     1     -42.720  55.792 -53.179  1.00  0.00     0.164 C 
HETATM    2  N   UNL     1     -42.447  57.001 -52.556  1.00  0.00    -0.302 N 
HETATM    3  C   UNL     1     -43.643  57.670 -52.568  1.00  0.00     0.192 C 
HETATM    4  N   UNL     1     -44.475  57.067 -53.383  1.00  0.00    -0.122 NA
HETATM    5  N   UNL     1     -43.906  55.886 -53.757  1.00  0.00    -0.128 NA
ENDROOT
BRANCH   3   6
HETATM    6  S   UNL     1     -44.053  59.027 -51.581  1.00  0.00    -0.081 SA
BRANCH   6   7
HETATM    7  C   UNL     1     -45.069  60.017 -52.720  1.00  0.00     0.185 C 
BRANCH   7   8
HETATM    8  C   UNL     1     -44.554  59.985 -54.157  1.00  0.00     0.231 C 
HETATM    9  N   UNL     1     -45.437  59.397 -55.044  1.00  0.00    -0.326 N 
HETATM   10  H   UNL     1     -46.396  59.279 -54.711  1.00  0.00     0.169 HD
HETATM   11  O   UNL     1     -43.438  60.418 -54.437  1.00  0.00    -0.272 OA
BRANCH   9  12
HETATM   12  C   UNL     1     -45.219  59.036 -56.388  1.00  0.00     0.037 A 
HETATM   13  C   UNL     1     -44.784  57.768 -56.786  1.00  0.00     0.061 A 
HETATM   14  C   UNL     1     -44.683  57.543 -58.142  1.00  0.00     0.065 A 
HETATM   15  C   UNL     1     -44.981  58.522 -59.088  1.00  0.00     0.063 A 
HETATM   16  N   UNL     1     -44.319  56.388 -58.827  1.00  0.00    -0.306 N 
HETATM   17  N   UNL     1     -44.796  57.971 -60.351  1.00  0.00    -0.307 N 
HETATM   18  C   UNL     1     -45.394  59.780 -58.732  1.00  0.00     0.034 A 
HETATM   19  C   UNL     1     -44.390  56.637 -60.205  1.00  0.00     0.325 A 
HETATM   20  H   UNL     1     -44.939  58.420 -61.240  1.00  0.00     0.170 HD
HETATM   21  O   UNL     1     -44.151  55.849 -61.103  1.00  0.00    -0.247 OA
HETATM   22  C   UNL     1     -45.518  60.028 -57.360  1.00  0.00     0.032 A 
HETATM   23  H   UNL     1     -44.060  55.501 -58.427  1.00  0.00     0.170 HD
ENDBRANCH   9  12
ENDBRANCH   7   8
ENDBRANCH   6   7
ENDBRANCH   3   6
BRANCH   2  24
HETATM   24  C   UNL     1     -41.137  57.481 -52.174  1.00  0.00     0.094 C 
HETATM   25  C   UNL     1     -40.642  58.706 -52.960  1.00  0.00     0.026 C 
HETATM   26  C   UNL     1     -39.590  59.309 -52.045  1.00  0.00     0.002 C 
HETATM   27  C   UNL     1     -40.211  59.170 -50.664  1.00  0.00     0.002 C 
HETATM   28  C   UNL     1     -40.943  57.828 -50.688  1.00  0.00     0.026 C 
ENDBRANCH   2  24
BRANCH   1  29
HETATM   29  C   UNL     1     -41.888  54.589 -53.200  1.00  0.00     0.012 A 
HETATM   30  C   UNL     1     -41.506  53.935 -52.025  1.00  0.00     0.016 A 
HETATM   31  C   UNL     1     -40.795  52.728 -52.071  1.00  0.00     0.009 A 
HETATM   32  C   UNL     1     -40.460  52.123 -53.293  1.00  0.00    -0.051 A 
HETATM   33  C   UNL     1     -40.839  52.799 -54.467  1.00  0.00     0.009 A 
HETATM   34  C   UNL     1     -41.549  54.005 -54.423  1.00  0.00     0.016 A 
BRANCH  32  35
HETATM   35  C   UNL     1     -39.722  50.776 -53.378  1.00  0.00    -0.024 C 
HETATM   36  C   UNL     1     -39.638  50.028 -52.028  1.00  0.00     0.019 C 
HETATM   37  C   UNL     1     -38.281  51.020 -53.869  1.00  0.00     0.019 C 
HETATM   38  C   UNL     1     -40.442  49.829 -54.366  1.00  0.00     0.019 C 
ENDBRANCH  32  35
ENDBRANCH   1  29
TORSDOF 7
ENDMDL
MODEL 10
REMARK VINA RESULT:      -7.8      4.264      7.921
REMARK  7 active torsions:
REMARK  status: ('A' for Active; 'I' for Inactive)
REMARK    1  A    between atoms: C_2  and  C_3 
REMARK    2  A    between atoms: C_6  and  C_7 
REMARK    3  A    between atoms: N_8  and  C_9 
REMARK    4  A    between atoms: C_14  and  S_15 
REMARK    5  A    between atoms: S_15  and  C_16 
REMARK    6  A    between atoms: C_16  and  C_17 
REMARK       I    between atoms: C_17  and  N_18 
REMARK    7  A    between atoms: N_18  and  C_19 
ROOT
HETATM    1  C   UNL     1     -42.488  59.683 -54.720  1.00  0.00     0.164 C 
HETATM    2  N   UNL     1     -43.289  60.765 -54.385  1.00  0.00    -0.302 N 
HETATM    3  C   UNL     1     -43.238  61.583 -55.483  1.00  0.00     0.192 C 
HETATM    4  N   UNL     1     -42.268  61.193 -56.275  1.00  0.00    -0.122 NA
HETATM    5  N   UNL     1     -41.805  60.000 -55.808  1.00  0.00    -0.128 NA
ENDROOT
BRANCH   3   6
HETATM    6  S   UNL     1     -44.345  62.857 -55.848  1.00  0.00    -0.081 SA
BRANCH   6   7
HETATM    7  C   UNL     1     -45.802  61.928 -56.415  1.00  0.00     0.185 C 
BRANCH   7   8
HETATM    8  C   UNL     1     -45.486  60.964 -57.556  1.00  0.00     0.231 C 
HETATM    9  N   UNL     1     -45.657  59.635 -57.216  1.00  0.00    -0.326 N 
HETATM   10  H   UNL     1     -46.191  59.455 -56.364  1.00  0.00     0.169 HD
HETATM   11  O   UNL     1     -45.083  61.380 -58.641  1.00  0.00    -0.272 OA
BRANCH   9  12
HETATM   12  C   UNL     1     -45.287  58.489 -57.946  1.00  0.00     0.037 A 
HETATM   13  C   UNL     1     -45.924  58.082 -59.122  1.00  0.00     0.061 A 
HETATM   14  C   UNL     1     -45.404  56.978 -59.761  1.00  0.00     0.065 A 
HETATM   15  C   UNL     1     -44.304  56.277 -59.270  1.00  0.00     0.063 A 
HETATM   16  N   UNL     1     -45.797  56.371 -60.950  1.00  0.00    -0.306 N 
HETATM   17  N   UNL     1     -44.025  55.239 -60.153  1.00  0.00    -0.307 N 
HETATM   18  C   UNL     1     -43.665  56.639 -58.112  1.00  0.00     0.034 A 
HETATM   19  C   UNL     1     -44.944  55.289 -61.211  1.00  0.00     0.325 A 
HETATM   20  H   UNL     1     -43.285  54.561 -60.084  1.00  0.00     0.170 HD
HETATM   21  O   UNL     1     -44.986  54.540 -62.171  1.00  0.00    -0.247 OA
HETATM   22  C   UNL     1     -44.168  57.766 -57.452  1.00  0.00     0.032 A 
HETATM   23  H   UNL     1     -46.553  56.651 -61.553  1.00  0.00     0.170 HD
ENDBRANCH   9  12
ENDBRANCH   7   8
ENDBRANCH   6   7
ENDBRANCH   3   6
BRANCH   2  24
HETATM   24  C   UNL     1     -43.867  61.021 -53.083  1.00  0.00     0.094 C 
HETATM   25  C   UNL     1     -45.201  60.305 -52.816  1.00  0.00     0.026 C 
HETATM   26  C   UNL     1     -45.288  60.282 -51.299  1.00  0.00     0.002 C 
HETATM   27  C   UNL     1     -43.862  59.968 -50.875  1.00  0.00     0.002 C 
HETATM   28  C   UNL     1     -42.975  60.720 -51.868  1.00  0.00     0.026 C 
ENDBRANCH   2  24
BRANCH   1  29
HETATM   29  C   UNL     1     -42.397  58.392 -54.039  1.00  0.00     0.012 A 
HETATM   30  C   UNL     1     -43.479  57.507 -53.988  1.00  0.00     0.016 A 
HETATM   31  C   UNL     1     -43.341  56.234 -53.419  1.00  0.00     0.009 A 
HETATM   32  C   UNL     1     -42.112  55.794 -52.900  1.00  0.00    -0.051 A 
HETATM   33  C   UNL     1     -41.037  56.700 -52.945  1.00  0.00     0.009 A 
HETATM   34  C   UNL     1     -41.173  57.972 -53.513  1.00  0.00     0.016 A 
BRANCH  32  35
HETATM   35  C   UNL     1     -41.916  54.386 -52.313  1.00  0.00    -0.024 C 
HETATM   36  C   UNL     1     -41.593  53.309 -53.374  1.00  0.00     0.019 C 
HETATM   37  C   UNL     1     -43.209  53.957 -51.589  1.00  0.00     0.019 C 
HETATM   38  C   UNL     1     -40.744  54.381 -51.304  1.00  0.00     0.019 C 
ENDBRANCH  32  35
ENDBRANCH   1  29
TORSDOF 7
ENDMDL
