MODEL 1
REMARK VINA RESULT:     -10.6      0.000      0.000
REMARK  6 active torsions:
REMARK  status: ('A' for Active; 'I' for Inactive)
REMARK    1  A    between atoms: C_2  and  O_3 
REMARK    2  A    between atoms: O_3  and  C_4 
REMARK    3  A    between atoms: C_5  and  C_6 
REMARK       I    between atoms: C_6  and  N_7 
REMARK    4  A    between atoms: N_7  and  C_8 
REMARK    5  A    between atoms: N_9  and  C_10 
REMARK    6  A    between atoms: C_21  and  C_22 
ROOT
HETATM    1  C   UNL     1     -42.589  55.354 -55.407  1.00  0.00     0.152 A 
HETATM    2  N   UNL     1     -42.924  56.699 -55.437  1.00  0.00    -0.044 N 
HETATM    3  N   UNL     1     -43.445  57.082 -56.641  1.00  0.00    -0.148 NA
HETATM    4  C   UNL     1     -43.428  55.956 -57.369  1.00  0.00     0.115 A 
HETATM    5  C   UNL     1     -42.878  54.867 -56.661  1.00  0.00     0.087 A 
ENDROOT
BRANCH   1   6
HETATM    6  N   UNL     1     -42.104  54.747 -54.261  1.00  0.00    -0.307 N 
HETATM    7  C   UNL     1     -40.777  54.431 -54.064  1.00  0.00     0.261 C 
HETATM    8  O   UNL     1     -39.816  54.790 -54.732  1.00  0.00    -0.267 OA
HETATM    9  H   UNL     1     -42.788  54.460 -53.558  1.00  0.00     0.170 HD
BRANCH   7  10
HETATM   10  C   UNL     1     -40.570  53.570 -52.878  1.00  0.00     0.076 A 
HETATM   11  C   UNL     1     -40.663  54.175 -51.611  1.00  0.00     0.085 A 
HETATM   12  C   UNL     1     -40.421  53.400 -50.480  1.00  0.00     0.039 A 
HETATM   13  C   UNL     1     -40.085  52.050 -50.613  1.00  0.00     0.015 A 
HETATM   14  C   UNL     1     -39.982  51.443 -51.875  1.00  0.00    -0.025 A 
HETATM   15  C   UNL     1     -40.234  52.201 -53.041  1.00  0.00    -0.007 A 
HETATM   16  C   UNL     1     -39.624  50.089 -51.984  1.00  0.00     0.012 A 
HETATM   17  C   UNL     1     -40.122  51.553 -54.294  1.00  0.00     0.013 A 
HETATM   18  C   UNL     1     -39.763  50.206 -54.386  1.00  0.00     0.001 A 
HETATM   19  C   UNL     1     -39.513  49.476 -53.232  1.00  0.00     0.001 A 
BRANCH  11  20
HETATM   20  O   UNL     1     -40.961  55.511 -51.591  1.00  0.00    -0.350 OA
BRANCH  20  21
HETATM   21  C   UNL     1     -41.789  56.004 -50.541  1.00  0.00     0.171 C 
HETATM   22  C   UNL     1     -43.234  55.776 -50.948  1.00  0.00     0.034 C 
ENDBRANCH  20  21
ENDBRANCH  11  20
ENDBRANCH   7  10
ENDBRANCH   1   6
BRANCH   2  23
HETATM   23  C   UNL     1     -42.789  57.644 -54.401  1.00  0.00     0.732 A 
HETATM   24  N   UNL     1     -43.795  58.081 -53.701  1.00  0.00    -0.067 NA
HETATM   25  C   UNL     1     -43.454  58.983 -52.736  1.00  0.00     0.065 A 
HETATM   26  C   UNL     1     -42.223  59.430 -52.479  1.00  0.00     0.036 A 
HETATM   27  C   UNL     1     -44.456  59.598 -51.816  1.00  0.00     0.061 C 
HETATM   28  C   UNL     1     -42.167  60.403 -51.365  1.00  0.00     0.047 C 
HETATM   29  C   UNL     1     -41.103  58.934 -53.279  1.00  0.00     0.268 A 
HETATM   30  C   UNL     1     -43.567  60.257 -50.752  1.00  0.00     0.011 C 
HETATM   31  O   UNL     1     -39.952  59.302 -53.102  1.00  0.00    -0.267 OA
HETATM   32  N   UNL     1     -41.479  58.029 -54.233  1.00  0.00    -0.152 N 
HETATM   33  H   UNL     1     -40.768  57.628 -54.836  1.00  0.00     0.188 HD
ENDBRANCH   2  23
BRANCH   4  34
HETATM   34  C   UNL     1     -43.962  55.888 -58.760  1.00  0.00     0.105 A 
HETATM   35  O   UNL     1     -44.245  56.978 -59.536  1.00  0.00    -0.320 OA
HETATM   36  C   UNL     1     -44.688  56.519 -60.735  1.00  0.00     0.142 A 
HETATM   37  C   UNL     1     -44.698  55.145 -60.749  1.00  0.00     0.027 A 
HETATM   38  C   UNL     1     -44.233  54.736 -59.476  1.00  0.00     0.041 A 
ENDBRANCH   4  34
TORSDOF 6
ENDMDL
MODEL 2
REMARK VINA RESULT:     -10.3      1.084      1.489
REMARK  6 active torsions:
REMARK  status: ('A' for Active; 'I' for Inactive)
REMARK    1  A    between atoms: C_2  and  O_3 
REMARK    2  A    between atoms: O_3  and  C_4 
REMARK    3  A    between atoms: C_5  and  C_6 
REMARK       I    between atoms: C_6  and  N_7 
REMARK    4  A    between atoms: N_7  and  C_8 
REMARK    5  A    between atoms: N_9  and  C_10 
REMARK    6  A    between atoms: C_21  and  C_22 
ROOT
HETATM    1  C   UNL     1     -42.612  55.501 -55.204  1.00  0.00     0.152 A 
HETATM    2  N   UNL     1     -43.046  56.816 -55.123  1.00  0.00    -0.044 N 
HETATM    3  N   UNL     1     -43.550  57.274 -56.308  1.00  0.00    -0.148 NA
HETATM    4  C   UNL     1     -43.422  56.227 -57.136  1.00  0.00     0.115 A 
HETATM    5  C   UNL     1     -42.818  55.117 -56.508  1.00  0.00     0.087 A 
ENDROOT
BRANCH   1   6
HETATM    6  N   UNL     1     -42.126  54.824 -54.098  1.00  0.00    -0.307 N 
HETATM    7  C   UNL     1     -40.797  54.503 -53.920  1.00  0.00     0.261 C 
HETATM    8  O   UNL     1     -39.837  54.910 -54.561  1.00  0.00    -0.267 OA
HETATM    9  H   UNL     1     -42.810  54.488 -53.416  1.00  0.00     0.170 HD
BRANCH   7  10
HETATM   10  C   UNL     1     -40.587  53.568 -52.792  1.00  0.00     0.076 A 
HETATM   11  C   UNL     1     -40.685  54.090 -51.488  1.00  0.00     0.085 A 
HETATM   12  C   UNL     1     -40.440  53.244 -50.409  1.00  0.00     0.039 A 
HETATM   13  C   UNL     1     -40.097  51.907 -50.629  1.00  0.00     0.015 A 
HETATM   14  C   UNL     1     -39.990  51.383 -51.928  1.00  0.00    -0.025 A 
HETATM   15  C   UNL     1     -40.244  52.215 -53.043  1.00  0.00    -0.007 A 
HETATM   16  C   UNL     1     -39.625  50.041 -52.125  1.00  0.00     0.012 A 
HETATM   17  C   UNL     1     -40.128  51.650 -54.335  1.00  0.00     0.013 A 
HETATM   18  C   UNL     1     -39.762  50.314 -54.514  1.00  0.00     0.001 A 
HETATM   19  C   UNL     1     -39.509  49.511 -53.409  1.00  0.00     0.001 A 
BRANCH  11  20
HETATM   20  O   UNL     1     -40.990  55.419 -51.382  1.00  0.00    -0.350 OA
BRANCH  20  21
HETATM   21  C   UNL     1     -41.832  55.837 -50.311  1.00  0.00     0.171 C 
HETATM   22  C   UNL     1     -43.270  55.705 -50.777  1.00  0.00     0.034 C 
ENDBRANCH  20  21
ENDBRANCH  11  20
ENDBRANCH   7  10
ENDBRANCH   1   6
BRANCH   2  23
HETATM   23  C   UNL     1     -43.021  57.665 -53.999  1.00  0.00     0.732 A 
HETATM   24  N   UNL     1     -41.928  57.965 -53.359  1.00  0.00    -0.067 NA
HETATM   25  C   UNL     1     -42.114  58.811 -52.304  1.00  0.00     0.065 A 
HETATM   26  C   UNL     1     -43.279  59.320 -51.902  1.00  0.00     0.036 A 
HETATM   27  C   UNL     1     -40.990  59.288 -51.447  1.00  0.00     0.061 C 
HETATM   28  C   UNL     1     -43.162  60.213 -50.728  1.00  0.00     0.047 C 
HETATM   29  C   UNL     1     -44.500  58.966 -52.628  1.00  0.00     0.268 A 
HETATM   30  C   UNL     1     -41.643  60.425 -50.647  1.00  0.00     0.011 C 
HETATM   31  O   UNL     1     -45.601  59.391 -52.312  1.00  0.00    -0.267 OA
HETATM   32  N   UNL     1     -44.279  58.122 -53.680  1.00  0.00    -0.152 N 
HETATM   33  H   UNL     1     -45.067  57.824 -54.245  1.00  0.00     0.188 HD
ENDBRANCH   2  23
BRANCH   4  34
HETATM   34  C   UNL     1     -43.898  56.254 -58.549  1.00  0.00     0.105 A 
HETATM   35  O   UNL     1     -44.372  57.367 -59.187  1.00  0.00    -0.320 OA
HETATM   36  C   UNL     1     -44.686  57.005 -60.457  1.00  0.00     0.142 A 
HETATM   37  C   UNL     1     -44.423  55.671 -60.655  1.00  0.00     0.027 A 
HETATM   38  C   UNL     1     -43.918  55.184 -59.425  1.00  0.00     0.041 A 
ENDBRANCH   4  34
TORSDOF 6
ENDMDL
MODEL 3
REMARK VINA RESULT:      -9.5      2.082      6.798
REMARK  6 active torsions:
REMARK  status: ('A' for Active; 'I' for Inactive)
REMARK    1  A    between atoms: C_2  and  O_3 
REMARK    2  A    between atoms: O_3  and  C_4 
REMARK    3  A    between atoms: C_5  and  C_6 
REMARK       I    between atoms: C_6  and  N_7 
REMARK    4  A    between atoms: N_7  and  C_8 
REMARK    5  A    between atoms: N_9  and  C_10 
REMARK    6  A    between atoms: C_21  and  C_22 
ROOT
HETATM    1  C   UNL     1     -41.158  54.893 -54.521  1.00  0.00     0.152 A 
HETATM    2  N   UNL     1     -41.331  55.095 -53.160  1.00  0.00    -0.044 N 
HETATM    3  N   UNL     1     -40.999  53.994 -52.421  1.00  0.00    -0.148 NA
HETATM    4  C   UNL     1     -40.619  53.095 -53.340  1.00  0.00     0.115 A 
HETATM    5  C   UNL     1     -40.729  53.593 -54.655  1.00  0.00     0.087 A 
ENDROOT
BRANCH   1   6
HETATM    6  N   UNL     1     -41.375  55.902 -55.443  1.00  0.00    -0.307 N 
HETATM    7  C   UNL     1     -42.620  56.413 -55.741  1.00  0.00     0.261 C 
HETATM    8  O   UNL     1     -43.669  56.225 -55.138  1.00  0.00    -0.267 OA
HETATM    9  H   UNL     1     -40.567  56.232 -55.976  1.00  0.00     0.170 HD
BRANCH   7  10
HETATM   10  C   UNL     1     -42.601  57.295 -56.929  1.00  0.00     0.076 A 
HETATM   11  C   UNL     1     -42.142  58.614 -56.752  1.00  0.00     0.085 A 
HETATM   12  C   UNL     1     -42.163  59.481 -57.842  1.00  0.00     0.039 A 
HETATM   13  C   UNL     1     -42.640  59.041 -59.080  1.00  0.00     0.015 A 
HETATM   14  C   UNL     1     -43.107  57.729 -59.260  1.00  0.00    -0.025 A 
HETATM   15  C   UNL     1     -43.087  56.822 -58.175  1.00  0.00    -0.007 A 
HETATM   16  C   UNL     1     -43.599  57.316 -60.509  1.00  0.00     0.012 A 
HETATM   17  C   UNL     1     -43.564  55.508 -58.397  1.00  0.00     0.013 A 
HETATM   18  C   UNL     1     -44.053  55.114 -59.644  1.00  0.00     0.001 A 
HETATM   19  C   UNL     1     -44.071  56.018 -60.698  1.00  0.00     0.001 A 
BRANCH  11  20
HETATM   20  O   UNL     1     -41.731  58.956 -55.493  1.00  0.00    -0.350 OA
BRANCH  20  21
HETATM   21  C   UNL     1     -42.233  60.160 -54.921  1.00  0.00     0.171 C 
HETATM   22  C   UNL     1     -43.672  59.910 -54.509  1.00  0.00     0.034 C 
ENDBRANCH  20  21
ENDBRANCH  11  20
ENDBRANCH   7  10
ENDBRANCH   1   6
BRANCH   2  23
HETATM   23  C   UNL     1     -41.784  56.261 -52.513  1.00  0.00     0.732 A 
HETATM   24  N   UNL     1     -41.054  57.331 -52.382  1.00  0.00    -0.067 NA
HETATM   25  C   UNL     1     -41.679  58.358 -51.736  1.00  0.00     0.065 A 
HETATM   26  C   UNL     1     -42.921  58.338 -51.248  1.00  0.00     0.036 A 
HETATM   27  C   UNL     1     -41.023  59.675 -51.492  1.00  0.00     0.061 C 
HETATM   28  C   UNL     1     -43.324  59.607 -50.603  1.00  0.00     0.047 C 
HETATM   29  C   UNL     1     -43.726  57.125 -51.397  1.00  0.00     0.268 A 
HETATM   30  C   UNL     1     -42.201  60.555 -51.048  1.00  0.00     0.011 C 
HETATM   31  O   UNL     1     -44.868  57.035 -50.972  1.00  0.00    -0.267 OA
HETATM   32  N   UNL     1     -43.073  56.119 -52.053  1.00  0.00    -0.152 N 
HETATM   33  H   UNL     1     -43.554  55.238 -52.206  1.00  0.00     0.188 HD
ENDBRANCH   2  23
BRANCH   4  34
HETATM   34  C   UNL     1     -40.114  51.739 -52.980  1.00  0.00     0.105 A 
HETATM   35  O   UNL     1     -39.802  51.339 -51.709  1.00  0.00    -0.320 OA
HETATM   36  C   UNL     1     -39.402  50.044 -51.778  1.00  0.00     0.142 A 
HETATM   37  C   UNL     1     -39.448  49.594 -53.075  1.00  0.00     0.027 A 
HETATM   38  C   UNL     1     -39.904  50.686 -53.853  1.00  0.00     0.041 A 
ENDBRANCH   4  34
TORSDOF 6
ENDMDL
MODEL 4
REMARK VINA RESULT:      -8.8      1.761      2.459
REMARK  6 active torsions:
REMARK  status: ('A' for Active; 'I' for Inactive)
REMARK    1  A    between atoms: C_2  and  O_3 
REMARK    2  A    between atoms: O_3  and  C_4 
REMARK    3  A    between atoms: C_5  and  C_6 
REMARK       I    between atoms: C_6  and  N_7 
REMARK    4  A    between atoms: N_7  and  C_8 
REMARK    5  A    between atoms: N_9  and  C_10 
REMARK    6  A    between atoms: C_21  and  C_22 
ROOT
HETATM    1  C   UNL     1     -43.400  57.104 -54.789  1.00  0.00     0.152 A 
HETATM    2  N   UNL     1     -43.948  58.378 -54.804  1.00  0.00    -0.044 N 
HETATM    3  N   UNL     1     -44.450  58.716 -56.029  1.00  0.00    -0.148 NA
HETATM    4  C   UNL     1     -44.205  57.636 -56.785  1.00  0.00     0.115 A 
HETATM    5  C   UNL     1     -43.528  56.625 -56.071  1.00  0.00     0.087 A 
ENDROOT
BRANCH   1   6
HETATM    6  N   UNL     1     -42.894  56.540 -53.630  1.00  0.00    -0.307 N 
HETATM    7  C   UNL     1     -41.550  56.480 -53.330  1.00  0.00     0.261 C 
HETATM    8  O   UNL     1     -40.631  57.058 -53.897  1.00  0.00    -0.267 OA
HETATM    9  H   UNL     1     -43.560  56.086 -53.000  1.00  0.00     0.170 HD
BRANCH   7  10
HETATM   10  C   UNL     1     -41.267  55.611 -52.166  1.00  0.00     0.076 A 
HETATM   11  C   UNL     1     -41.443  56.165 -50.884  1.00  0.00     0.085 A 
HETATM   12  C   UNL     1     -41.134  55.387 -49.771  1.00  0.00     0.039 A 
HETATM   13  C   UNL     1     -40.652  54.085 -49.936  1.00  0.00     0.015 A 
HETATM   14  C   UNL     1     -40.467  53.531 -51.213  1.00  0.00    -0.025 A 
HETATM   15  C   UNL     1     -40.783  54.293 -52.362  1.00  0.00    -0.007 A 
HETATM   16  C   UNL     1     -39.963  52.227 -51.355  1.00  0.00     0.012 A 
HETATM   17  C   UNL     1     -40.585  53.698 -53.631  1.00  0.00     0.013 A 
HETATM   18  C   UNL     1     -40.081  52.401 -53.755  1.00  0.00     0.001 A 
HETATM   19  C   UNL     1     -39.769  51.668 -52.617  1.00  0.00     0.001 A 
BRANCH  11  20
HETATM   20  O   UNL     1     -41.885  57.459 -50.831  1.00  0.00    -0.350 OA
BRANCH  20  21
HETATM   21  C   UNL     1     -41.016  58.448 -50.285  1.00  0.00     0.171 C 
HETATM   22  C   UNL     1     -40.850  59.540 -51.326  1.00  0.00     0.034 C 
ENDBRANCH  20  21
ENDBRANCH  11  20
ENDBRANCH   7  10
ENDBRANCH   1   6
BRANCH   2  23
HETATM   23  C   UNL     1     -44.033  59.292 -53.736  1.00  0.00     0.732 A 
HETATM   24  N   UNL     1     -44.573  58.997 -52.588  1.00  0.00    -0.067 NA
HETATM   25  C   UNL     1     -44.547  60.016 -51.681  1.00  0.00     0.065 A 
HETATM   26  C   UNL     1     -44.037  61.233 -51.882  1.00  0.00     0.036 A 
HETATM   27  C   UNL     1     -45.103  59.882 -50.303  1.00  0.00     0.061 C 
HETATM   28  C   UNL     1     -44.151  62.123 -50.706  1.00  0.00     0.047 C 
HETATM   29  C   UNL     1     -43.441  61.551 -53.179  1.00  0.00     0.268 A 
HETATM   30  C   UNL     1     -44.555  61.135 -49.602  1.00  0.00     0.011 C 
HETATM   31  O   UNL     1     -42.961  62.645 -53.434  1.00  0.00    -0.267 OA
HETATM   32  N   UNL     1     -43.480  60.508 -54.063  1.00  0.00    -0.152 N 
HETATM   33  H   UNL     1     -43.086  60.635 -54.990  1.00  0.00     0.188 HD
ENDBRANCH   2  23
BRANCH   4  34
HETATM   34  C   UNL     1     -44.634  57.535 -58.209  1.00  0.00     0.105 A 
HETATM   35  O   UNL     1     -43.828  57.122 -59.235  1.00  0.00    -0.320 OA
HETATM   36  C   UNL     1     -44.573  57.141 -60.370  1.00  0.00     0.142 A 
HETATM   37  C   UNL     1     -45.852  57.560 -60.098  1.00  0.00     0.027 A 
HETATM   38  C   UNL     1     -45.893  57.818 -58.706  1.00  0.00     0.041 A 
ENDBRANCH   4  34
TORSDOF 6
ENDMDL
MODEL 5
REMARK VINA RESULT:      -8.7      2.162      7.348
REMARK  6 active torsions:
REMARK  status: ('A' for Active; 'I' for Inactive)
REMARK    1  A    between atoms: C_2  and  O_3 
REMARK    2  A    between atoms: O_3  and  C_4 
REMARK    3  A    between atoms: C_5  and  C_6 
REMARK       I    between atoms: C_6  and  N_7 
REMARK    4  A    between atoms: N_7  and  C_8 
REMARK    5  A    between atoms: N_9  and  C_10 
REMARK    6  A    between atoms: C_21  and  C_22 
ROOT
HETATM    1  C   UNL     1     -41.359  55.897 -53.631  1.00  0.00     0.152 A 
HETATM    2  N   UNL     1     -41.524  55.441 -54.930  1.00  0.00    -0.044 N 
HETATM    3  N   UNL     1     -41.155  54.134 -55.077  1.00  0.00    -0.148 NA
HETATM    4  C   UNL     1     -40.751  53.776 -53.849  1.00  0.00     0.115 A 
HETATM    5  C   UNL     1     -40.829  54.841 -52.927  1.00  0.00     0.087 A 
ENDROOT
BRANCH   1   6
HETATM    6  N   UNL     1     -41.734  57.175 -53.251  1.00  0.00    -0.307 N 
HETATM    7  C   UNL     1     -42.962  57.482 -52.706  1.00  0.00     0.261 C 
HETATM    8  O   UNL     1     -43.813  56.705 -52.293  1.00  0.00    -0.267 OA
HETATM    9  H   UNL     1     -41.081  57.935 -53.455  1.00  0.00     0.170 HD
BRANCH   7  10
HETATM   10  C   UNL     1     -43.198  58.942 -52.627  1.00  0.00     0.076 A 
HETATM   11  C   UNL     1     -42.627  59.634 -51.542  1.00  0.00     0.085 A 
HETATM   12  C   UNL     1     -42.876  60.998 -51.414  1.00  0.00     0.039 A 
HETATM   13  C   UNL     1     -43.684  61.655 -52.347  1.00  0.00     0.015 A 
HETATM   14  C   UNL     1     -44.262  60.967 -53.427  1.00  0.00    -0.025 A 
HETATM   15  C   UNL     1     -44.018  59.584 -53.589  1.00  0.00    -0.007 A 
HETATM   16  C   UNL     1     -45.086  61.644 -54.341  1.00  0.00     0.012 A 
HETATM   17  C   UNL     1     -44.617  58.927 -54.690  1.00  0.00     0.013 A 
HETATM   18  C   UNL     1     -45.435  59.614 -55.589  1.00  0.00     0.001 A 
HETATM   19  C   UNL     1     -45.671  60.971 -55.413  1.00  0.00     0.001 A 
BRANCH  11  20
HETATM   20  O   UNL     1     -41.883  58.893 -50.665  1.00  0.00    -0.350 OA
BRANCH  20  21
HETATM   21  C   UNL     1     -40.743  59.499 -50.064  1.00  0.00     0.171 C 
HETATM   22  C   UNL     1     -39.548  59.221 -50.958  1.00  0.00     0.034 C 
ENDBRANCH  20  21
ENDBRANCH  11  20
ENDBRANCH   7  10
ENDBRANCH   1   6
BRANCH   2  23
HETATM   23  C   UNL     1     -42.013  56.160 -56.039  1.00  0.00     0.732 A 
HETATM   24  N   UNL     1     -41.867  57.446 -56.174  1.00  0.00    -0.067 NA
HETATM   25  C   UNL     1     -42.401  57.950 -57.324  1.00  0.00     0.065 A 
HETATM   26  C   UNL     1     -43.035  57.252 -58.268  1.00  0.00     0.036 A 
HETATM   27  C   UNL     1     -42.332  59.399 -57.677  1.00  0.00     0.061 C 
HETATM   28  C   UNL     1     -43.499  58.078 -59.405  1.00  0.00     0.047 C 
HETATM   29  C   UNL     1     -43.197  55.808 -58.098  1.00  0.00     0.268 A 
HETATM   30  C   UNL     1     -42.762  59.401 -59.152  1.00  0.00     0.011 C 
HETATM   31  O   UNL     1     -43.770  55.107 -58.919  1.00  0.00    -0.267 OA
HETATM   32  N   UNL     1     -42.647  55.334 -56.939  1.00  0.00    -0.152 N 
HETATM   33  H   UNL     1     -42.708  54.342 -56.736  1.00  0.00     0.188 HD
ENDBRANCH   2  23
BRANCH   4  34
HETATM   34  C   UNL     1     -40.302  52.393 -53.520  1.00  0.00     0.105 A 
HETATM   35  O   UNL     1     -39.805  52.008 -52.305  1.00  0.00    -0.320 OA
HETATM   36  C   UNL     1     -39.527  50.681 -52.382  1.00  0.00     0.142 A 
HETATM   37  C   UNL     1     -39.835  50.197 -53.630  1.00  0.00     0.027 A 
HETATM   38  C   UNL     1     -40.332  51.300 -54.367  1.00  0.00     0.041 A 
ENDBRANCH   4  34
TORSDOF 6
ENDMDL
MODEL 6
REMARK VINA RESULT:      -8.7      2.608      6.651
REMARK  6 active torsions:
REMARK  status: ('A' for Active; 'I' for Inactive)
REMARK    1  A    between atoms: C_2  and  O_3 
REMARK    2  A    between atoms: O_3  and  C_4 
REMARK    3  A    between atoms: C_5  and  C_6 
REMARK       I    between atoms: C_6  and  N_7 
REMARK    4  A    between atoms: N_7  and  C_8 
REMARK    5  A    between atoms: N_9  and  C_10 
REMARK    6  A    between atoms: C_21  and  C_22 
ROOT
HETATM    1  C   UNL     1     -42.574  59.354 -52.145  1.00  0.00     0.152 A 
HETATM    2  N   UNL     1     -43.000  60.209 -53.151  1.00  0.00    -0.044 N 
HETATM    3  N   UNL     1     -43.289  61.461 -52.685  1.00  0.00    -0.148 NA
HETATM    4  C   UNL     1     -43.042  61.378 -51.370  1.00  0.00     0.115 A 
HETATM    5  C   UNL     1     -42.628  60.086 -50.983  1.00  0.00     0.087 A 
ENDROOT
BRANCH   1   6
HETATM    6  N   UNL     1     -42.169  58.057 -52.412  1.00  0.00    -0.307 N 
HETATM    7  C   UNL     1     -42.878  56.939 -52.027  1.00  0.00     0.261 C 
HETATM    8  O   UNL     1     -44.020  56.891 -51.589  1.00  0.00    -0.267 OA
HETATM    9  H   UNL     1     -41.259  57.933 -52.861  1.00  0.00     0.170 HD
BRANCH   7  10
HETATM   10  C   UNL     1     -42.107  55.688 -52.211  1.00  0.00     0.076 A 
HETATM   11  C   UNL     1     -42.048  55.147 -53.509  1.00  0.00     0.085 A 
HETATM   12  C   UNL     1     -41.373  53.944 -53.702  1.00  0.00     0.039 A 
HETATM   13  C   UNL     1     -40.778  53.292 -52.618  1.00  0.00     0.015 A 
HETATM   14  C   UNL     1     -40.841  53.823 -51.320  1.00  0.00    -0.025 A 
HETATM   15  C   UNL     1     -41.509  55.050 -51.095  1.00  0.00    -0.007 A 
HETATM   16  C   UNL     1     -40.252  53.140 -50.243  1.00  0.00     0.012 A 
HETATM   17  C   UNL     1     -41.549  55.553 -49.773  1.00  0.00     0.013 A 
HETATM   18  C   UNL     1     -40.960  54.861 -48.714  1.00  0.00     0.001 A 
HETATM   19  C   UNL     1     -40.314  53.654 -48.949  1.00  0.00     0.001 A 
BRANCH  11  20
HETATM   20  O   UNL     1     -42.694  55.844 -54.494  1.00  0.00    -0.350 OA
BRANCH  20  21
HETATM   21  C   UNL     1     -41.992  56.116 -55.704  1.00  0.00     0.171 C 
HETATM   22  C   UNL     1     -42.780  55.495 -56.843  1.00  0.00     0.034 C 
ENDBRANCH  20  21
ENDBRANCH  11  20
ENDBRANCH   7  10
ENDBRANCH   1   6
BRANCH   2  23
HETATM   23  C   UNL     1     -43.145  59.921 -54.522  1.00  0.00     0.732 A 
HETATM   24  N   UNL     1     -44.126  59.212 -55.000  1.00  0.00    -0.067 NA
HETATM   25  C   UNL     1     -44.094  59.057 -56.356  1.00  0.00     0.065 A 
HETATM   26  C   UNL     1     -43.169  59.552 -57.181  1.00  0.00     0.036 A 
HETATM   27  C   UNL     1     -45.132  58.290 -57.104  1.00  0.00     0.061 C 
HETATM   28  C   UNL     1     -43.406  59.219 -58.603  1.00  0.00     0.047 C 
HETATM   29  C   UNL     1     -42.068  60.340 -56.627  1.00  0.00     0.268 A 
HETATM   30  C   UNL     1     -44.841  58.674 -58.562  1.00  0.00     0.011 C 
HETATM   31  O   UNL     1     -41.185  60.819 -57.322  1.00  0.00    -0.267 OA
HETATM   32  N   UNL     1     -42.133  60.480 -55.269  1.00  0.00    -0.152 N 
HETATM   33  H   UNL     1     -41.412  61.015 -54.795  1.00  0.00     0.188 HD
ENDBRANCH   2  23
BRANCH   4  34
HETATM   34  C   UNL     1     -43.173  62.544 -50.450  1.00  0.00     0.105 A 
HETATM   35  O   UNL     1     -42.393  63.666 -50.505  1.00  0.00    -0.320 OA
HETATM   36  C   UNL     1     -42.823  64.507 -49.529  1.00  0.00     0.142 A 
HETATM   37  C   UNL     1     -43.871  63.948 -48.840  1.00  0.00     0.027 A 
HETATM   38  C   UNL     1     -44.097  62.680 -49.430  1.00  0.00     0.041 A 
ENDBRANCH   4  34
TORSDOF 6
ENDMDL
MODEL 7
REMARK VINA RESULT:      -8.6      2.287      7.298
REMARK  6 active torsions:
REMARK  status: ('A' for Active; 'I' for Inactive)
REMARK    1  A    between atoms: C_2  and  O_3 
REMARK    2  A    between atoms: O_3  and  C_4 
REMARK    3  A    between atoms: C_5  and  C_6 
REMARK       I    between atoms: C_6  and  N_7 
REMARK    4  A    between atoms: N_7  and  C_8 
REMARK    5  A    between atoms: N_9  and  C_10 
REMARK    6  A    between atoms: C_21  and  C_22 
ROOT
HETATM    1  C   UNL     1     -41.307  55.435 -55.123  1.00  0.00     0.152 A 
HETATM    2  N   UNL     1     -41.332  55.724 -53.767  1.00  0.00    -0.044 N 
HETATM    3  N   UNL     1     -40.983  54.651 -52.997  1.00  0.00    -0.148 NA
HETATM    4  C   UNL     1     -40.742  53.681 -53.891  1.00  0.00     0.115 A 
HETATM    5  C   UNL     1     -40.960  54.108 -55.217  1.00  0.00     0.087 A 
ENDROOT
BRANCH   1   6
HETATM    6  N   UNL     1     -41.565  56.401 -56.081  1.00  0.00    -0.307 N 
HETATM    7  C   UNL     1     -42.833  56.752 -56.492  1.00  0.00     0.261 C 
HETATM    8  O   UNL     1     -43.900  56.443 -55.976  1.00  0.00    -0.267 OA
HETATM    9  H   UNL     1     -40.761  56.823 -56.550  1.00  0.00     0.170 HD
BRANCH   7  10
HETATM   10  C   UNL     1     -42.820  57.618 -57.693  1.00  0.00     0.076 A 
HETATM   11  C   UNL     1     -42.934  56.991 -58.947  1.00  0.00     0.085 A 
HETATM   12  C   UNL     1     -42.872  57.776 -60.096  1.00  0.00     0.039 A 
HETATM   13  C   UNL     1     -42.692  59.158 -59.992  1.00  0.00     0.015 A 
HETATM   14  C   UNL     1     -42.569  59.788 -58.743  1.00  0.00    -0.025 A 
HETATM   15  C   UNL     1     -42.640  59.018 -57.559  1.00  0.00    -0.007 A 
HETATM   16  C   UNL     1     -42.369  61.176 -58.664  1.00  0.00     0.012 A 
HETATM   17  C   UNL     1     -42.514  59.690 -56.320  1.00  0.00     0.013 A 
HETATM   18  C   UNL     1     -42.313  61.071 -56.259  1.00  0.00     0.001 A 
HETATM   19  C   UNL     1     -42.239  61.812 -57.430  1.00  0.00     0.001 A 
BRANCH  11  20
HETATM   20  O   UNL     1     -43.070  55.629 -58.942  1.00  0.00    -0.350 OA
BRANCH  20  21
HETATM   21  C   UNL     1     -43.843  55.022 -59.973  1.00  0.00     0.171 C 
HETATM   22  C   UNL     1     -44.587  53.849 -59.361  1.00  0.00     0.034 C 
ENDBRANCH  20  21
ENDBRANCH  11  20
ENDBRANCH   7  10
ENDBRANCH   1   6
BRANCH   2  23
HETATM   23  C   UNL     1     -41.658  56.950 -53.153  1.00  0.00     0.732 A 
HETATM   24  N   UNL     1     -42.883  57.345 -52.961  1.00  0.00    -0.067 NA
HETATM   25  C   UNL     1     -42.987  58.556 -52.339  1.00  0.00     0.065 A 
HETATM   26  C   UNL     1     -41.972  59.325 -51.943  1.00  0.00     0.036 A 
HETATM   27  C   UNL     1     -44.301  59.185 -52.015  1.00  0.00     0.061 C 
HETATM   28  C   UNL     1     -42.401  60.583 -51.292  1.00  0.00     0.047 C 
HETATM   29  C   UNL     1     -40.601  58.869 -52.173  1.00  0.00     0.268 A 
HETATM   30  C   UNL     1     -43.898  60.325 -51.069  1.00  0.00     0.011 C 
HETATM   31  O   UNL     1     -39.624  59.523 -51.840  1.00  0.00    -0.267 OA
HETATM   32  N   UNL     1     -40.531  57.652 -52.792  1.00  0.00    -0.152 N 
HETATM   33  H   UNL     1     -39.619  57.253 -52.991  1.00  0.00     0.188 HD
ENDBRANCH   2  23
BRANCH   4  34
HETATM   34  C   UNL     1     -40.273  52.321 -53.498  1.00  0.00     0.105 A 
HETATM   35  O   UNL     1     -39.823  51.986 -52.250  1.00  0.00    -0.320 OA
HETATM   36  C   UNL     1     -39.508  50.666 -52.273  1.00  0.00     0.142 A 
HETATM   37  C   UNL     1     -39.745  50.136 -53.518  1.00  0.00     0.027 A 
HETATM   38  C   UNL     1     -40.236  51.203 -54.311  1.00  0.00     0.041 A 
ENDBRANCH   4  34
TORSDOF 6
ENDMDL
MODEL 8
REMARK VINA RESULT:      -8.6      2.320      7.403
REMARK  6 active torsions:
REMARK  status: ('A' for Active; 'I' for Inactive)
REMARK    1  A    between atoms: C_2  and  O_3 
REMARK    2  A    between atoms: O_3  and  C_4 
REMARK    3  A    between atoms: C_5  and  C_6 
REMARK       I    between atoms: C_6  and  N_7 
REMARK    4  A    between atoms: N_7  and  C_8 
REMARK    5  A    between atoms: N_9  and  C_10 
REMARK    6  A    between atoms: C_21  and  C_22 
ROOT
HETATM    1  C   UNL     1     -43.024  55.384 -54.649  1.00  0.00     0.152 A 
HETATM    2  N   UNL     1     -42.683  55.774 -53.362  1.00  0.00    -0.044 N 
HETATM    3  N   UNL     1     -41.852  54.879 -52.748  1.00  0.00    -0.148 NA
HETATM    4  C   UNL     1     -41.679  53.920 -53.668  1.00  0.00     0.115 A 
HETATM    5  C   UNL     1     -42.410  54.171 -54.849  1.00  0.00     0.087 A 
ENDROOT
BRANCH   1   6
HETATM    6  N   UNL     1     -43.806  56.179 -55.470  1.00  0.00    -0.307 N 
HETATM    7  C   UNL     1     -43.310  57.217 -56.229  1.00  0.00     0.261 C 
HETATM    8  O   UNL     1     -42.137  57.479 -56.462  1.00  0.00    -0.267 OA
HETATM    9  H   UNL     1     -44.816  56.022 -55.451  1.00  0.00     0.170 HD
BRANCH   7  10
HETATM   10  C   UNL     1     -44.382  58.056 -56.812  1.00  0.00     0.076 A 
HETATM   11  C   UNL     1     -44.918  57.657 -58.051  1.00  0.00     0.085 A 
HETATM   12  C   UNL     1     -45.891  58.456 -58.647  1.00  0.00     0.039 A 
HETATM   13  C   UNL     1     -46.313  59.632 -58.021  1.00  0.00     0.015 A 
HETATM   14  C   UNL     1     -45.775  60.039 -56.789  1.00  0.00    -0.025 A 
HETATM   15  C   UNL     1     -44.795  59.242 -56.154  1.00  0.00    -0.007 A 
HETATM   16  C   UNL     1     -46.201  61.235 -56.188  1.00  0.00     0.012 A 
HETATM   17  C   UNL     1     -44.279  59.685 -54.912  1.00  0.00     0.013 A 
HETATM   18  C   UNL     1     -44.712  60.878 -54.329  1.00  0.00     0.001 A 
HETATM   19  C   UNL     1     -45.671  61.652 -54.968  1.00  0.00     0.001 A 
BRANCH  11  20
HETATM   20  O   UNL     1     -44.411  56.509 -58.597  1.00  0.00    -0.350 OA
BRANCH  20  21
HETATM   21  C   UNL     1     -43.954  56.547 -59.946  1.00  0.00     0.171 C 
HETATM   22  C   UNL     1     -42.455  56.787 -59.918  1.00  0.00     0.034 C 
ENDBRANCH  20  21
ENDBRANCH  11  20
ENDBRANCH   7  10
ENDBRANCH   1   6
BRANCH   2  23
HETATM   23  C   UNL     1     -43.087  56.938 -52.679  1.00  0.00     0.732 A 
HETATM   24  N   UNL     1     -44.312  57.147 -52.292  1.00  0.00    -0.067 NA
HETATM   25  C   UNL     1     -44.496  58.329 -51.636  1.00  0.00     0.065 A 
HETATM   26  C   UNL     1     -43.555  59.241 -51.383  1.00  0.00     0.036 A 
HETATM   27  C   UNL     1     -45.822  58.756 -51.101  1.00  0.00     0.061 C 
HETATM   28  C   UNL     1     -44.059  60.422 -50.647  1.00  0.00     0.047 C 
HETATM   29  C   UNL     1     -42.185  58.994 -51.831  1.00  0.00     0.268 A 
HETATM   30  C   UNL     1     -45.449  59.945 -50.203  1.00  0.00     0.011 C 
HETATM   31  O   UNL     1     -41.275  59.787 -51.638  1.00  0.00    -0.267 OA
HETATM   32  N   UNL     1     -42.034  57.801 -52.480  1.00  0.00    -0.152 N 
HETATM   33  H   UNL     1     -41.115  57.541 -52.825  1.00  0.00     0.188 HD
ENDBRANCH   2  23
BRANCH   4  34
HETATM   34  C   UNL     1     -40.788  52.744 -53.449  1.00  0.00     0.105 A 
HETATM   35  O   UNL     1     -40.101  52.497 -52.293  1.00  0.00    -0.320 OA
HETATM   36  C   UNL     1     -39.422  51.334 -52.464  1.00  0.00     0.142 A 
HETATM   37  C   UNL     1     -39.658  50.820 -53.716  1.00  0.00     0.027 A 
HETATM   38  C   UNL     1     -40.537  51.729 -54.354  1.00  0.00     0.041 A 
ENDBRANCH   4  34
TORSDOF 6
ENDMDL
MODEL 9
REMARK VINA RESULT:      -8.4      2.669      7.190
REMARK  6 active torsions:
REMARK  status: ('A' for Active; 'I' for Inactive)
REMARK    1  A    between atoms: C_2  and  O_3 
REMARK    2  A    between atoms: O_3  and  C_4 
REMARK    3  A    between atoms: C_5  and  C_6 
REMARK       I    between atoms: C_6  and  N_7 
REMARK    4  A    between atoms: N_7  and  C_8 
REMARK    5  A    between atoms: N_9  and  C_10 
REMARK    6  A    between atoms: C_21  and  C_22 
ROOT
HETATM    1  C   UNL     1     -41.684  56.786 -53.414  1.00  0.00     0.152 A 
HETATM    2  N   UNL     1     -42.191  56.951 -52.134  1.00  0.00    -0.044 N 
HETATM    3  N   UNL     1     -41.954  55.869 -51.334  1.00  0.00    -0.148 NA
HETATM    4  C   UNL     1     -41.294  55.019 -52.133  1.00  0.00     0.115 A 
HETATM    5  C   UNL     1     -41.130  55.528 -53.439  1.00  0.00     0.087 A 
ENDROOT
BRANCH   1   6
HETATM    6  N   UNL     1     -41.758  57.790 -54.365  1.00  0.00    -0.307 N 
HETATM    7  C   UNL     1     -42.839  57.976 -55.199  1.00  0.00     0.261 C 
HETATM    8  O   UNL     1     -43.943  57.452 -55.121  1.00  0.00    -0.267 OA
HETATM    9  H   UNL     1     -40.932  58.378 -54.491  1.00  0.00     0.170 HD
BRANCH   7  10
HETATM   10  C   UNL     1     -42.560  58.949 -56.280  1.00  0.00     0.076 A 
HETATM   11  C   UNL     1     -42.462  60.306 -55.922  1.00  0.00     0.085 A 
HETATM   12  C   UNL     1     -42.252  61.249 -56.925  1.00  0.00     0.039 A 
HETATM   13  C   UNL     1     -42.151  60.843 -58.259  1.00  0.00     0.015 A 
HETATM   14  C   UNL     1     -42.257  59.491 -58.623  1.00  0.00    -0.025 A 
HETATM   15  C   UNL     1     -42.458  58.510 -57.624  1.00  0.00    -0.007 A 
HETATM   16  C   UNL     1     -42.171  59.109 -59.972  1.00  0.00     0.012 A 
HETATM   17  C   UNL     1     -42.558  57.158 -58.030  1.00  0.00     0.013 A 
HETATM   18  C   UNL     1     -42.472  56.795 -59.376  1.00  0.00     0.001 A 
HETATM   19  C   UNL     1     -42.281  57.771 -60.346  1.00  0.00     0.001 A 
BRANCH  11  20
HETATM   20  O   UNL     1     -42.612  60.603 -54.594  1.00  0.00    -0.350 OA
BRANCH  20  21
HETATM   21  C   UNL     1     -43.550  61.611 -54.228  1.00  0.00     0.171 C 
HETATM   22  C   UNL     1     -44.918  60.959 -54.146  1.00  0.00     0.034 C 
ENDBRANCH  20  21
ENDBRANCH  11  20
ENDBRANCH   7  10
ENDBRANCH   1   6
BRANCH   2  23
HETATM   23  C   UNL     1     -42.878  58.067 -51.617  1.00  0.00     0.732 A 
HETATM   24  N   UNL     1     -42.306  59.215 -51.394  1.00  0.00    -0.067 NA
HETATM   25  C   UNL     1     -43.147  60.171 -50.903  1.00  0.00     0.065 A 
HETATM   26  C   UNL     1     -44.446  60.016 -50.643  1.00  0.00     0.036 A 
HETATM   27  C   UNL     1     -42.694  61.558 -50.591  1.00  0.00     0.061 C 
HETATM   28  C   UNL     1     -45.096  61.238 -50.122  1.00  0.00     0.047 C 
HETATM   29  C   UNL     1     -45.073  58.717 -50.892  1.00  0.00     0.268 A 
HETATM   30  C   UNL     1     -44.023  62.303 -50.393  1.00  0.00     0.011 C 
HETATM   31  O   UNL     1     -46.256  58.502 -50.673  1.00  0.00    -0.267 OA
HETATM   32  N   UNL     1     -44.205  57.784 -51.387  1.00  0.00    -0.152 N 
HETATM   33  H   UNL     1     -44.551  56.852 -51.594  1.00  0.00     0.188 HD
ENDBRANCH   2  23
BRANCH   4  34
HETATM   34  C   UNL     1     -40.779  53.702 -51.660  1.00  0.00     0.105 A 
HETATM   35  O   UNL     1     -40.888  53.243 -50.375  1.00  0.00    -0.320 OA
HETATM   36  C   UNL     1     -40.326  52.008 -50.336  1.00  0.00     0.142 A 
HETATM   37  C   UNL     1     -39.852  51.656 -51.577  1.00  0.00     0.027 A 
HETATM   38  C   UNL     1     -40.141  52.748 -52.431  1.00  0.00     0.041 A 
ENDBRANCH   4  34
TORSDOF 6
ENDMDL
MODEL 10
REMARK VINA RESULT:      -8.4      2.110      6.962
REMARK  6 active torsions:
REMARK  status: ('A' for Active; 'I' for Inactive)
REMARK    1  A    between atoms: C_2  and  O_3 
REMARK    2  A    between atoms: O_3  and  C_4 
REMARK    3  A    between atoms: C_5  and  C_6 
REMARK       I    between atoms: C_6  and  N_7 
REMARK    4  A    between atoms: N_7  and  C_8 
REMARK    5  A    between atoms: N_9  and  C_10 
REMARK    6  A    between atoms: C_21  and  C_22 
ROOT
HETATM    1  C   UNL     1     -43.067  55.300 -54.936  1.00  0.00     0.152 A 
HETATM    2  N   UNL     1     -42.658  55.832 -53.722  1.00  0.00    -0.044 N 
HETATM    3  N   UNL     1     -41.802  55.005 -53.050  1.00  0.00    -0.148 NA
HETATM    4  C   UNL     1     -41.683  53.943 -53.859  1.00  0.00     0.115 A 
HETATM    5  C   UNL     1     -42.471  54.064 -55.023  1.00  0.00     0.087 A 
ENDROOT
BRANCH   1   6
HETATM    6  N   UNL     1     -43.884  56.003 -55.804  1.00  0.00    -0.307 N 
HETATM    7  C   UNL     1     -43.413  56.852 -56.782  1.00  0.00     0.261 C 
HETATM    8  O   UNL     1     -42.259  56.974 -57.174  1.00  0.00    -0.267 OA
HETATM    9  H   UNL     1     -44.894  55.934 -55.657  1.00  0.00     0.170 HD
BRANCH   7  10
HETATM   10  C   UNL     1     -44.488  57.663 -57.396  1.00  0.00     0.076 A 
HETATM   11  C   UNL     1     -44.829  58.874 -56.766  1.00  0.00     0.085 A 
HETATM   12  C   UNL     1     -45.872  59.632 -57.292  1.00  0.00     0.039 A 
HETATM   13  C   UNL     1     -46.566  59.183 -58.419  1.00  0.00     0.015 A 
HETATM   14  C   UNL     1     -46.236  57.971 -59.047  1.00  0.00    -0.025 A 
HETATM   15  C   UNL     1     -45.173  57.186 -58.543  1.00  0.00    -0.007 A 
HETATM   16  C   UNL     1     -46.960  57.531 -60.168  1.00  0.00     0.012 A 
HETATM   17  C   UNL     1     -44.870  55.972 -59.205  1.00  0.00     0.013 A 
HETATM   18  C   UNL     1     -45.601  55.548 -60.316  1.00  0.00     0.001 A 
HETATM   19  C   UNL     1     -46.646  56.327 -60.796  1.00  0.00     0.001 A 
BRANCH  11  20
HETATM   20  O   UNL     1     -44.114  59.205 -55.647  1.00  0.00    -0.350 OA
BRANCH  20  21
HETATM   21  C   UNL     1     -43.522  60.500 -55.580  1.00  0.00     0.171 C 
HETATM   22  C   UNL     1     -42.125  60.399 -56.165  1.00  0.00     0.034 C 
ENDBRANCH  20  21
ENDBRANCH  11  20
ENDBRANCH   7  10
ENDBRANCH   1   6
BRANCH   2  23
HETATM   23  C   UNL     1     -43.019  57.072 -53.161  1.00  0.00     0.732 A 
HETATM   24  N   UNL     1     -44.226  57.347 -52.758  1.00  0.00    -0.067 NA
HETATM   25  C   UNL     1     -44.368  58.598 -52.233  1.00  0.00     0.065 A 
HETATM   26  C   UNL     1     -43.405  59.515 -52.116  1.00  0.00     0.036 A 
HETATM   27  C   UNL     1     -45.668  59.108 -51.704  1.00  0.00     0.061 C 
HETATM   28  C   UNL     1     -43.864  60.780 -51.500  1.00  0.00     0.047 C 
HETATM   29  C   UNL     1     -42.056  59.193 -52.580  1.00  0.00     0.268 A 
HETATM   30  C   UNL     1     -45.244  60.382 -50.958  1.00  0.00     0.011 C 
HETATM   31  O   UNL     1     -41.127  59.985 -52.507  1.00  0.00    -0.267 OA
HETATM   32  N   UNL     1     -41.947  57.932 -53.095  1.00  0.00    -0.152 N 
HETATM   33  H   UNL     1     -41.045  57.618 -53.440  1.00  0.00     0.188 HD
ENDBRANCH   2  23
BRANCH   4  34
HETATM   34  C   UNL     1     -40.789  52.790 -53.549  1.00  0.00     0.105 A 
HETATM   35  O   UNL     1     -40.461  51.803 -54.437  1.00  0.00    -0.320 OA
HETATM   36  C   UNL     1     -39.618  50.949 -53.801  1.00  0.00     0.142 A 
HETATM   37  C   UNL     1     -39.393  51.366 -52.512  1.00  0.00     0.027 A 
HETATM   38  C   UNL     1     -40.150  52.552 -52.346  1.00  0.00     0.041 A 
ENDBRANCH   4  34
TORSDOF 6
ENDMDL
