MODEL 1
REMARK VINA RESULT:      -8.9      0.000      0.000
REMARK  6 active torsions:
REMARK  status: ('A' for Active; 'I' for Inactive)
REMARK    1  A    between atoms: C_5  and  N_6 
REMARK       I    between atoms: N_6  and  C_7 
REMARK    2  A    between atoms: C_7  and  C_8 
REMARK    3  A    between atoms: C_8  and  N_9 
REMARK    4  A    between atoms: C_8  and  C_17 
REMARK       I    between atoms: N_9  and  C_10 
REMARK    5  A    between atoms: C_10  and  C_11 
REMARK    6  A    between atoms: C_17  and  C_18 
ROOT
HETATM    1  C   UNL     1     -42.848  56.578 -55.427  1.00  0.00     0.181 C 
ENDROOT
BRANCH   1   2
HETATM    2  C   UNL     1     -42.657  55.332 -54.530  1.00  0.00     0.245 C 
HETATM    3  N   UNL     1     -41.353  55.110 -54.131  1.00  0.00    -0.325 N 
HETATM    4  H   UNL     1     -40.694  55.867 -54.319  1.00  0.00     0.169 HD
HETATM    5  O   UNL     1     -43.632  54.651 -54.213  1.00  0.00    -0.271 OA
BRANCH   3   6
HETATM    6  C   UNL     1     -40.832  53.993 -53.452  1.00  0.00     0.034 A 
HETATM    7  C   UNL     1     -40.707  53.907 -52.065  1.00  0.00     0.030 A 
HETATM    8  C   UNL     1     -40.207  52.745 -51.467  1.00  0.00     0.009 A 
HETATM    9  C   UNL     1     -39.822  51.649 -52.246  1.00  0.00    -0.062 A 
HETATM   10  C   UNL     1     -39.335  50.387 -51.600  1.00  0.00     0.048 C 
HETATM   11  C   UNL     1     -39.960  51.729 -53.634  1.00  0.00     0.009 A 
HETATM   12  C   UNL     1     -40.453  52.894 -54.231  1.00  0.00     0.030 A 
ENDBRANCH   3   6
ENDBRANCH   1   2
BRANCH   1  13
HETATM   13  N   UNL     1     -43.604  56.235 -56.638  1.00  0.00    -0.342 N 
HETATM   14  C   UNL     1     -43.306  56.693 -57.900  1.00  0.00     0.276 C 
HETATM   15  O   UNL     1     -42.430  57.535 -58.095  1.00  0.00    -0.265 OA
HETATM   16  H   UNL     1     -44.362  55.566 -56.559  1.00  0.00     0.163 HD
BRANCH  14  17
HETATM   17  C   UNL     1     -44.096  56.094 -58.952  1.00  0.00     0.142 A 
HETATM   18  O   UNL     1     -45.273  56.690 -59.333  1.00  0.00    -0.317 OA
HETATM   19  C   UNL     1     -45.816  55.915 -60.307  1.00  0.00     0.143 A 
HETATM   20  C   UNL     1     -45.012  54.831 -60.567  1.00  0.00     0.027 A 
HETATM   21  C   UNL     1     -43.902  54.945 -59.695  1.00  0.00     0.045 A 
ENDBRANCH  14  17
ENDBRANCH   1  13
BRANCH   1  22
HETATM   22  C   UNL     1     -43.425  57.798 -54.689  1.00  0.00     0.075 C 
BRANCH  22  23
HETATM   23  C   UNL     1     -43.148  57.895 -53.216  1.00  0.00    -0.028 A 
HETATM   24  C   UNL     1     -41.891  58.304 -52.654  1.00  0.00    -0.002 A 
HETATM   25  C   UNL     1     -42.029  58.311 -51.266  1.00  0.00     0.042 A 
HETATM   26  C   UNL     1     -40.649  58.679 -53.207  1.00  0.00     0.014 A 
HETATM   27  C   UNL     1     -40.990  58.677 -50.403  1.00  0.00     0.030 A 
HETATM   28  N   UNL     1     -43.315  57.917 -50.989  1.00  0.00    -0.365 N 
HETATM   29  C   UNL     1     -39.769  59.044 -50.978  1.00  0.00     0.002 A 
HETATM   30  C   UNL     1     -39.597  59.044 -52.359  1.00  0.00     0.001 A 
HETATM   31  H   UNL     1     -43.704  57.840 -50.060  1.00  0.00     0.165 HD
HETATM   32  C   UNL     1     -43.994  57.657 -52.151  1.00  0.00     0.096 A 
ENDBRANCH  22  23
ENDBRANCH   1  22
TORSDOF 6
ENDMDL
MODEL 2
REMARK VINA RESULT:      -8.4      2.102      6.380
REMARK  6 active torsions:
REMARK  status: ('A' for Active; 'I' for Inactive)
REMARK    1  A    between atoms: C_5  and  N_6 
REMARK       I    between atoms: N_6  and  C_7 
REMARK    2  A    between atoms: C_7  and  C_8 
REMARK    3  A    between atoms: C_8  and  N_9 
REMARK    4  A    between atoms: C_8  and  C_17 
REMARK       I    between atoms: N_9  and  C_10 
REMARK    5  A    between atoms: C_10  and  C_11 
REMARK    6  A    between atoms: C_17  and  C_18 
ROOT
HETATM    1  C   UNL     1     -42.311  55.422 -53.140  1.00  0.00     0.181 C 
ENDROOT
BRANCH   1   2
HETATM    2  C   UNL     1     -42.964  56.313 -52.057  1.00  0.00     0.245 C 
HETATM    3  N   UNL     1     -43.093  57.642 -52.414  1.00  0.00    -0.325 N 
HETATM    4  H   UNL     1     -42.911  57.861 -53.393  1.00  0.00     0.169 HD
HETATM    5  O   UNL     1     -43.339  55.812 -50.997  1.00  0.00    -0.271 OA
BRANCH   3   6
HETATM    6  C   UNL     1     -43.497  58.721 -51.605  1.00  0.00     0.034 A 
HETATM    7  C   UNL     1     -44.812  58.948 -51.201  1.00  0.00     0.030 A 
HETATM    8  C   UNL     1     -45.123  60.029 -50.368  1.00  0.00     0.009 A 
HETATM    9  C   UNL     1     -44.124  60.903 -49.928  1.00  0.00    -0.062 A 
HETATM   10  C   UNL     1     -44.453  62.031 -48.996  1.00  0.00     0.048 C 
HETATM   11  C   UNL     1     -42.804  60.668 -50.321  1.00  0.00     0.009 A 
HETATM   12  C   UNL     1     -42.496  59.591 -51.159  1.00  0.00     0.030 A 
ENDBRANCH   3   6
ENDBRANCH   1   2
BRANCH   1  13
HETATM   13  N   UNL     1     -42.552  55.972 -54.480  1.00  0.00    -0.342 N 
HETATM   14  C   UNL     1     -42.883  55.222 -55.584  1.00  0.00     0.276 C 
HETATM   15  O   UNL     1     -42.890  53.992 -55.554  1.00  0.00    -0.265 OA
HETATM   16  H   UNL     1     -42.538  56.980 -54.597  1.00  0.00     0.163 HD
BRANCH  14  17
HETATM   17  C   UNL     1     -43.225  56.001 -56.753  1.00  0.00     0.142 A 
HETATM   18  O   UNL     1     -43.708  57.276 -56.595  1.00  0.00    -0.317 OA
HETATM   19  C   UNL     1     -43.967  57.762 -57.836  1.00  0.00     0.143 A 
HETATM   20  C   UNL     1     -43.659  56.827 -58.795  1.00  0.00     0.027 A 
HETATM   21  C   UNL     1     -43.178  55.692 -58.099  1.00  0.00     0.045 A 
ENDBRANCH  14  17
ENDBRANCH   1  13
BRANCH   1  22
HETATM   22  C   UNL     1     -40.827  55.109 -52.883  1.00  0.00     0.075 C 
BRANCH  22  23
HETATM   23  C   UNL     1     -40.520  53.847 -52.130  1.00  0.00    -0.028 A 
HETATM   24  C   UNL     1     -40.268  52.575 -52.750  1.00  0.00    -0.002 A 
HETATM   25  C   UNL     1     -39.981  51.660 -51.738  1.00  0.00     0.042 A 
HETATM   26  C   UNL     1     -40.247  52.127 -54.086  1.00  0.00     0.014 A 
HETATM   27  C   UNL     1     -39.673  50.318 -51.995  1.00  0.00     0.030 A 
HETATM   28  N   UNL     1     -40.061  52.339 -50.548  1.00  0.00    -0.365 N 
HETATM   29  C   UNL     1     -39.661  49.900 -53.329  1.00  0.00     0.002 A 
HETATM   30  C   UNL     1     -39.945  50.789 -54.362  1.00  0.00     0.001 A 
HETATM   31  H   UNL     1     -39.890  51.929 -49.640  1.00  0.00     0.165 HD
HETATM   32  C   UNL     1     -40.391  53.651 -50.769  1.00  0.00     0.096 A 
ENDBRANCH  22  23
ENDBRANCH   1  22
TORSDOF 6
ENDMDL
MODEL 3
REMARK VINA RESULT:      -8.4      2.786      7.171
REMARK  6 active torsions:
REMARK  status: ('A' for Active; 'I' for Inactive)
REMARK    1  A    between atoms: C_5  and  N_6 
REMARK       I    between atoms: N_6  and  C_7 
REMARK    2  A    between atoms: C_7  and  C_8 
REMARK    3  A    between atoms: C_8  and  N_9 
REMARK    4  A    between atoms: C_8  and  C_17 
REMARK       I    between atoms: N_9  and  C_10 
REMARK    5  A    between atoms: C_10  and  C_11 
REMARK    6  A    between atoms: C_17  and  C_18 
ROOT
HETATM    1  C   UNL     1     -41.897  57.011 -51.613  1.00  0.00     0.181 C 
ENDROOT
BRANCH   1   2
HETATM    2  C   UNL     1     -41.641  57.113 -53.136  1.00  0.00     0.245 C 
HETATM    3  N   UNL     1     -42.757  56.882 -53.918  1.00  0.00    -0.325 N 
HETATM    4  H   UNL     1     -43.648  56.841 -53.424  1.00  0.00     0.169 HD
HETATM    5  O   UNL     1     -40.520  57.405 -53.549  1.00  0.00    -0.271 OA
BRANCH   3   6
HETATM    6  C   UNL     1     -42.821  56.749 -55.318  1.00  0.00     0.034 A 
HETATM    7  C   UNL     1     -42.741  57.817 -56.211  1.00  0.00     0.030 A 
HETATM    8  C   UNL     1     -42.781  57.593 -57.592  1.00  0.00     0.009 A 
HETATM    9  C   UNL     1     -42.905  56.297 -58.103  1.00  0.00    -0.062 A 
HETATM   10  C   UNL     1     -42.897  56.056 -59.583  1.00  0.00     0.048 C 
HETATM   11  C   UNL     1     -42.971  55.226 -57.209  1.00  0.00     0.009 A 
HETATM   12  C   UNL     1     -42.938  55.451 -55.829  1.00  0.00     0.030 A 
ENDBRANCH   3   6
ENDBRANCH   1   2
BRANCH   1  13
HETATM   13  N   UNL     1     -42.630  58.188 -51.130  1.00  0.00    -0.342 N 
HETATM   14  C   UNL     1     -42.069  59.426 -50.923  1.00  0.00     0.276 C 
HETATM   15  O   UNL     1     -40.857  59.614 -51.022  1.00  0.00    -0.265 OA
HETATM   16  H   UNL     1     -43.633  58.110 -50.996  1.00  0.00     0.163 HD
BRANCH  14  17
HETATM   17  C   UNL     1     -43.021  60.464 -50.595  1.00  0.00     0.142 A 
HETATM   18  O   UNL     1     -44.349  60.143 -50.464  1.00  0.00    -0.317 OA
HETATM   19  C   UNL     1     -45.013  61.294 -50.184  1.00  0.00     0.143 A 
HETATM   20  C   UNL     1     -44.140  62.354 -50.130  1.00  0.00     0.027 A 
HETATM   21  C   UNL     1     -42.855  61.821 -50.392  1.00  0.00     0.045 A 
ENDBRANCH  14  17
ENDBRANCH   1  13
BRANCH   1  22
HETATM   22  C   UNL     1     -42.543  55.686 -51.174  1.00  0.00     0.075 C 
BRANCH  22  23
HETATM   23  C   UNL     1     -41.614  54.543 -50.878  1.00  0.00    -0.028 A 
HETATM   24  C   UNL     1     -41.086  53.650 -51.871  1.00  0.00    -0.002 A 
HETATM   25  C   UNL     1     -40.235  52.754 -51.226  1.00  0.00     0.042 A 
HETATM   26  C   UNL     1     -41.251  53.534 -53.267  1.00  0.00     0.014 A 
HETATM   27  C   UNL     1     -39.538  51.748 -51.906  1.00  0.00     0.030 A 
HETATM   28  N   UNL     1     -40.246  53.078 -49.893  1.00  0.00    -0.365 N 
HETATM   29  C   UNL     1     -39.721  51.654 -53.289  1.00  0.00     0.002 A 
HETATM   30  C   UNL     1     -40.565  52.532 -53.963  1.00  0.00     0.001 A 
HETATM   31  H   UNL     1     -39.709  52.603 -49.181  1.00  0.00     0.165 HD
HETATM   32  C   UNL     1     -41.076  54.147 -49.670  1.00  0.00     0.096 A 
ENDBRANCH  22  23
ENDBRANCH   1  22
TORSDOF 6
ENDMDL
MODEL 4
REMARK VINA RESULT:      -8.2      2.059      6.414
REMARK  6 active torsions:
REMARK  status: ('A' for Active; 'I' for Inactive)
REMARK    1  A    between atoms: C_5  and  N_6 
REMARK       I    between atoms: N_6  and  C_7 
REMARK    2  A    between atoms: C_7  and  C_8 
REMARK    3  A    between atoms: C_8  and  N_9 
REMARK    4  A    between atoms: C_8  and  C_17 
REMARK       I    between atoms: N_9  and  C_10 
REMARK    5  A    between atoms: C_10  and  C_11 
REMARK    6  A    between atoms: C_17  and  C_18 
ROOT
HETATM    1  C   UNL     1     -42.804  56.528 -54.571  1.00  0.00     0.181 C 
ENDROOT
BRANCH   1   2
HETATM    2  C   UNL     1     -42.583  55.126 -53.955  1.00  0.00     0.245 C 
HETATM    3  N   UNL     1     -41.257  54.748 -53.860  1.00  0.00    -0.325 N 
HETATM    4  H   UNL     1     -40.570  55.480 -54.039  1.00  0.00     0.169 HD
HETATM    5  O   UNL     1     -43.550  54.465 -53.577  1.00  0.00    -0.271 OA
BRANCH   3   6
HETATM    6  C   UNL     1     -40.739  53.490 -53.496  1.00  0.00     0.034 A 
HETATM    7  C   UNL     1     -40.316  53.161 -52.209  1.00  0.00     0.030 A 
HETATM    8  C   UNL     1     -39.842  51.875 -51.924  1.00  0.00     0.009 A 
HETATM    9  C   UNL     1     -39.781  50.898 -52.923  1.00  0.00    -0.062 A 
HETATM   10  C   UNL     1     -39.320  49.507 -52.603  1.00  0.00     0.048 C 
HETATM   11  C   UNL     1     -40.217  51.224 -54.209  1.00  0.00     0.009 A 
HETATM   12  C   UNL     1     -40.684  52.511 -54.494  1.00  0.00     0.030 A 
ENDBRANCH   3   6
ENDBRANCH   1   2
BRANCH   1  13
HETATM   13  N   UNL     1     -42.457  57.580 -53.606  1.00  0.00    -0.342 N 
HETATM   14  C   UNL     1     -43.281  58.012 -52.594  1.00  0.00     0.276 C 
HETATM   15  O   UNL     1     -44.442  57.619 -52.489  1.00  0.00    -0.265 OA
HETATM   16  H   UNL     1     -41.525  57.977 -53.642  1.00  0.00     0.163 HD
BRANCH  14  17
HETATM   17  C   UNL     1     -42.659  58.945 -51.679  1.00  0.00     0.142 A 
HETATM   18  O   UNL     1     -41.503  58.585 -51.033  1.00  0.00    -0.317 OA
HETATM   19  C   UNL     1     -41.157  59.622 -50.227  1.00  0.00     0.143 A 
HETATM   20  C   UNL     1     -42.065  60.647 -50.341  1.00  0.00     0.027 A 
HETATM   21  C   UNL     1     -43.034  60.213 -51.278  1.00  0.00     0.045 A 
ENDBRANCH  14  17
ENDBRANCH   1  13
BRANCH   1  22
HETATM   22  C   UNL     1     -42.126  56.726 -55.937  1.00  0.00     0.075 C 
BRANCH  22  23
HETATM   23  C   UNL     1     -42.944  57.382 -57.013  1.00  0.00    -0.028 A 
HETATM   24  C   UNL     1     -43.496  56.692 -58.145  1.00  0.00    -0.002 A 
HETATM   25  C   UNL     1     -44.221  57.617 -58.893  1.00  0.00     0.042 A 
HETATM   26  C   UNL     1     -43.449  55.355 -58.592  1.00  0.00     0.014 A 
HETATM   27  C   UNL     1     -44.906  57.274 -60.066  1.00  0.00     0.030 A 
HETATM   28  N   UNL     1     -44.114  58.826 -58.251  1.00  0.00    -0.365 N 
HETATM   29  C   UNL     1     -44.842  55.942 -60.487  1.00  0.00     0.002 A 
HETATM   30  C   UNL     1     -44.124  54.995 -59.764  1.00  0.00     0.001 A 
HETATM   31  H   UNL     1     -44.550  59.682 -58.562  1.00  0.00     0.165 HD
HETATM   32  C   UNL     1     -43.343  58.699 -57.124  1.00  0.00     0.096 A 
ENDBRANCH  22  23
ENDBRANCH   1  22
TORSDOF 6
ENDMDL
MODEL 5
REMARK VINA RESULT:      -8.1      2.261      6.315
REMARK  6 active torsions:
REMARK  status: ('A' for Active; 'I' for Inactive)
REMARK    1  A    between atoms: C_5  and  N_6 
REMARK       I    between atoms: N_6  and  C_7 
REMARK    2  A    between atoms: C_7  and  C_8 
REMARK    3  A    between atoms: C_8  and  N_9 
REMARK    4  A    between atoms: C_8  and  C_17 
REMARK       I    between atoms: N_9  and  C_10 
REMARK    5  A    between atoms: C_10  and  C_11 
REMARK    6  A    between atoms: C_17  and  C_18 
ROOT
HETATM    1  C   UNL     1     -42.670  56.417 -54.278  1.00  0.00     0.181 C 
ENDROOT
BRANCH   1   2
HETATM    2  C   UNL     1     -42.505  55.065 -53.543  1.00  0.00     0.245 C 
HETATM    3  N   UNL     1     -41.193  54.701 -53.306  1.00  0.00    -0.325 N 
HETATM    4  H   UNL     1     -40.492  55.422 -53.478  1.00  0.00     0.169 HD
HETATM    5  O   UNL     1     -43.502  54.429 -53.202  1.00  0.00    -0.271 OA
BRANCH   3   6
HETATM    6  C   UNL     1     -40.710  53.477 -52.806  1.00  0.00     0.034 A 
HETATM    7  C   UNL     1     -40.215  52.446 -53.605  1.00  0.00     0.030 A 
HETATM    8  C   UNL     1     -39.724  51.270 -53.024  1.00  0.00     0.009 A 
HETATM    9  C   UNL     1     -39.722  51.106 -51.635  1.00  0.00    -0.062 A 
HETATM   10  C   UNL     1     -39.149  49.868 -51.015  1.00  0.00     0.048 C 
HETATM   11  C   UNL     1     -40.205  52.144 -50.835  1.00  0.00     0.009 A 
HETATM   12  C   UNL     1     -40.702  53.315 -51.417  1.00  0.00     0.030 A 
ENDBRANCH   3   6
ENDBRANCH   1   2
BRANCH   1  13
HETATM   13  N   UNL     1     -42.428  57.538 -53.362  1.00  0.00    -0.342 N 
HETATM   14  C   UNL     1     -43.361  58.048 -52.490  1.00  0.00     0.276 C 
HETATM   15  O   UNL     1     -44.531  57.666 -52.494  1.00  0.00    -0.265 OA
HETATM   16  H   UNL     1     -41.494  57.931 -53.316  1.00  0.00     0.163 HD
BRANCH  14  17
HETATM   17  C   UNL     1     -42.843  59.047 -51.581  1.00  0.00     0.142 A 
HETATM   18  O   UNL     1     -41.581  58.896 -51.063  1.00  0.00    -0.317 OA
HETATM   19  C   UNL     1     -41.362  59.948 -50.232  1.00  0.00     0.143 A 
HETATM   20  C   UNL     1     -42.457  60.778 -50.203  1.00  0.00     0.027 A 
HETATM   21  C   UNL     1     -43.413  60.200 -51.074  1.00  0.00     0.045 A 
ENDBRANCH  14  17
ENDBRANCH   1  13
BRANCH   1  22
HETATM   22  C   UNL     1     -41.857  56.525 -55.579  1.00  0.00     0.075 C 
BRANCH  22  23
HETATM   23  C   UNL     1     -42.591  56.260 -56.862  1.00  0.00    -0.028 A 
HETATM   24  C   UNL     1     -42.630  57.168 -57.975  1.00  0.00    -0.002 A 
HETATM   25  C   UNL     1     -43.367  56.562 -58.991  1.00  0.00     0.042 A 
HETATM   26  C   UNL     1     -42.092  58.450 -58.209  1.00  0.00     0.014 A 
HETATM   27  C   UNL     1     -43.592  57.171 -60.231  1.00  0.00     0.030 A 
HETATM   28  N   UNL     1     -43.769  55.337 -58.520  1.00  0.00    -0.365 N 
HETATM   29  C   UNL     1     -43.048  58.443 -60.437  1.00  0.00     0.002 A 
HETATM   30  C   UNL     1     -42.309  59.076 -59.441  1.00  0.00     0.001 A 
HETATM   31  H   UNL     1     -44.313  54.668 -59.047  1.00  0.00     0.165 HD
HETATM   32  C   UNL     1     -43.315  55.147 -57.240  1.00  0.00     0.096 A 
ENDBRANCH  22  23
ENDBRANCH   1  22
TORSDOF 6
ENDMDL
MODEL 6
REMARK VINA RESULT:      -7.9      2.669      7.579
REMARK  6 active torsions:
REMARK  status: ('A' for Active; 'I' for Inactive)
REMARK    1  A    between atoms: C_5  and  N_6 
REMARK       I    between atoms: N_6  and  C_7 
REMARK    2  A    between atoms: C_7  and  C_8 
REMARK    3  A    between atoms: C_8  and  N_9 
REMARK    4  A    between atoms: C_8  and  C_17 
REMARK       I    between atoms: N_9  and  C_10 
REMARK    5  A    between atoms: C_10  and  C_11 
REMARK    6  A    between atoms: C_17  and  C_18 
ROOT
HETATM    1  C   UNL     1     -42.218  56.672 -54.311  1.00  0.00     0.181 C 
ENDROOT
BRANCH   1   2
HETATM    2  C   UNL     1     -42.795  57.097 -55.682  1.00  0.00     0.245 C 
HETATM    3  N   UNL     1     -41.845  57.513 -56.596  1.00  0.00    -0.325 N 
HETATM    4  H   UNL     1     -40.873  57.338 -56.340  1.00  0.00     0.169 HD
HETATM    5  O   UNL     1     -44.006  57.021 -55.886  1.00  0.00    -0.271 OA
BRANCH   3   6
HETATM    6  C   UNL     1     -42.056  58.101 -57.857  1.00  0.00     0.034 A 
HETATM    7  C   UNL     1     -42.429  57.393 -58.999  1.00  0.00     0.030 A 
HETATM    8  C   UNL     1     -42.649  58.061 -60.209  1.00  0.00     0.009 A 
HETATM    9  C   UNL     1     -42.498  59.448 -60.298  1.00  0.00    -0.062 A 
HETATM   10  C   UNL     1     -42.783  60.166 -61.583  1.00  0.00     0.048 C 
HETATM   11  C   UNL     1     -42.137  60.160 -59.151  1.00  0.00     0.009 A 
HETATM   12  C   UNL     1     -41.911  59.490 -57.944  1.00  0.00     0.030 A 
ENDBRANCH   3   6
ENDBRANCH   1   2
BRANCH   1  13
HETATM   13  N   UNL     1     -42.428  57.725 -53.310  1.00  0.00    -0.342 N 
HETATM   14  C   UNL     1     -41.739  58.914 -53.272  1.00  0.00     0.276 C 
HETATM   15  O   UNL     1     -40.793  59.141 -54.025  1.00  0.00    -0.265 OA
HETATM   16  H   UNL     1     -43.174  57.605 -52.633  1.00  0.00     0.163 HD
BRANCH  14  17
HETATM   17  C   UNL     1     -42.231  59.856 -52.290  1.00  0.00     0.142 A 
HETATM   18  O   UNL     1     -41.924  59.670 -50.966  1.00  0.00    -0.317 OA
HETATM   19  C   UNL     1     -42.526  60.671 -50.272  1.00  0.00     0.143 A 
HETATM   20  C   UNL     1     -43.215  61.502 -51.122  1.00  0.00     0.027 A 
HETATM   21  C   UNL     1     -43.024  60.980 -52.425  1.00  0.00     0.045 A 
ENDBRANCH  14  17
ENDBRANCH   1  13
BRANCH   1  22
HETATM   22  C   UNL     1     -42.696  55.291 -53.831  1.00  0.00     0.075 C 
BRANCH  22  23
HETATM   23  C   UNL     1     -41.791  54.548 -52.890  1.00  0.00    -0.028 A 
HETATM   24  C   UNL     1     -41.127  53.315 -53.209  1.00  0.00    -0.002 A 
HETATM   25  C   UNL     1     -40.347  52.956 -52.111  1.00  0.00     0.042 A 
HETATM   26  C   UNL     1     -41.113  52.478 -54.344  1.00  0.00     0.014 A 
HETATM   27  C   UNL     1     -39.553  51.803 -52.089  1.00  0.00     0.030 A 
HETATM   28  N   UNL     1     -40.531  53.924 -51.155  1.00  0.00    -0.365 N 
HETATM   29  C   UNL     1     -39.559  50.991 -53.227  1.00  0.00     0.002 A 
HETATM   30  C   UNL     1     -40.328  51.320 -54.339  1.00  0.00     0.001 A 
HETATM   31  H   UNL     1     -40.079  53.933 -50.251  1.00  0.00     0.165 HD
HETATM   32  C   UNL     1     -41.401  54.882 -51.608  1.00  0.00     0.096 A 
ENDBRANCH  22  23
ENDBRANCH   1  22
TORSDOF 6
ENDMDL
MODEL 7
REMARK VINA RESULT:      -7.8      2.094      6.322
REMARK  6 active torsions:
REMARK  status: ('A' for Active; 'I' for Inactive)
REMARK    1  A    between atoms: C_5  and  N_6 
REMARK       I    between atoms: N_6  and  C_7 
REMARK    2  A    between atoms: C_7  and  C_8 
REMARK    3  A    between atoms: C_8  and  N_9 
REMARK    4  A    between atoms: C_8  and  C_17 
REMARK       I    between atoms: N_9  and  C_10 
REMARK    5  A    between atoms: C_10  and  C_11 
REMARK    6  A    between atoms: C_17  and  C_18 
ROOT
HETATM    1  C   UNL     1     -41.890  56.424 -52.928  1.00  0.00     0.181 C 
ENDROOT
BRANCH   1   2
HETATM    2  C   UNL     1     -42.914  56.463 -54.087  1.00  0.00     0.245 C 
HETATM    3  N   UNL     1     -42.350  56.440 -55.348  1.00  0.00    -0.325 N 
HETATM    4  H   UNL     1     -41.352  56.230 -55.387  1.00  0.00     0.169 HD
HETATM    5  O   UNL     1     -44.119  56.485 -53.837  1.00  0.00    -0.271 OA
BRANCH   3   6
HETATM    6  C   UNL     1     -42.992  56.620 -56.588  1.00  0.00     0.034 A 
HETATM    7  C   UNL     1     -43.599  57.809 -56.990  1.00  0.00     0.030 A 
HETATM    8  C   UNL     1     -44.189  57.913 -58.256  1.00  0.00     0.009 A 
HETATM    9  C   UNL     1     -44.183  56.828 -59.138  1.00  0.00    -0.062 A 
HETATM   10  C   UNL     1     -44.771  56.958 -60.511  1.00  0.00     0.048 C 
HETATM   11  C   UNL     1     -43.562  55.641 -58.740  1.00  0.00     0.009 A 
HETATM   12  C   UNL     1     -42.979  55.536 -57.473  1.00  0.00     0.030 A 
ENDBRANCH   3   6
ENDBRANCH   1   2
BRANCH   1  13
HETATM   13  N   UNL     1     -41.125  55.171 -52.952  1.00  0.00    -0.342 N 
HETATM   14  C   UNL     1     -41.591  53.964 -52.485  1.00  0.00     0.276 C 
HETATM   15  O   UNL     1     -42.666  53.867 -51.895  1.00  0.00    -0.265 OA
HETATM   16  H   UNL     1     -40.214  55.170 -53.398  1.00  0.00     0.163 HD
BRANCH  14  17
HETATM   17  C   UNL     1     -40.719  52.843 -52.760  1.00  0.00     0.142 A 
HETATM   18  O   UNL     1     -40.098  52.202 -51.717  1.00  0.00    -0.317 OA
HETATM   19  C   UNL     1     -39.330  51.219 -52.253  1.00  0.00     0.143 A 
HETATM   20  C   UNL     1     -39.442  51.210 -53.623  1.00  0.00     0.027 A 
HETATM   21  C   UNL     1     -40.339  52.256 -53.952  1.00  0.00     0.045 A 
ENDBRANCH  14  17
ENDBRANCH   1  13
BRANCH   1  22
HETATM   22  C   UNL     1     -40.989  57.669 -52.846  1.00  0.00     0.075 C 
BRANCH  22  23
HETATM   23  C   UNL     1     -41.278  58.644 -51.740  1.00  0.00    -0.028 A 
HETATM   24  C   UNL     1     -41.995  59.876 -51.913  1.00  0.00    -0.002 A 
HETATM   25  C   UNL     1     -42.100  60.485 -50.664  1.00  0.00     0.042 A 
HETATM   26  C   UNL     1     -42.575  60.521 -53.025  1.00  0.00     0.014 A 
HETATM   27  C   UNL     1     -42.757  61.706 -50.469  1.00  0.00     0.030 A 
HETATM   28  N   UNL     1     -41.467  59.665 -49.763  1.00  0.00    -0.365 N 
HETATM   29  C   UNL     1     -43.322  62.324 -51.588  1.00  0.00     0.002 A 
HETATM   30  C   UNL     1     -43.232  61.744 -52.850  1.00  0.00     0.001 A 
HETATM   31  H   UNL     1     -41.395  59.848 -48.772  1.00  0.00     0.165 HD
HETATM   32  C   UNL     1     -40.963  58.559 -50.398  1.00  0.00     0.096 A 
ENDBRANCH  22  23
ENDBRANCH   1  22
TORSDOF 6
ENDMDL
MODEL 8
REMARK VINA RESULT:      -7.7     16.032     19.366
REMARK  6 active torsions:
REMARK  status: ('A' for Active; 'I' for Inactive)
REMARK    1  A    between atoms: C_5  and  N_6 
REMARK       I    between atoms: N_6  and  C_7 
REMARK    2  A    between atoms: C_7  and  C_8 
REMARK    3  A    between atoms: C_8  and  N_9 
REMARK    4  A    between atoms: C_8  and  C_17 
REMARK       I    between atoms: N_9  and  C_10 
REMARK    5  A    between atoms: C_10  and  C_11 
REMARK    6  A    between atoms: C_17  and  C_18 
ROOT
HETATM    1  C   UNL     1     -34.846  39.911 -51.911  1.00  0.00     0.181 C 
ENDROOT
BRANCH   1   2
HETATM    2  C   UNL     1     -34.138  39.235 -53.110  1.00  0.00     0.245 C 
HETATM    3  N   UNL     1     -32.823  39.619 -53.285  1.00  0.00    -0.325 N 
HETATM    4  H   UNL     1     -32.410  40.160 -52.525  1.00  0.00     0.169 HD
HETATM    5  O   UNL     1     -34.747  38.413 -53.794  1.00  0.00    -0.271 OA
BRANCH   3   6
HETATM    6  C   UNL     1     -31.966  39.310 -54.359  1.00  0.00     0.034 A 
HETATM    7  C   UNL     1     -31.847  40.083 -55.513  1.00  0.00     0.030 A 
HETATM    8  C   UNL     1     -30.945  39.721 -56.521  1.00  0.00     0.009 A 
HETATM    9  C   UNL     1     -30.150  38.578 -56.392  1.00  0.00    -0.062 A 
HETATM   10  C   UNL     1     -29.150  38.221 -57.451  1.00  0.00     0.048 C 
HETATM   11  C   UNL     1     -30.260  37.810 -55.230  1.00  0.00     0.009 A 
HETATM   12  C   UNL     1     -31.165  38.170 -54.226  1.00  0.00     0.030 A 
ENDBRANCH   3   6
ENDBRANCH   1   2
BRANCH   1  13
HETATM   13  N   UNL     1     -33.984  39.894 -50.722  1.00  0.00    -0.342 N 
HETATM   14  C   UNL     1     -33.911  38.854 -49.826  1.00  0.00     0.276 C 
HETATM   15  O   UNL     1     -34.665  37.884 -49.895  1.00  0.00    -0.265 OA
HETATM   16  H   UNL     1     -33.350  40.672 -50.576  1.00  0.00     0.163 HD
BRANCH  14  17
HETATM   17  C   UNL     1     -32.878  39.002 -48.825  1.00  0.00     0.142 A 
HETATM   18  O   UNL     1     -32.877  38.175 -47.730  1.00  0.00    -0.317 OA
HETATM   19  C   UNL     1     -31.828  38.545 -46.951  1.00  0.00     0.143 A 
HETATM   20  C   UNL     1     -31.148  39.594 -47.521  1.00  0.00     0.027 A 
HETATM   21  C   UNL     1     -31.822  39.889 -48.731  1.00  0.00     0.045 A 
ENDBRANCH  14  17
ENDBRANCH   1  13
BRANCH   1  22
HETATM   22  C   UNL     1     -35.405  41.310 -52.222  1.00  0.00     0.075 C 
BRANCH  22  23
HETATM   23  C   UNL     1     -36.453  41.400 -53.294  1.00  0.00    -0.028 A 
HETATM   24  C   UNL     1     -36.179  41.701 -54.672  1.00  0.00    -0.002 A 
HETATM   25  C   UNL     1     -37.388  41.654 -55.365  1.00  0.00     0.042 A 
HETATM   26  C   UNL     1     -35.003  41.998 -55.391  1.00  0.00     0.014 A 
HETATM   27  C   UNL     1     -37.481  41.887 -56.742  1.00  0.00     0.030 A 
HETATM   28  N   UNL     1     -38.363  41.345 -54.450  1.00  0.00    -0.365 N 
HETATM   29  C   UNL     1     -36.300  42.180 -57.431  1.00  0.00     0.002 A 
HETATM   30  C   UNL     1     -35.078  42.237 -56.768  1.00  0.00     0.001 A 
HETATM   31  H   UNL     1     -39.343  41.232 -54.670  1.00  0.00     0.165 HD
HETATM   32  C   UNL     1     -37.816  41.197 -53.201  1.00  0.00     0.096 A 
ENDBRANCH  22  23
ENDBRANCH   1  22
TORSDOF 6
ENDMDL
MODEL 9
REMARK VINA RESULT:      -7.7      2.633      7.190
REMARK  6 active torsions:
REMARK  status: ('A' for Active; 'I' for Inactive)
REMARK    1  A    between atoms: C_5  and  N_6 
REMARK       I    between atoms: N_6  and  C_7 
REMARK    2  A    between atoms: C_7  and  C_8 
REMARK    3  A    between atoms: C_8  and  N_9 
REMARK    4  A    between atoms: C_8  and  C_17 
REMARK       I    between atoms: N_9  and  C_10 
REMARK    5  A    between atoms: C_10  and  C_11 
REMARK    6  A    between atoms: C_17  and  C_18 
ROOT
HETATM    1  C   UNL     1     -42.438  56.289 -53.612  1.00  0.00     0.181 C 
ENDROOT
BRANCH   1   2
HETATM    2  C   UNL     1     -42.873  56.981 -52.299  1.00  0.00     0.245 C 
HETATM    3  N   UNL     1     -43.509  58.195 -52.477  1.00  0.00    -0.325 N 
HETATM    4  H   UNL     1     -43.775  58.423 -53.435  1.00  0.00     0.169 HD
HETATM    5  O   UNL     1     -42.664  56.429 -51.219  1.00  0.00    -0.271 OA
BRANCH   3   6
HETATM    6  C   UNL     1     -43.881  59.131 -51.494  1.00  0.00     0.034 A 
HETATM    7  C   UNL     1     -45.143  59.186 -50.903  1.00  0.00     0.030 A 
HETATM    8  C   UNL     1     -45.421  60.130 -49.907  1.00  0.00     0.009 A 
HETATM    9  C   UNL     1     -44.442  61.037 -49.489  1.00  0.00    -0.062 A 
HETATM   10  C   UNL     1     -44.727  62.013 -48.387  1.00  0.00     0.048 C 
HETATM   11  C   UNL     1     -43.173  60.973 -50.071  1.00  0.00     0.009 A 
HETATM   12  C   UNL     1     -42.899  60.033 -51.070  1.00  0.00     0.030 A 
ENDBRANCH   3   6
ENDBRANCH   1   2
BRANCH   1  13
HETATM   13  N   UNL     1     -41.884  54.957 -53.339  1.00  0.00    -0.342 N 
HETATM   14  C   UNL     1     -40.739  54.455 -53.912  1.00  0.00     0.276 C 
HETATM   15  O   UNL     1     -40.141  55.058 -54.803  1.00  0.00    -0.265 OA
HETATM   16  H   UNL     1     -42.335  54.383 -52.635  1.00  0.00     0.163 HD
BRANCH  14  17
HETATM   17  C   UNL     1     -40.309  53.185 -53.369  1.00  0.00     0.142 A 
HETATM   18  O   UNL     1     -40.045  53.082 -52.026  1.00  0.00    -0.317 OA
HETATM   19  C   UNL     1     -39.642  51.806 -51.796  1.00  0.00     0.143 A 
HETATM   20  C   UNL     1     -39.641  51.081 -52.963  1.00  0.00     0.027 A 
HETATM   21  C   UNL     1     -40.073  51.968 -53.979  1.00  0.00     0.045 A 
ENDBRANCH  14  17
ENDBRANCH   1  13
BRANCH   1  22
HETATM   22  C   UNL     1     -43.525  56.271 -54.701  1.00  0.00     0.075 C 
BRANCH  22  23
HETATM   23  C   UNL     1     -43.084  56.567 -56.106  1.00  0.00    -0.028 A 
HETATM   24  C   UNL     1     -42.675  57.863 -56.571  1.00  0.00    -0.002 A 
HETATM   25  C   UNL     1     -42.300  57.735 -57.907  1.00  0.00     0.042 A 
HETATM   26  C   UNL     1     -42.582  59.133 -55.965  1.00  0.00     0.014 A 
HETATM   27  C   UNL     1     -41.834  58.813 -58.669  1.00  0.00     0.030 A 
HETATM   28  N   UNL     1     -42.478  56.418 -58.250  1.00  0.00    -0.365 N 
HETATM   29  C   UNL     1     -41.752  60.061 -58.045  1.00  0.00     0.002 A 
HETATM   30  C   UNL     1     -42.121  60.223 -56.712  1.00  0.00     0.001 A 
HETATM   31  H   UNL     1     -42.274  56.029 -59.160  1.00  0.00     0.165 HD
HETATM   32  C   UNL     1     -42.955  55.707 -57.179  1.00  0.00     0.096 A 
ENDBRANCH  22  23
ENDBRANCH   1  22
TORSDOF 6
ENDMDL
MODEL 10
REMARK VINA RESULT:      -7.6      2.381      7.369
REMARK  6 active torsions:
REMARK  status: ('A' for Active; 'I' for Inactive)
REMARK    1  A    between atoms: C_5  and  N_6 
REMARK       I    between atoms: N_6  and  C_7 
REMARK    2  A    between atoms: C_7  and  C_8 
REMARK    3  A    between atoms: C_8  and  N_9 
REMARK    4  A    between atoms: C_8  and  C_17 
REMARK       I    between atoms: N_9  and  C_10 
REMARK    5  A    between atoms: C_10  and  C_11 
REMARK    6  A    between atoms: C_17  and  C_18 
ROOT
HETATM    1  C   UNL     1     -41.788  55.861 -53.948  1.00  0.00     0.181 C 
ENDROOT
BRANCH   1   2
HETATM    2  C   UNL     1     -42.058  56.648 -52.643  1.00  0.00     0.245 C 
HETATM    3  N   UNL     1     -42.865  57.758 -52.804  1.00  0.00    -0.325 N 
HETATM    4  H   UNL     1     -43.331  57.845 -53.707  1.00  0.00     0.169 HD
HETATM    5  O   UNL     1     -41.583  56.249 -51.580  1.00  0.00    -0.271 OA
BRANCH   3   6
HETATM    6  C   UNL     1     -43.166  58.755 -51.856  1.00  0.00     0.034 A 
HETATM    7  C   UNL     1     -42.227  59.639 -51.325  1.00  0.00     0.030 A 
HETATM    8  C   UNL     1     -42.616  60.623 -50.409  1.00  0.00     0.009 A 
HETATM    9  C   UNL     1     -43.951  60.738 -50.008  1.00  0.00    -0.062 A 
HETATM   10  C   UNL     1     -44.374  61.825 -49.066  1.00  0.00     0.048 C 
HETATM   11  C   UNL     1     -44.894  59.861 -50.550  1.00  0.00     0.009 A 
HETATM   12  C   UNL     1     -44.502  58.874 -51.460  1.00  0.00     0.030 A 
ENDBRANCH   3   6
ENDBRANCH   1   2
BRANCH   1  13
HETATM   13  N   UNL     1     -41.421  54.471 -53.651  1.00  0.00    -0.342 N 
HETATM   14  C   UNL     1     -40.464  53.754 -54.329  1.00  0.00     0.276 C 
HETATM   15  O   UNL     1     -39.911  54.199 -55.334  1.00  0.00    -0.265 OA
HETATM   16  H   UNL     1     -41.852  54.020 -52.851  1.00  0.00     0.163 HD
BRANCH  14  17
HETATM   17  C   UNL     1     -40.169  52.461 -53.753  1.00  0.00     0.142 A 
HETATM   18  O   UNL     1     -39.816  52.378 -52.430  1.00  0.00    -0.317 OA
HETATM   19  C   UNL     1     -39.573  51.068 -52.163  1.00  0.00     0.143 A 
HETATM   20  C   UNL     1     -39.764  50.302 -53.287  1.00  0.00     0.027 A 
HETATM   21  C   UNL     1     -40.151  51.197 -54.314  1.00  0.00     0.045 A 
ENDBRANCH  14  17
ENDBRANCH   1  13
BRANCH   1  22
HETATM   22  C   UNL     1     -42.915  55.970 -54.989  1.00  0.00     0.075 C 
BRANCH  22  23
HETATM   23  C   UNL     1     -42.701  56.929 -56.125  1.00  0.00    -0.028 A 
HETATM   24  C   UNL     1     -42.931  56.613 -57.507  1.00  0.00    -0.002 A 
HETATM   25  C   UNL     1     -42.666  57.759 -58.254  1.00  0.00     0.042 A 
HETATM   26  C   UNL     1     -43.354  55.451 -58.186  1.00  0.00     0.014 A 
HETATM   27  C   UNL     1     -42.804  57.804 -59.647  1.00  0.00     0.030 A 
HETATM   28  N   UNL     1     -42.283  58.736 -57.369  1.00  0.00    -0.365 N 
HETATM   29  C   UNL     1     -43.223  56.639 -60.295  1.00  0.00     0.002 A 
HETATM   30  C   UNL     1     -43.493  55.477 -59.578  1.00  0.00     0.001 A 
HETATM   31  H   UNL     1     -42.039  59.682 -57.628  1.00  0.00     0.165 HD
HETATM   32  C   UNL     1     -42.293  58.248 -56.088  1.00  0.00     0.096 A 
ENDBRANCH  22  23
ENDBRANCH   1  22
TORSDOF 6
ENDMDL
