MODEL 1
REMARK VINA RESULT:      -7.8      0.000      0.000
REMARK  2 active torsions:
REMARK  status: ('A' for Active; 'I' for Inactive)
REMARK    1  A    between atoms: C_12  and  C_13 
REMARK    2  A    between atoms: C_16  and  O_17 
ROOT
HETATM    1  C   UNL     1     -40.616  58.134 -50.793  1.00  0.00     0.002 A 
HETATM    2  C   UNL     1     -41.643  57.238 -51.085  1.00  0.00     0.026 A 
HETATM    3  C   UNL     1     -42.151  57.119 -52.388  1.00  0.00     0.036 A 
HETATM    4  C   UNL     1     -41.611  57.917 -53.423  1.00  0.00     0.053 A 
HETATM    5  N   UNL     1     -42.029  57.845 -54.772  1.00  0.00    -0.356 N 
HETATM    6  C   UNL     1     -42.505  56.725 -55.416  1.00  0.00     0.041 A 
HETATM    7  C   UNL     1     -42.901  55.554 -54.890  1.00  0.00     0.056 A 
HETATM    8  C   UNL     1     -43.301  54.691 -56.009  1.00  0.00     0.251 A 
HETATM    9  O   UNL     1     -43.761  53.569 -55.928  1.00  0.00    -0.268 OA
HETATM   10  N   UNL     1     -43.079  55.391 -57.166  1.00  0.00    -0.351 N 
HETATM   11  C   UNL     1     -42.593  56.706 -56.919  1.00  0.00     0.180 A 
HETATM   12  C   UNL     1     -43.046  55.104 -53.485  1.00  0.00     0.134 C 
HETATM   13  N   UNL     1     -43.249  56.245 -52.567  1.00  0.00    -0.278 NA
HETATM   14  C   UNL     1     -40.587  58.828 -53.101  1.00  0.00     0.031 A 
HETATM   15  C   UNL     1     -40.092  58.935 -51.799  1.00  0.00     0.002 A 
HETATM   16  H   UNL     1     -41.603  58.542 -55.375  1.00  0.00     0.166 HD
HETATM   17  H   UNL     1     -43.307  54.996 -58.068  1.00  0.00     0.163 HD
HETATM   18  H   UNL     1     -43.996  56.819 -52.960  1.00  0.00     0.128 HD
ENDROOT
BRANCH  12  19
HETATM   19  C   UNL     1     -41.972  54.151 -52.969  1.00  0.00    -0.035 A 
HETATM   20  C   UNL     1     -41.887  53.764 -51.619  1.00  0.00     0.012 A 
HETATM   21  C   UNL     1     -40.894  52.879 -51.187  1.00  0.00     0.037 A 
HETATM   22  C   UNL     1     -39.985  52.368 -52.104  1.00  0.00     0.065 A 
HETATM   23  C   UNL     1     -40.056  52.718 -53.445  1.00  0.00     0.037 A 
HETATM   24  C   UNL     1     -41.048  53.601 -53.877  1.00  0.00     0.012 A 
BRANCH  22  25
HETATM   25  O   UNL     1     -39.000  51.504 -51.723  1.00  0.00    -0.361 OA
HETATM   26  H   UNL     1     -39.397  50.630 -51.585  1.00  0.00     0.217 HD
ENDBRANCH  22  25
ENDBRANCH  12  19
TORSDOF 2
ENDMDL
MODEL 2
REMARK VINA RESULT:      -7.7      2.804      4.464
REMARK  2 active torsions:
REMARK  status: ('A' for Active; 'I' for Inactive)
REMARK    1  A    between atoms: C_12  and  C_13 
REMARK    2  A    between atoms: C_16  and  O_17 
ROOT
HETATM    1  C   UNL     1     -45.258  59.940 -53.442  1.00  0.00     0.002 A 
HETATM    2  C   UNL     1     -44.856  58.932 -52.568  1.00  0.00     0.026 A 
HETATM    3  C   UNL     1     -44.584  57.636 -53.033  1.00  0.00     0.036 A 
HETATM    4  C   UNL     1     -44.718  57.347 -54.410  1.00  0.00     0.053 A 
HETATM    5  N   UNL     1     -44.434  56.084 -54.981  1.00  0.00    -0.356 N 
HETATM    6  C   UNL     1     -43.496  55.182 -54.531  1.00  0.00     0.041 A 
HETATM    7  C   UNL     1     -42.832  55.168 -53.365  1.00  0.00     0.056 A 
HETATM    8  C   UNL     1     -41.937  54.003 -53.390  1.00  0.00     0.251 A 
HETATM    9  O   UNL     1     -41.209  53.631 -52.492  1.00  0.00    -0.268 OA
HETATM   10  N   UNL     1     -42.088  53.398 -54.610  1.00  0.00    -0.351 N 
HETATM   11  C   UNL     1     -43.069  54.042 -55.417  1.00  0.00     0.180 A 
HETATM   12  C   UNL     1     -42.933  56.030 -52.162  1.00  0.00     0.134 C 
HETATM   13  N   UNL     1     -44.266  56.661 -52.058  1.00  0.00    -0.278 NA
HETATM   14  C   UNL     1     -45.143  58.375 -55.272  1.00  0.00     0.031 A 
HETATM   15  C   UNL     1     -45.409  59.661 -54.794  1.00  0.00     0.002 A 
HETATM   16  H   UNL     1     -44.660  56.016 -55.969  1.00  0.00     0.166 HD
HETATM   17  H   UNL     1     -41.582  52.554 -54.842  1.00  0.00     0.163 HD
HETATM   18  H   UNL     1     -44.960  55.923 -52.170  1.00  0.00     0.128 HD
ENDROOT
BRANCH  12  19
HETATM   19  C   UNL     1     -41.812  57.045 -51.964  1.00  0.00    -0.035 A 
HETATM   20  C   UNL     1     -41.152  57.666 -53.040  1.00  0.00     0.012 A 
HETATM   21  C   UNL     1     -40.136  58.600 -52.818  1.00  0.00     0.037 A 
HETATM   22  C   UNL     1     -39.778  58.926 -51.515  1.00  0.00     0.065 A 
HETATM   23  C   UNL     1     -40.424  58.342 -50.434  1.00  0.00     0.037 A 
HETATM   24  C   UNL     1     -41.439  57.410 -50.657  1.00  0.00     0.012 A 
BRANCH  22  25
HETATM   25  O   UNL     1     -38.791  59.831 -51.255  1.00  0.00    -0.361 OA
HETATM   26  H   UNL     1     -39.205  60.675 -51.015  1.00  0.00     0.217 HD
ENDBRANCH  22  25
ENDBRANCH  12  19
TORSDOF 2
ENDMDL
MODEL 3
REMARK VINA RESULT:      -7.7      2.817      5.741
REMARK  2 active torsions:
REMARK  status: ('A' for Active; 'I' for Inactive)
REMARK    1  A    between atoms: C_12  and  C_13 
REMARK    2  A    between atoms: C_16  and  O_17 
ROOT
HETATM    1  C   UNL     1     -43.234  55.866 -55.900  1.00  0.00     0.002 A 
HETATM    2  C   UNL     1     -43.707  55.656 -54.607  1.00  0.00     0.026 A 
HETATM    3  C   UNL     1     -43.037  54.798 -53.721  1.00  0.00     0.036 A 
HETATM    4  C   UNL     1     -41.861  54.139 -54.145  1.00  0.00     0.053 A 
HETATM    5  N   UNL     1     -41.095  53.285 -53.317  1.00  0.00    -0.356 N 
HETATM    6  C   UNL     1     -40.957  53.388 -51.951  1.00  0.00     0.041 A 
HETATM    7  C   UNL     1     -41.667  54.128 -51.085  1.00  0.00     0.056 A 
HETATM    8  C   UNL     1     -41.104  53.891 -49.749  1.00  0.00     0.251 A 
HETATM    9  O   UNL     1     -41.512  54.350 -48.701  1.00  0.00    -0.268 OA
HETATM   10  N   UNL     1     -40.041  53.039 -49.899  1.00  0.00    -0.351 N 
HETATM   11  C   UNL     1     -39.860  52.631 -51.251  1.00  0.00     0.180 A 
HETATM   12  C   UNL     1     -42.860  54.989 -51.272  1.00  0.00     0.134 C 
HETATM   13  N   UNL     1     -43.641  54.584 -52.459  1.00  0.00    -0.278 NA
HETATM   14  C   UNL     1     -41.411  54.351 -55.462  1.00  0.00     0.031 A 
HETATM   15  C   UNL     1     -42.089  55.208 -56.331  1.00  0.00     0.002 A 
HETATM   16  H   UNL     1     -40.327  52.824 -53.796  1.00  0.00     0.166 HD
HETATM   17  H   UNL     1     -39.512  52.717 -49.100  1.00  0.00     0.163 HD
HETATM   18  H   UNL     1     -43.791  53.577 -52.394  1.00  0.00     0.128 HD
ENDROOT
BRANCH  12  19
HETATM   19  C   UNL     1     -42.614  56.495 -51.247  1.00  0.00    -0.035 A 
HETATM   20  C   UNL     1     -41.325  57.052 -51.172  1.00  0.00     0.012 A 
HETATM   21  C   UNL     1     -41.141  58.438 -51.162  1.00  0.00     0.037 A 
HETATM   22  C   UNL     1     -42.246  59.277 -51.235  1.00  0.00     0.065 A 
HETATM   23  C   UNL     1     -43.528  58.755 -51.328  1.00  0.00     0.037 A 
HETATM   24  C   UNL     1     -43.712  57.371 -51.338  1.00  0.00     0.012 A 
BRANCH  22  25
HETATM   25  O   UNL     1     -42.109  60.634 -51.226  1.00  0.00    -0.361 OA
HETATM   26  H   UNL     1     -41.182  60.850 -51.412  1.00  0.00     0.217 HD
ENDBRANCH  22  25
ENDBRANCH  12  19
TORSDOF 2
ENDMDL
MODEL 4
REMARK VINA RESULT:      -7.5      2.435      4.980
REMARK  2 active torsions:
REMARK  status: ('A' for Active; 'I' for Inactive)
REMARK    1  A    between atoms: C_12  and  C_13 
REMARK    2  A    between atoms: C_16  and  O_17 
ROOT
HETATM    1  C   UNL     1     -44.145  57.522 -55.926  1.00  0.00     0.002 A 
HETATM    2  C   UNL     1     -44.150  56.956 -54.653  1.00  0.00     0.026 A 
HETATM    3  C   UNL     1     -43.522  55.727 -54.404  1.00  0.00     0.036 A 
HETATM    4  C   UNL     1     -42.869  55.051 -55.459  1.00  0.00     0.053 A 
HETATM    5  N   UNL     1     -42.178  53.826 -55.302  1.00  0.00    -0.356 N 
HETATM    6  C   UNL     1     -41.523  53.404 -54.168  1.00  0.00     0.041 A 
HETATM    7  C   UNL     1     -41.582  53.905 -52.924  1.00  0.00     0.056 A 
HETATM    8  C   UNL     1     -40.679  53.102 -52.090  1.00  0.00     0.251 A 
HETATM    9  O   UNL     1     -40.500  53.222 -50.894  1.00  0.00    -0.268 OA
HETATM   10  N   UNL     1     -40.087  52.173 -52.905  1.00  0.00    -0.351 N 
HETATM   11  C   UNL     1     -40.559  52.251 -54.246  1.00  0.00     0.180 A 
HETATM   12  C   UNL     1     -42.407  54.988 -52.336  1.00  0.00     0.134 C 
HETATM   13  N   UNL     1     -43.656  55.194 -53.099  1.00  0.00    -0.278 NA
HETATM   14  C   UNL     1     -42.892  55.631 -56.742  1.00  0.00     0.031 A 
HETATM   15  C   UNL     1     -43.521  56.856 -56.974  1.00  0.00     0.002 A 
HETATM   16  H   UNL     1     -41.837  53.430 -56.172  1.00  0.00     0.166 HD
HETATM   17  H   UNL     1     -39.439  51.491 -52.536  1.00  0.00     0.163 HD
HETATM   18  H   UNL     1     -44.092  54.280 -53.219  1.00  0.00     0.128 HD
ENDROOT
BRANCH  12  19
HETATM   19  C   UNL     1     -41.691  56.307 -52.060  1.00  0.00    -0.035 A 
HETATM   20  C   UNL     1     -41.026  57.033 -53.065  1.00  0.00     0.012 A 
HETATM   21  C   UNL     1     -40.390  58.244 -52.774  1.00  0.00     0.037 A 
HETATM   22  C   UNL     1     -40.424  58.742 -51.478  1.00  0.00     0.065 A 
HETATM   23  C   UNL     1     -41.089  58.056 -50.471  1.00  0.00     0.037 A 
HETATM   24  C   UNL     1     -41.723  56.847 -50.761  1.00  0.00     0.012 A 
BRANCH  22  25
HETATM   25  O   UNL     1     -39.815  59.919 -51.152  1.00  0.00    -0.361 OA
HETATM   26  H   UNL     1     -39.195  60.149 -51.863  1.00  0.00     0.217 HD
ENDBRANCH  22  25
ENDBRANCH  12  19
TORSDOF 2
ENDMDL
MODEL 5
REMARK VINA RESULT:      -7.5      1.605      2.146
REMARK  2 active torsions:
REMARK  status: ('A' for Active; 'I' for Inactive)
REMARK    1  A    between atoms: C_12  and  C_13 
REMARK    2  A    between atoms: C_16  and  O_17 
ROOT
HETATM    1  C   UNL     1     -40.987  57.488 -50.579  1.00  0.00     0.002 A 
HETATM    2  C   UNL     1     -41.978  56.928 -51.381  1.00  0.00     0.026 A 
HETATM    3  C   UNL     1     -42.299  57.481 -52.630  1.00  0.00     0.036 A 
HETATM    4  C   UNL     1     -41.604  58.625 -53.085  1.00  0.00     0.053 A 
HETATM    5  N   UNL     1     -41.829  59.235 -54.341  1.00  0.00    -0.356 N 
HETATM    6  C   UNL     1     -42.230  58.597 -55.493  1.00  0.00     0.041 A 
HETATM    7  C   UNL     1     -42.717  57.355 -55.643  1.00  0.00     0.056 A 
HETATM    8  C   UNL     1     -42.971  57.160 -57.077  1.00  0.00     0.251 A 
HETATM    9  O   UNL     1     -43.459  56.176 -57.597  1.00  0.00    -0.268 OA
HETATM   10  N   UNL     1     -42.575  58.302 -57.722  1.00  0.00    -0.351 N 
HETATM   11  C   UNL     1     -42.105  59.298 -56.819  1.00  0.00     0.180 A 
HETATM   12  C   UNL     1     -43.067  56.307 -54.654  1.00  0.00     0.134 C 
HETATM   13  N   UNL     1     -43.377  56.891 -53.332  1.00  0.00    -0.278 NA
HETATM   14  C   UNL     1     -40.620  59.187 -52.250  1.00  0.00     0.031 A 
HETATM   15  C   UNL     1     -40.311  58.623 -51.010  1.00  0.00     0.002 A 
HETATM   16  H   UNL     1     -41.309  60.096 -54.482  1.00  0.00     0.166 HD
HETATM   17  H   UNL     1     -42.681  58.402 -58.722  1.00  0.00     0.163 HD
HETATM   18  H   UNL     1     -44.050  57.643 -53.483  1.00  0.00     0.128 HD
ENDROOT
BRANCH  12  19
HETATM   19  C   UNL     1     -42.095  55.137 -54.539  1.00  0.00    -0.035 A 
HETATM   20  C   UNL     1     -40.825  55.144 -55.143  1.00  0.00     0.012 A 
HETATM   21  C   UNL     1     -39.958  54.056 -55.005  1.00  0.00     0.037 A 
HETATM   22  C   UNL     1     -40.352  52.956 -54.253  1.00  0.00     0.065 A 
HETATM   23  C   UNL     1     -41.592  52.930 -53.630  1.00  0.00     0.037 A 
HETATM   24  C   UNL     1     -42.457  54.017 -53.768  1.00  0.00     0.012 A 
BRANCH  22  25
HETATM   25  O   UNL     1     -39.537  51.874 -54.096  1.00  0.00    -0.361 OA
HETATM   26  H   UNL     1     -40.090  51.100 -53.906  1.00  0.00     0.217 HD
ENDBRANCH  22  25
ENDBRANCH  12  19
TORSDOF 2
ENDMDL
MODEL 6
REMARK VINA RESULT:      -7.2      3.743      6.513
REMARK  2 active torsions:
REMARK  status: ('A' for Active; 'I' for Inactive)
REMARK    1  A    between atoms: C_12  and  C_13 
REMARK    2  A    between atoms: C_16  and  O_17 
ROOT
HETATM    1  C   UNL     1     -44.965  54.700 -59.930  1.00  0.00     0.002 A 
HETATM    2  C   UNL     1     -43.773  55.184 -59.395  1.00  0.00     0.026 A 
HETATM    3  C   UNL     1     -43.547  56.562 -59.258  1.00  0.00     0.036 A 
HETATM    4  C   UNL     1     -44.545  57.477 -59.665  1.00  0.00     0.053 A 
HETATM    5  N   UNL     1     -44.428  58.880 -59.535  1.00  0.00    -0.356 N 
HETATM    6  C   UNL     1     -43.730  59.549 -58.555  1.00  0.00     0.041 A 
HETATM    7  C   UNL     1     -42.837  59.066 -57.676  1.00  0.00     0.056 A 
HETATM    8  C   UNL     1     -42.401  60.191 -56.838  1.00  0.00     0.251 A 
HETATM    9  O   UNL     1     -41.562  60.156 -55.960  1.00  0.00    -0.268 OA
HETATM   10  N   UNL     1     -43.102  61.297 -57.242  1.00  0.00    -0.351 N 
HETATM   11  C   UNL     1     -43.964  61.021 -58.341  1.00  0.00     0.180 A 
HETATM   12  C   UNL     1     -42.243  57.716 -57.516  1.00  0.00     0.134 C 
HETATM   13  N   UNL     1     -42.273  56.956 -58.784  1.00  0.00    -0.278 NA
HETATM   14  C   UNL     1     -45.734  56.967 -60.220  1.00  0.00     0.031 A 
HETATM   15  C   UNL     1     -45.945  55.592 -60.349  1.00  0.00     0.002 A 
HETATM   16  H   UNL     1     -45.194  59.400 -59.951  1.00  0.00     0.166 HD
HETATM   17  H   UNL     1     -42.945  62.200 -56.815  1.00  0.00     0.163 HD
HETATM   18  H   UNL     1     -41.886  57.561 -59.508  1.00  0.00     0.128 HD
ENDROOT
BRANCH  12  19
HETATM   19  C   UNL     1     -42.765  56.885 -56.348  1.00  0.00    -0.035 A 
HETATM   20  C   UNL     1     -43.894  57.257 -55.597  1.00  0.00     0.012 A 
HETATM   21  C   UNL     1     -44.348  56.462 -54.540  1.00  0.00     0.037 A 
HETATM   22  C   UNL     1     -43.680  55.283 -54.233  1.00  0.00     0.065 A 
HETATM   23  C   UNL     1     -42.574  54.882 -54.969  1.00  0.00     0.037 A 
HETATM   24  C   UNL     1     -42.121  55.676 -56.025  1.00  0.00     0.012 A 
BRANCH  22  25
HETATM   25  O   UNL     1     -44.089  54.480 -53.209  1.00  0.00    -0.361 OA
HETATM   26  H   UNL     1     -44.883  54.871 -52.813  1.00  0.00     0.217 HD
ENDBRANCH  22  25
ENDBRANCH  12  19
TORSDOF 2
ENDMDL
MODEL 7
REMARK VINA RESULT:      -7.0      1.597      1.986
REMARK  2 active torsions:
REMARK  status: ('A' for Active; 'I' for Inactive)
REMARK    1  A    between atoms: C_12  and  C_13 
REMARK    2  A    between atoms: C_16  and  O_17 
ROOT
HETATM    1  C   UNL     1     -42.447  58.733 -51.342  1.00  0.00     0.002 A 
HETATM    2  C   UNL     1     -43.212  57.870 -52.123  1.00  0.00     0.026 A 
HETATM    3  C   UNL     1     -43.246  57.994 -53.520  1.00  0.00     0.036 A 
HETATM    4  C   UNL     1     -42.489  59.009 -54.148  1.00  0.00     0.053 A 
HETATM    5  N   UNL     1     -42.428  59.194 -55.549  1.00  0.00    -0.356 N 
HETATM    6  C   UNL     1     -42.536  58.208 -56.503  1.00  0.00     0.041 A 
HETATM    7  C   UNL     1     -42.949  56.938 -56.361  1.00  0.00     0.056 A 
HETATM    8  C   UNL     1     -42.858  56.302 -57.682  1.00  0.00     0.251 A 
HETATM    9  O   UNL     1     -43.191  55.168 -57.963  1.00  0.00    -0.268 OA
HETATM   10  N   UNL     1     -42.348  57.232 -58.549  1.00  0.00    -0.351 N 
HETATM   11  C   UNL     1     -42.122  58.491 -57.923  1.00  0.00     0.180 A 
HETATM   12  C   UNL     1     -43.497  56.205 -55.194  1.00  0.00     0.134 C 
HETATM   13  N   UNL     1     -44.118  57.125 -54.218  1.00  0.00    -0.278 NA
HETATM   14  C   UNL     1     -41.738  59.883 -53.339  1.00  0.00     0.031 A 
HETATM   15  C   UNL     1     -41.714  59.745 -51.949  1.00  0.00     0.002 A 
HETATM   16  H   UNL     1     -41.909  60.018 -55.836  1.00  0.00     0.166 HD
HETATM   17  H   UNL     1     -42.220  57.019 -59.529  1.00  0.00     0.163 HD
HETATM   18  H   UNL     1     -44.754  57.732 -54.736  1.00  0.00     0.128 HD
ENDROOT
BRANCH  12  19
HETATM   19  C   UNL     1     -42.553  55.217 -54.515  1.00  0.00    -0.035 A 
HETATM   20  C   UNL     1     -42.940  54.435 -53.412  1.00  0.00     0.012 A 
HETATM   21  C   UNL     1     -42.049  53.532 -52.824  1.00  0.00     0.037 A 
HETATM   22  C   UNL     1     -40.766  53.400 -53.341  1.00  0.00     0.065 A 
HETATM   23  C   UNL     1     -40.363  54.146 -54.439  1.00  0.00     0.037 A 
HETATM   24  C   UNL     1     -41.253  55.047 -55.027  1.00  0.00     0.012 A 
BRANCH  22  25
HETATM   25  O   UNL     1     -39.866  52.533 -52.795  1.00  0.00    -0.361 OA
HETATM   26  H   UNL     1     -39.818  51.745 -53.360  1.00  0.00     0.217 HD
ENDBRANCH  22  25
ENDBRANCH  12  19
TORSDOF 2
ENDMDL
MODEL 8
REMARK VINA RESULT:      -7.0      3.093      6.056
REMARK  2 active torsions:
REMARK  status: ('A' for Active; 'I' for Inactive)
REMARK    1  A    between atoms: C_12  and  C_13 
REMARK    2  A    between atoms: C_16  and  O_17 
ROOT
HETATM    1  C   UNL     1     -42.150  53.437 -54.713  1.00  0.00     0.002 A 
HETATM    2  C   UNL     1     -43.135  54.282 -54.206  1.00  0.00     0.026 A 
HETATM    3  C   UNL     1     -42.871  55.136 -53.124  1.00  0.00     0.036 A 
HETATM    4  C   UNL     1     -41.584  55.142 -52.538  1.00  0.00     0.053 A 
HETATM    5  N   UNL     1     -41.209  55.989 -51.470  1.00  0.00    -0.356 N 
HETATM    6  C   UNL     1     -41.705  57.249 -51.220  1.00  0.00     0.041 A 
HETATM    7  C   UNL     1     -42.781  57.852 -51.750  1.00  0.00     0.056 A 
HETATM    8  C   UNL     1     -42.859  59.195 -51.160  1.00  0.00     0.251 A 
HETATM    9  O   UNL     1     -43.726  60.022 -51.358  1.00  0.00    -0.268 OA
HETATM   10  N   UNL     1     -41.782  59.338 -50.325  1.00  0.00    -0.351 N 
HETATM   11  C   UNL     1     -40.985  58.160 -50.262  1.00  0.00     0.180 A 
HETATM   12  C   UNL     1     -43.823  57.364 -52.685  1.00  0.00     0.134 C 
HETATM   13  N   UNL     1     -43.958  55.893 -52.627  1.00  0.00    -0.278 NA
HETATM   14  C   UNL     1     -40.610  54.266 -53.054  1.00  0.00     0.031 A 
HETATM   15  C   UNL     1     -40.888  53.423 -54.132  1.00  0.00     0.002 A 
HETATM   16  H   UNL     1     -40.276  55.812 -51.109  1.00  0.00     0.166 HD
HETATM   17  H   UNL     1     -41.645  60.184 -49.789  1.00  0.00     0.163 HD
HETATM   18  H   UNL     1     -44.046  55.635 -51.644  1.00  0.00     0.128 HD
ENDROOT
BRANCH  12  19
HETATM   19  C   UNL     1     -43.728  57.864 -54.123  1.00  0.00    -0.035 A 
HETATM   20  C   UNL     1     -42.534  58.365 -54.673  1.00  0.00     0.012 A 
HETATM   21  C   UNL     1     -42.484  58.805 -56.000  1.00  0.00     0.037 A 
HETATM   22  C   UNL     1     -43.627  58.738 -56.788  1.00  0.00     0.065 A 
HETATM   23  C   UNL     1     -44.814  58.232 -56.276  1.00  0.00     0.037 A 
HETATM   24  C   UNL     1     -44.863  57.792 -54.952  1.00  0.00     0.012 A 
BRANCH  22  25
HETATM   25  O   UNL     1     -43.621  59.158 -58.085  1.00  0.00    -0.361 OA
HETATM   26  H   UNL     1     -43.221  60.042 -58.119  1.00  0.00     0.217 HD
ENDBRANCH  22  25
ENDBRANCH  12  19
TORSDOF 2
ENDMDL
MODEL 9
REMARK VINA RESULT:      -6.9      3.237      5.634
REMARK  2 active torsions:
REMARK  status: ('A' for Active; 'I' for Inactive)
REMARK    1  A    between atoms: C_12  and  C_13 
REMARK    2  A    between atoms: C_16  and  O_17 
ROOT
HETATM    1  C   UNL     1     -41.350  53.284 -54.507  1.00  0.00     0.002 A 
HETATM    2  C   UNL     1     -42.564  53.898 -54.806  1.00  0.00     0.026 A 
HETATM    3  C   UNL     1     -43.079  54.920 -53.994  1.00  0.00     0.036 A 
HETATM    4  C   UNL     1     -42.355  55.337 -52.854  1.00  0.00     0.053 A 
HETATM    5  N   UNL     1     -42.771  56.380 -51.994  1.00  0.00    -0.356 N 
HETATM    6  C   UNL     1     -43.506  57.487 -52.357  1.00  0.00     0.041 A 
HETATM    7  C   UNL     1     -44.181  57.715 -53.495  1.00  0.00     0.056 A 
HETATM    8  C   UNL     1     -44.776  59.053 -53.385  1.00  0.00     0.251 A 
HETATM    9  O   UNL     1     -45.500  59.592 -54.198  1.00  0.00    -0.268 OA
HETATM   10  N   UNL     1     -44.383  59.577 -52.182  1.00  0.00    -0.351 N 
HETATM   11  C   UNL     1     -43.588  58.668 -51.427  1.00  0.00     0.180 A 
HETATM   12  C   UNL     1     -44.439  56.856 -54.676  1.00  0.00     0.134 C 
HETATM   13  N   UNL     1     -44.359  55.421 -54.332  1.00  0.00    -0.278 NA
HETATM   14  C   UNL     1     -41.139  54.690 -52.560  1.00  0.00     0.031 A 
HETATM   15  C   UNL     1     -40.639  53.676 -53.379  1.00  0.00     0.002 A 
HETATM   16  H   UNL     1     -42.183  56.501 -51.175  1.00  0.00     0.166 HD
HETATM   17  H   UNL     1     -44.697  60.490 -51.881  1.00  0.00     0.163 HD
HETATM   18  H   UNL     1     -44.938  55.275 -53.506  1.00  0.00     0.128 HD
ENDROOT
BRANCH  12  19
HETATM   19  C   UNL     1     -43.636  57.180 -55.933  1.00  0.00    -0.035 A 
HETATM   20  C   UNL     1     -42.643  58.176 -55.963  1.00  0.00     0.012 A 
HETATM   21  C   UNL     1     -41.922  58.435 -57.132  1.00  0.00     0.037 A 
HETATM   22  C   UNL     1     -42.182  57.693 -58.278  1.00  0.00     0.065 A 
HETATM   23  C   UNL     1     -43.144  56.693 -58.272  1.00  0.00     0.037 A 
HETATM   24  C   UNL     1     -43.864  56.434 -57.104  1.00  0.00     0.012 A 
BRANCH  22  25
HETATM   25  O   UNL     1     -41.502  57.916 -59.439  1.00  0.00    -0.361 OA
HETATM   26  H   UNL     1     -41.962  57.452 -60.156  1.00  0.00     0.217 HD
ENDBRANCH  22  25
ENDBRANCH  12  19
TORSDOF 2
ENDMDL
MODEL 10
REMARK VINA RESULT:      -6.9      3.795      7.351
REMARK  2 active torsions:
REMARK  status: ('A' for Active; 'I' for Inactive)
REMARK    1  A    between atoms: C_12  and  C_13 
REMARK    2  A    between atoms: C_16  and  O_17 
ROOT
HETATM    1  C   UNL     1     -42.238  60.193 -61.197  1.00  0.00     0.002 A 
HETATM    2  C   UNL     1     -42.088  58.912 -60.668  1.00  0.00     0.026 A 
HETATM    3  C   UNL     1     -41.968  58.709 -59.285  1.00  0.00     0.036 A 
HETATM    4  C   UNL     1     -42.003  59.819 -58.411  1.00  0.00     0.053 A 
HETATM    5  N   UNL     1     -41.927  59.716 -57.003  1.00  0.00    -0.356 N 
HETATM    6  C   UNL     1     -42.384  58.665 -56.240  1.00  0.00     0.041 A 
HETATM    7  C   UNL     1     -42.769  57.441 -56.635  1.00  0.00     0.056 A 
HETATM    8  C   UNL     1     -43.186  56.709 -55.431  1.00  0.00     0.251 A 
HETATM    9  O   UNL     1     -43.553  55.552 -55.380  1.00  0.00    -0.268 OA
HETATM   10  N   UNL     1     -43.063  57.565 -54.369  1.00  0.00    -0.351 N 
HETATM   11  C   UNL     1     -42.542  58.834 -54.752  1.00  0.00     0.180 A 
HETATM   12  C   UNL     1     -42.754  56.785 -57.964  1.00  0.00     0.134 C 
HETATM   13  N   UNL     1     -41.734  57.382 -58.853  1.00  0.00    -0.278 NA
HETATM   14  C   UNL     1     -42.136  61.106 -58.968  1.00  0.00     0.031 A 
HETATM   15  C   UNL     1     -42.255  61.291 -60.347  1.00  0.00     0.002 A 
HETATM   16  H   UNL     1     -41.881  60.610 -56.524  1.00  0.00     0.166 HD
HETATM   17  H   UNL     1     -43.274  57.264 -53.427  1.00  0.00     0.163 HD
HETATM   18  H   UNL     1     -40.859  57.413 -58.330  1.00  0.00     0.128 HD
ENDROOT
BRANCH  12  19
HETATM   19  C   UNL     1     -44.102  56.650 -58.665  1.00  0.00    -0.035 A 
HETATM   20  C   UNL     1     -45.174  57.528 -58.424  1.00  0.00     0.012 A 
HETATM   21  C   UNL     1     -46.391  57.378 -59.095  1.00  0.00     0.037 A 
HETATM   22  C   UNL     1     -46.542  56.351 -60.019  1.00  0.00     0.065 A 
HETATM   23  C   UNL     1     -45.496  55.480 -60.290  1.00  0.00     0.037 A 
HETATM   24  C   UNL     1     -44.280  55.631 -59.621  1.00  0.00     0.012 A 
BRANCH  22  25
HETATM   25  O   UNL     1     -47.714  56.169 -60.694  1.00  0.00    -0.361 OA
HETATM   26  H   UNL     1     -47.508  55.814 -61.573  1.00  0.00     0.217 HD
ENDBRANCH  22  25
ENDBRANCH  12  19
TORSDOF 2
ENDMDL
