MODEL 1
REMARK VINA RESULT:      -7.7      0.000      0.000
REMARK  3 active torsions:
REMARK  status: ('A' for Active; 'I' for Inactive)
REMARK    1  A    between atoms: C_4  and  N_5 
REMARK       I    between atoms: N_5  and  C_6 
REMARK    2  A    between atoms: C_6  and  C_7 
REMARK    3  A    between atoms: C_7  and  C_8 
ROOT
HETATM    1  C   UNL     1     -42.172  55.149 -50.596  1.00  0.00     0.286 C 
HETATM    2  N   UNL     1     -41.488  55.865 -51.760  1.00  0.00    -0.056 N 
HETATM    3  H   UNL     1     -40.468  55.862 -51.549  1.00  0.00     0.278 HD
HETATM    4  H   UNL     1     -41.603  55.330 -52.629  1.00  0.00     0.278 HD
HETATM    5  C   UNL     1     -42.009  57.263 -51.895  1.00  0.00     0.209 C 
HETATM    6  C   UNL     1     -43.523  57.185 -52.198  1.00  0.00     0.115 C 
HETATM    7  N   UNL     1     -44.244  56.362 -51.229  1.00  0.00    -0.353 N 
HETATM    8  C   UNL     1     -43.710  55.194 -50.718  1.00  0.00     0.249 C 
HETATM    9  O   UNL     1     -44.443  54.299 -50.320  1.00  0.00    -0.271 OA
HETATM   10  C   UNL     1     -41.268  58.008 -52.996  1.00  0.00     0.035 C 
HETATM   11  C   UNL     1     -41.839  59.421 -53.139  1.00  0.00     0.002 C 
HETATM   12  C   UNL     1     -43.355  59.418 -53.353  1.00  0.00     0.002 C 
HETATM   13  C   UNL     1     -44.101  58.597 -52.298  1.00  0.00     0.027 C 
HETATM   14  H   UNL     1     -45.260  56.320 -51.307  1.00  0.00     0.163 HD
ENDROOT
BRANCH   1  15
HETATM   15  C   UNL     1     -41.651  53.716 -50.440  1.00  0.00     0.146 C 
BRANCH  15  16
HETATM   16  C   UNL     1     -40.144  53.726 -50.393  1.00  0.00     0.224 C 
HETATM   17  N   UNL     1     -39.383  52.908 -51.164  1.00  0.00    -0.327 N 
HETATM   18  H   UNL     1     -38.401  52.944 -50.903  1.00  0.00     0.169 HD
HETATM   19  O   UNL     1     -39.583  54.506 -49.610  1.00  0.00    -0.273 OA
BRANCH  17  20
HETATM   20  C   UNL     1     -39.685  52.006 -52.202  1.00  0.00     0.034 A 
HETATM   21  C   UNL     1     -40.158  52.361 -53.465  1.00  0.00     0.029 A 
HETATM   22  C   UNL     1     -40.429  51.377 -54.423  1.00  0.00     0.002 A 
HETATM   23  C   UNL     1     -40.218  50.032 -54.133  1.00  0.00     0.000 A 
HETATM   24  C   UNL     1     -39.718  49.668 -52.888  1.00  0.00     0.002 A 
HETATM   25  C   UNL     1     -39.445  50.651 -51.933  1.00  0.00     0.029 A 
ENDBRANCH  17  20
ENDBRANCH  15  16
ENDBRANCH   1  15
TORSDOF 3
ENDMDL
MODEL 2
REMARK VINA RESULT:      -7.7      2.049      2.117
REMARK  3 active torsions:
REMARK  status: ('A' for Active; 'I' for Inactive)
REMARK    1  A    between atoms: C_4  and  N_5 
REMARK       I    between atoms: N_5  and  C_6 
REMARK    2  A    between atoms: C_6  and  C_7 
REMARK    3  A    between atoms: C_7  and  C_8 
ROOT
HETATM    1  C   UNL     1     -42.346  55.170 -52.218  1.00  0.00     0.286 C 
HETATM    2  N   UNL     1     -42.407  54.765 -53.690  1.00  0.00    -0.056 N 
HETATM    3  H   UNL     1     -41.488  54.328 -53.914  1.00  0.00     0.278 HD
HETATM    4  H   UNL     1     -43.114  54.033 -53.834  1.00  0.00     0.278 HD
HETATM    5  C   UNL     1     -42.662  55.961 -54.554  1.00  0.00     0.209 C 
HETATM    6  C   UNL     1     -44.034  56.555 -54.160  1.00  0.00     0.115 C 
HETATM    7  N   UNL     1     -44.140  56.812 -52.725  1.00  0.00    -0.353 N 
HETATM    8  C   UNL     1     -43.606  55.950 -51.786  1.00  0.00     0.249 C 
HETATM    9  O   UNL     1     -44.080  55.890 -50.659  1.00  0.00    -0.271 OA
HETATM   10  C   UNL     1     -42.636  55.576 -56.026  1.00  0.00     0.035 C 
HETATM   11  C   UNL     1     -42.933  56.806 -56.889  1.00  0.00     0.002 C 
HETATM   12  C   UNL     1     -44.239  57.496 -56.489  1.00  0.00     0.002 C 
HETATM   13  C   UNL     1     -44.311  57.808 -54.991  1.00  0.00     0.027 C 
HETATM   14  H   UNL     1     -44.981  57.278 -52.388  1.00  0.00     0.163 HD
ENDROOT
BRANCH   1  15
HETATM   15  C   UNL     1     -42.084  53.959 -51.317  1.00  0.00     0.146 C 
BRANCH  15  16
HETATM   16  C   UNL     1     -40.652  53.978 -50.844  1.00  0.00     0.224 C 
HETATM   17  N   UNL     1     -39.744  53.045 -51.225  1.00  0.00    -0.327 N 
HETATM   18  H   UNL     1     -38.875  53.126 -50.704  1.00  0.00     0.169 HD
HETATM   19  O   UNL     1     -40.300  54.878 -50.067  1.00  0.00    -0.273 OA
BRANCH  17  20
HETATM   20  C   UNL     1     -39.781  51.984 -52.149  1.00  0.00     0.034 A 
HETATM   21  C   UNL     1     -39.978  52.119 -53.524  1.00  0.00     0.029 A 
HETATM   22  C   UNL     1     -40.001  50.991 -54.351  1.00  0.00     0.002 A 
HETATM   23  C   UNL     1     -39.815  49.719 -53.816  1.00  0.00     0.000 A 
HETATM   24  C   UNL     1     -39.589  49.574 -52.452  1.00  0.00     0.002 A 
HETATM   25  C   UNL     1     -39.563  50.701 -51.627  1.00  0.00     0.029 A 
ENDBRANCH  17  20
ENDBRANCH  15  16
ENDBRANCH   1  15
TORSDOF 3
ENDMDL
MODEL 3
REMARK VINA RESULT:      -7.5      2.008      2.715
REMARK  3 active torsions:
REMARK  status: ('A' for Active; 'I' for Inactive)
REMARK    1  A    between atoms: C_4  and  N_5 
REMARK       I    between atoms: N_5  and  C_6 
REMARK    2  A    between atoms: C_6  and  C_7 
REMARK    3  A    between atoms: C_7  and  C_8 
ROOT
HETATM    1  C   UNL     1     -42.873  55.613 -52.502  1.00  0.00     0.286 C 
HETATM    2  N   UNL     1     -43.844  56.363 -53.413  1.00  0.00    -0.056 N 
HETATM    3  H   UNL     1     -43.377  56.438 -54.342  1.00  0.00     0.278 HD
HETATM    4  H   UNL     1     -44.696  55.809 -53.565  1.00  0.00     0.278 HD
HETATM    5  C   UNL     1     -44.153  57.716 -52.851  1.00  0.00     0.209 C 
HETATM    6  C   UNL     1     -44.833  57.521 -51.476  1.00  0.00     0.115 C 
HETATM    7  N   UNL     1     -44.057  56.660 -50.586  1.00  0.00    -0.353 N 
HETATM    8  C   UNL     1     -43.389  55.542 -51.049  1.00  0.00     0.249 C 
HETATM    9  O   UNL     1     -43.165  54.600 -50.300  1.00  0.00    -0.271 OA
HETATM   10  C   UNL     1     -45.049  58.499 -53.799  1.00  0.00     0.035 C 
HETATM   11  C   UNL     1     -45.380  59.864 -53.189  1.00  0.00     0.002 C 
HETATM   12  C   UNL     1     -45.977  59.746 -51.784  1.00  0.00     0.002 C 
HETATM   13  C   UNL     1     -45.124  58.885 -50.849  1.00  0.00     0.027 C 
HETATM   14  H   UNL     1     -44.393  56.542 -49.631  1.00  0.00     0.163 HD
ENDROOT
BRANCH   1  15
HETATM   15  C   UNL     1     -42.543  54.225 -53.061  1.00  0.00     0.146 C 
BRANCH  15  16
HETATM   16  C   UNL     1     -41.476  54.345 -54.120  1.00  0.00     0.224 C 
HETATM   17  N   UNL     1     -40.455  53.458 -54.233  1.00  0.00    -0.327 N 
HETATM   18  H   UNL     1     -39.754  53.768 -54.902  1.00  0.00     0.169 HD
HETATM   19  O   UNL     1     -41.532  55.300 -54.909  1.00  0.00    -0.273 OA
BRANCH  17  20
HETATM   20  C   UNL     1     -40.159  52.242 -53.589  1.00  0.00     0.034 A 
HETATM   21  C   UNL     1     -39.835  52.103 -52.239  1.00  0.00     0.029 A 
HETATM   22  C   UNL     1     -39.554  50.840 -51.704  1.00  0.00     0.002 A 
HETATM   23  C   UNL     1     -39.606  49.705 -52.509  1.00  0.00     0.000 A 
HETATM   24  C   UNL     1     -39.955  49.828 -53.848  1.00  0.00     0.002 A 
HETATM   25  C   UNL     1     -40.239  51.087 -54.382  1.00  0.00     0.029 A 
ENDBRANCH  17  20
ENDBRANCH  15  16
ENDBRANCH   1  15
TORSDOF 3
ENDMDL
MODEL 4
REMARK VINA RESULT:      -7.5      2.252      6.106
REMARK  3 active torsions:
REMARK  status: ('A' for Active; 'I' for Inactive)
REMARK    1  A    between atoms: C_4  and  N_5 
REMARK       I    between atoms: N_5  and  C_6 
REMARK    2  A    between atoms: C_6  and  C_7 
REMARK    3  A    between atoms: C_7  and  C_8 
ROOT
HETATM    1  C   UNL     1     -41.447  54.058 -51.653  1.00  0.00     0.286 C 
HETATM    2  N   UNL     1     -40.813  53.601 -52.966  1.00  0.00    -0.056 N 
HETATM    3  H   UNL     1     -41.438  53.939 -53.728  1.00  0.00     0.278 HD
HETATM    4  H   UNL     1     -39.909  54.066 -53.110  1.00  0.00     0.278 HD
HETATM    5  C   UNL     1     -40.683  52.109 -52.996  1.00  0.00     0.209 C 
HETATM    6  C   UNL     1     -39.751  51.685 -51.836  1.00  0.00     0.115 C 
HETATM    7  N   UNL     1     -40.178  52.229 -50.549  1.00  0.00    -0.353 N 
HETATM    8  C   UNL     1     -40.685  53.509 -50.427  1.00  0.00     0.249 C 
HETATM    9  O   UNL     1     -40.588  54.116 -49.369  1.00  0.00    -0.271 OA
HETATM   10  C   UNL     1     -40.134  51.644 -54.337  1.00  0.00     0.035 C 
HETATM   11  C   UNL     1     -39.977  50.122 -54.332  1.00  0.00     0.002 C 
HETATM   12  C   UNL     1     -39.135  49.626 -53.153  1.00  0.00     0.002 C 
HETATM   13  C   UNL     1     -39.629  50.161 -51.806  1.00  0.00     0.027 C 
HETATM   14  H   UNL     1     -39.667  51.935 -49.718  1.00  0.00     0.163 HD
ENDROOT
BRANCH   1  15
HETATM   15  C   UNL     1     -41.591  55.582 -51.604  1.00  0.00     0.146 C 
BRANCH  15  16
HETATM   16  C   UNL     1     -43.051  55.956 -51.639  1.00  0.00     0.224 C 
HETATM   17  N   UNL     1     -43.732  56.136 -52.799  1.00  0.00    -0.327 N 
HETATM   18  H   UNL     1     -44.659  56.522 -52.640  1.00  0.00     0.169 HD
HETATM   19  O   UNL     1     -43.645  56.115 -50.563  1.00  0.00    -0.273 OA
BRANCH  17  20
HETATM   20  C   UNL     1     -43.399  55.938 -54.152  1.00  0.00     0.034 A 
HETATM   21  C   UNL     1     -42.914  56.922 -55.015  1.00  0.00     0.029 A 
HETATM   22  C   UNL     1     -42.619  56.614 -56.348  1.00  0.00     0.002 A 
HETATM   23  C   UNL     1     -42.793  55.318 -56.828  1.00  0.00     0.000 A 
HETATM   24  C   UNL     1     -43.247  54.323 -55.971  1.00  0.00     0.002 A 
HETATM   25  C   UNL     1     -43.539  54.630 -54.639  1.00  0.00     0.029 A 
ENDBRANCH  17  20
ENDBRANCH  15  16
ENDBRANCH   1  15
TORSDOF 3
ENDMDL
MODEL 5
REMARK VINA RESULT:      -7.4      4.187      5.115
REMARK  3 active torsions:
REMARK  status: ('A' for Active; 'I' for Inactive)
REMARK    1  A    between atoms: C_4  and  N_5 
REMARK       I    between atoms: N_5  and  C_6 
REMARK    2  A    between atoms: C_6  and  C_7 
REMARK    3  A    between atoms: C_7  and  C_8 
ROOT
HETATM    1  C   UNL     1     -43.697  56.919 -54.964  1.00  0.00     0.286 C 
HETATM    2  N   UNL     1     -42.729  57.750 -55.805  1.00  0.00    -0.056 N 
HETATM    3  H   UNL     1     -42.870  58.743 -55.522  1.00  0.00     0.278 HD
HETATM    4  H   UNL     1     -41.757  57.520 -55.568  1.00  0.00     0.278 HD
HETATM    5  C   UNL     1     -43.005  57.559 -57.265  1.00  0.00     0.209 C 
HETATM    6  C   UNL     1     -42.783  56.067 -57.605  1.00  0.00     0.115 C 
HETATM    7  N   UNL     1     -43.538  55.176 -56.726  1.00  0.00    -0.353 N 
HETATM    8  C   UNL     1     -43.684  55.432 -55.376  1.00  0.00     0.249 C 
HETATM    9  O   UNL     1     -43.871  54.514 -54.588  1.00  0.00    -0.271 OA
HETATM   10  C   UNL     1     -42.101  58.452 -58.103  1.00  0.00     0.035 C 
HETATM   11  C   UNL     1     -42.376  58.216 -59.591  1.00  0.00     0.002 C 
HETATM   12  C   UNL     1     -42.261  56.739 -59.977  1.00  0.00     0.002 C 
HETATM   13  C   UNL     1     -43.100  55.824 -59.081  1.00  0.00     0.027 C 
HETATM   14  H   UNL     1     -43.513  54.178 -56.930  1.00  0.00     0.163 HD
ENDROOT
BRANCH   1  15
HETATM   15  C   UNL     1     -43.432  57.102 -53.466  1.00  0.00     0.146 C 
BRANCH  15  16
HETATM   16  C   UNL     1     -42.035  57.631 -53.258  1.00  0.00     0.224 C 
HETATM   17  N   UNL     1     -40.946  56.822 -53.220  1.00  0.00    -0.327 N 
HETATM   18  H   UNL     1     -40.110  57.324 -52.930  1.00  0.00     0.169 HD
HETATM   19  O   UNL     1     -41.883  58.851 -53.105  1.00  0.00    -0.273 OA
BRANCH  17  20
HETATM   20  C   UNL     1     -40.757  55.447 -53.455  1.00  0.00     0.034 A 
HETATM   21  C   UNL     1     -40.985  54.432 -52.525  1.00  0.00     0.029 A 
HETATM   22  C   UNL     1     -40.759  53.094 -52.867  1.00  0.00     0.002 A 
HETATM   23  C   UNL     1     -40.317  52.756 -54.143  1.00  0.00     0.000 A 
HETATM   24  C   UNL     1     -40.114  53.756 -55.087  1.00  0.00     0.002 A 
HETATM   25  C   UNL     1     -40.343  55.092 -54.747  1.00  0.00     0.029 A 
ENDBRANCH  17  20
ENDBRANCH  15  16
ENDBRANCH   1  15
TORSDOF 3
ENDMDL
MODEL 6
REMARK VINA RESULT:      -7.4      2.270      2.676
REMARK  3 active torsions:
REMARK  status: ('A' for Active; 'I' for Inactive)
REMARK    1  A    between atoms: C_4  and  N_5 
REMARK       I    between atoms: N_5  and  C_6 
REMARK    2  A    between atoms: C_6  and  C_7 
REMARK    3  A    between atoms: C_7  and  C_8 
ROOT
HETATM    1  C   UNL     1     -42.767  55.406 -52.608  1.00  0.00     0.286 C 
HETATM    2  N   UNL     1     -41.499  56.110 -52.128  1.00  0.00    -0.056 N 
HETATM    3  H   UNL     1     -40.981  55.418 -51.544  1.00  0.00     0.278 HD
HETATM    4  H   UNL     1     -40.886  56.329 -52.922  1.00  0.00     0.278 HD
HETATM    5  C   UNL     1     -41.844  57.334 -51.338  1.00  0.00     0.209 C 
HETATM    6  C   UNL     1     -42.613  58.303 -52.266  1.00  0.00     0.115 C 
HETATM    7  N   UNL     1     -43.753  57.664 -52.920  1.00  0.00    -0.353 N 
HETATM    8  C   UNL     1     -43.695  56.364 -53.385  1.00  0.00     0.249 C 
HETATM    9  O   UNL     1     -44.411  56.004 -54.310  1.00  0.00    -0.271 OA
HETATM   10  C   UNL     1     -40.587  57.988 -50.784  1.00  0.00     0.035 C 
HETATM   11  C   UNL     1     -40.961  59.256 -50.010  1.00  0.00     0.002 C 
HETATM   12  C   UNL     1     -41.803  60.222 -50.847  1.00  0.00     0.002 C 
HETATM   13  C   UNL     1     -43.023  59.550 -51.481  1.00  0.00     0.027 C 
HETATM   14  H   UNL     1     -44.362  58.251 -53.488  1.00  0.00     0.163 HD
ENDROOT
BRANCH   1  15
HETATM   15  C   UNL     1     -42.434  54.148 -53.418  1.00  0.00     0.146 C 
BRANCH  15  16
HETATM   16  C   UNL     1     -41.158  54.365 -54.191  1.00  0.00     0.224 C 
HETATM   17  N   UNL     1     -40.138  53.470 -54.183  1.00  0.00    -0.327 N 
HETATM   18  H   UNL     1     -39.306  53.838 -54.637  1.00  0.00     0.169 HD
HETATM   19  O   UNL     1     -41.037  55.408 -54.849  1.00  0.00    -0.273 OA
BRANCH  17  20
HETATM   20  C   UNL     1     -39.993  52.178 -53.644  1.00  0.00     0.034 A 
HETATM   21  C   UNL     1     -40.081  50.988 -54.368  1.00  0.00     0.029 A 
HETATM   22  C   UNL     1     -39.923  49.754 -53.727  1.00  0.00     0.002 A 
HETATM   23  C   UNL     1     -39.664  49.697 -52.360  1.00  0.00     0.000 A 
HETATM   24  C   UNL     1     -39.544  50.876 -51.634  1.00  0.00     0.002 A 
HETATM   25  C   UNL     1     -39.698  52.108 -52.275  1.00  0.00     0.029 A 
ENDBRANCH  17  20
ENDBRANCH  15  16
ENDBRANCH   1  15
TORSDOF 3
ENDMDL
MODEL 7
REMARK VINA RESULT:      -7.3      3.978      6.892
REMARK  3 active torsions:
REMARK  status: ('A' for Active; 'I' for Inactive)
REMARK    1  A    between atoms: C_4  and  N_5 
REMARK       I    between atoms: N_5  and  C_6 
REMARK    2  A    between atoms: C_6  and  C_7 
REMARK    3  A    between atoms: C_7  and  C_8 
ROOT
HETATM    1  C   UNL     1     -42.220  55.530 -53.805  1.00  0.00     0.286 C 
HETATM    2  N   UNL     1     -41.245  54.571 -54.487  1.00  0.00    -0.056 N 
HETATM    3  H   UNL     1     -41.667  54.328 -55.408  1.00  0.00     0.278 HD
HETATM    4  H   UNL     1     -40.359  55.048 -54.696  1.00  0.00     0.278 HD
HETATM    5  C   UNL     1     -41.034  53.349 -53.648  1.00  0.00     0.209 C 
HETATM    6  C   UNL     1     -40.415  53.792 -52.302  1.00  0.00     0.115 C 
HETATM    7  N   UNL     1     -41.188  54.847 -51.651  1.00  0.00    -0.353 N 
HETATM    8  C   UNL     1     -41.774  55.873 -52.367  1.00  0.00     0.249 C 
HETATM    9  O   UNL     1     -41.987  56.956 -51.838  1.00  0.00    -0.271 OA
HETATM   10  C   UNL     1     -40.133  52.354 -54.364  1.00  0.00     0.035 C 
HETATM   11  C   UNL     1     -39.904  51.129 -53.475  1.00  0.00     0.002 C 
HETATM   12  C   UNL     1     -39.373  51.507 -52.089  1.00  0.00     0.002 C 
HETATM   13  C   UNL     1     -40.226  52.574 -51.397  1.00  0.00     0.027 C 
HETATM   14  H   UNL     1     -40.896  55.143 -50.721  1.00  0.00     0.163 HD
ENDROOT
BRANCH   1  15
HETATM   15  C   UNL     1     -42.450  56.787 -54.650  1.00  0.00     0.146 C 
BRANCH  15  16
HETATM   16  C   UNL     1     -43.877  56.818 -55.136  1.00  0.00     0.224 C 
HETATM   17  N   UNL     1     -44.201  57.001 -56.441  1.00  0.00    -0.327 N 
HETATM   18  H   UNL     1     -45.200  57.138 -56.569  1.00  0.00     0.169 HD
HETATM   19  O   UNL     1     -44.786  56.681 -54.304  1.00  0.00    -0.273 OA
BRANCH  17  20
HETATM   20  C   UNL     1     -43.439  57.081 -57.621  1.00  0.00     0.034 A 
HETATM   21  C   UNL     1     -42.654  58.170 -58.002  1.00  0.00     0.029 A 
HETATM   22  C   UNL     1     -41.937  58.142 -59.204  1.00  0.00     0.002 A 
HETATM   23  C   UNL     1     -41.989  57.022 -60.030  1.00  0.00     0.000 A 
HETATM   24  C   UNL     1     -42.744  55.920 -59.648  1.00  0.00     0.002 A 
HETATM   25  C   UNL     1     -43.456  55.946 -58.446  1.00  0.00     0.029 A 
ENDBRANCH  17  20
ENDBRANCH  15  16
ENDBRANCH   1  15
TORSDOF 3
ENDMDL
MODEL 8
REMARK VINA RESULT:      -7.3      4.500      6.967
REMARK  3 active torsions:
REMARK  status: ('A' for Active; 'I' for Inactive)
REMARK    1  A    between atoms: C_4  and  N_5 
REMARK       I    between atoms: N_5  and  C_6 
REMARK    2  A    between atoms: C_6  and  C_7 
REMARK    3  A    between atoms: C_7  and  C_8 
ROOT
HETATM    1  C   UNL     1     -43.100  54.730 -54.179  1.00  0.00     0.286 C 
HETATM    2  N   UNL     1     -41.861  54.031 -54.736  1.00  0.00    -0.056 N 
HETATM    3  H   UNL     1     -42.147  53.602 -55.642  1.00  0.00     0.278 HD
HETATM    4  H   UNL     1     -41.132  54.719 -54.963  1.00  0.00     0.278 HD
HETATM    5  C   UNL     1     -41.366  52.993 -53.777  1.00  0.00     0.209 C 
HETATM    6  C   UNL     1     -40.971  53.703 -52.462  1.00  0.00     0.115 C 
HETATM    7  N   UNL     1     -42.042  54.548 -51.939  1.00  0.00    -0.353 N 
HETATM    8  C   UNL     1     -42.849  55.304 -52.768  1.00  0.00     0.249 C 
HETATM    9  O   UNL     1     -43.383  56.323 -52.352  1.00  0.00    -0.271 OA
HETATM   10  C   UNL     1     -40.186  52.235 -54.367  1.00  0.00     0.035 C 
HETATM   11  C   UNL     1     -39.676  51.204 -53.357  1.00  0.00     0.002 C 
HETATM   12  C   UNL     1     -39.349  51.830 -51.999  1.00  0.00     0.002 C 
HETATM   13  C   UNL     1     -40.502  52.667 -51.439  1.00  0.00     0.027 C 
HETATM   14  H   UNL     1     -41.896  54.991 -51.033  1.00  0.00     0.163 HD
ENDROOT
BRANCH   1  15
HETATM   15  C   UNL     1     -43.623  55.796 -55.147  1.00  0.00     0.146 C 
BRANCH  15  16
HETATM   16  C   UNL     1     -42.477  56.355 -55.953  1.00  0.00     0.224 C 
HETATM   17  N   UNL     1     -42.509  56.439 -57.307  1.00  0.00    -0.327 N 
HETATM   18  H   UNL     1     -41.606  56.703 -57.693  1.00  0.00     0.169 HD
HETATM   19  O   UNL     1     -41.465  56.740 -55.350  1.00  0.00    -0.273 OA
BRANCH  17  20
HETATM   20  C   UNL     1     -43.511  56.197 -58.265  1.00  0.00     0.034 A 
HETATM   21  C   UNL     1     -43.677  55.006 -58.974  1.00  0.00     0.029 A 
HETATM   22  C   UNL     1     -44.711  54.876 -59.909  1.00  0.00     0.002 A 
HETATM   23  C   UNL     1     -45.594  55.928 -60.136  1.00  0.00     0.000 A 
HETATM   24  C   UNL     1     -45.457  57.109 -59.415  1.00  0.00     0.002 A 
HETATM   25  C   UNL     1     -44.427  57.237 -58.479  1.00  0.00     0.029 A 
ENDBRANCH  17  20
ENDBRANCH  15  16
ENDBRANCH   1  15
TORSDOF 3
ENDMDL
MODEL 9
REMARK VINA RESULT:      -7.2      2.325      6.620
REMARK  3 active torsions:
REMARK  status: ('A' for Active; 'I' for Inactive)
REMARK    1  A    between atoms: C_4  and  N_5 
REMARK       I    between atoms: N_5  and  C_6 
REMARK    2  A    between atoms: C_6  and  C_7 
REMARK    3  A    between atoms: C_7  and  C_8 
ROOT
HETATM    1  C   UNL     1     -42.975  55.293 -53.059  1.00  0.00     0.286 C 
HETATM    2  N   UNL     1     -41.878  54.673 -53.923  1.00  0.00    -0.056 N 
HETATM    3  H   UNL     1     -42.304  54.495 -54.857  1.00  0.00     0.278 HD
HETATM    4  H   UNL     1     -41.119  55.348 -54.079  1.00  0.00     0.278 HD
HETATM    5  C   UNL     1     -41.376  53.405 -53.305  1.00  0.00     0.209 C 
HETATM    6  C   UNL     1     -40.769  53.749 -51.925  1.00  0.00     0.115 C 
HETATM    7  N   UNL     1     -41.690  54.509 -51.083  1.00  0.00    -0.353 N 
HETATM    8  C   UNL     1     -42.512  55.492 -51.600  1.00  0.00     0.249 C 
HETATM    9  O   UNL     1     -42.899  56.413 -50.891  1.00  0.00    -0.271 OA
HETATM   10  C   UNL     1     -40.346  52.739 -54.206  1.00  0.00     0.035 C 
HETATM   11  C   UNL     1     -39.822  51.464 -53.540  1.00  0.00     0.002 C 
HETATM   12  C   UNL     1     -39.286  51.721 -52.129  1.00  0.00     0.002 C 
HETATM   13  C   UNL     1     -40.285  52.470 -51.242  1.00  0.00     0.027 C 
HETATM   14  H   UNL     1     -41.401  54.710 -50.127  1.00  0.00     0.163 HD
ENDROOT
BRANCH   1  15
HETATM   15  C   UNL     1     -43.503  56.593 -53.675  1.00  0.00     0.146 C 
BRANCH  15  16
HETATM   16  C   UNL     1     -42.430  57.224 -54.526  1.00  0.00     0.224 C 
HETATM   17  N   UNL     1     -41.641  58.233 -54.078  1.00  0.00    -0.327 N 
HETATM   18  H   UNL     1     -41.076  58.632 -54.822  1.00  0.00     0.169 HD
HETATM   19  O   UNL     1     -42.275  56.808 -55.684  1.00  0.00    -0.273 OA
BRANCH  17  20
HETATM   20  C   UNL     1     -41.486  58.851 -52.823  1.00  0.00     0.034 A 
HETATM   21  C   UNL     1     -42.403  59.723 -52.236  1.00  0.00     0.029 A 
HETATM   22  C   UNL     1     -42.144  60.285 -50.980  1.00  0.00     0.002 A 
HETATM   23  C   UNL     1     -40.974  59.971 -50.295  1.00  0.00     0.000 A 
HETATM   24  C   UNL     1     -40.066  59.080 -50.856  1.00  0.00     0.002 A 
HETATM   25  C   UNL     1     -40.327  58.517 -52.108  1.00  0.00     0.029 A 
ENDBRANCH  17  20
ENDBRANCH  15  16
ENDBRANCH   1  15
TORSDOF 3
ENDMDL
MODEL 10
REMARK VINA RESULT:      -7.1     14.268     16.530
REMARK  3 active torsions:
REMARK  status: ('A' for Active; 'I' for Inactive)
REMARK    1  A    between atoms: C_4  and  N_5 
REMARK       I    between atoms: N_5  and  C_6 
REMARK    2  A    between atoms: C_6  and  C_7 
REMARK    3  A    between atoms: C_7  and  C_8 
ROOT
HETATM    1  C   UNL     1     -34.333  40.455 -54.022  1.00  0.00     0.286 C 
HETATM    2  N   UNL     1     -33.929  41.115 -52.704  1.00  0.00    -0.056 N 
HETATM    3  H   UNL     1     -33.123  41.739 -52.922  1.00  0.00     0.278 HD
HETATM    4  H   UNL     1     -34.680  41.728 -52.363  1.00  0.00     0.278 HD
HETATM    5  C   UNL     1     -33.553  40.079 -51.690  1.00  0.00     0.209 C 
HETATM    6  C   UNL     1     -34.793  39.193 -51.427  1.00  0.00     0.115 C 
HETATM    7  N   UNL     1     -35.366  38.654 -52.659  1.00  0.00    -0.353 N 
HETATM    8  C   UNL     1     -35.442  39.402 -53.818  1.00  0.00     0.249 C 
HETATM    9  O   UNL     1     -36.305  39.163 -54.654  1.00  0.00    -0.271 OA
HETATM   10  C   UNL     1     -33.067  40.735 -50.406  1.00  0.00     0.035 C 
HETATM   11  C   UNL     1     -32.721  39.659 -49.374  1.00  0.00     0.002 C 
HETATM   12  C   UNL     1     -33.881  38.690 -49.132  1.00  0.00     0.002 C 
HETATM   13  C   UNL     1     -34.435  38.092 -50.428  1.00  0.00     0.027 C 
HETATM   14  H   UNL     1     -36.138  37.995 -52.572  1.00  0.00     0.163 HD
ENDROOT
BRANCH   1  15
HETATM   15  C   UNL     1     -34.719  41.500 -55.074  1.00  0.00     0.146 C 
BRANCH  15  16
HETATM   16  C   UNL     1     -35.995  42.189 -54.661  1.00  0.00     0.224 C 
HETATM   17  N   UNL     1     -37.076  42.276 -55.477  1.00  0.00    -0.327 N 
HETATM   18  H   UNL     1     -37.790  42.892 -55.098  1.00  0.00     0.169 HD
HETATM   19  O   UNL     1     -36.050  42.703 -53.534  1.00  0.00    -0.273 OA
BRANCH  17  20
HETATM   20  C   UNL     1     -37.378  41.729 -56.738  1.00  0.00     0.034 A 
HETATM   21  C   UNL     1     -38.220  40.640 -56.963  1.00  0.00     0.029 A 
HETATM   22  C   UNL     1     -38.448  40.175 -58.264  1.00  0.00     0.002 A 
HETATM   23  C   UNL     1     -37.847  40.802 -59.352  1.00  0.00     0.000 A 
HETATM   24  C   UNL     1     -37.029  41.907 -59.143  1.00  0.00     0.002 A 
HETATM   25  C   UNL     1     -36.805  42.372 -57.845  1.00  0.00     0.029 A 
ENDBRANCH  17  20
ENDBRANCH  15  16
ENDBRANCH   1  15
TORSDOF 3
ENDMDL
