MODEL 1
REMARK VINA RESULT:      -8.0      0.000      0.000
REMARK  6 active torsions:
REMARK  status: ('A' for Active; 'I' for Inactive)
REMARK    1  A    between atoms: C_2  and  O_3 
REMARK    2  A    between atoms: O_3  and  C_4 
REMARK    3  A    between atoms: C_5  and  O_6 
REMARK    4  A    between atoms: C_10  and  C_11 
REMARK    5  A    between atoms: C_20  and  C_21 
REMARK       I    between atoms: C_21  and  N_22 
REMARK    6  A    between atoms: N_22  and  C_23 
ROOT
HETATM    1  C   UNL     1     -42.487  55.100 -51.840  1.00  0.00     0.202 C 
HETATM    2  N   UNL     1     -41.693  54.529 -50.747  1.00  0.00    -0.084 N 
HETATM    3  C   UNL     1     -40.554  53.794 -50.930  1.00  0.00     0.725 A 
HETATM    4  N   UNL     1     -40.075  53.435 -49.768  1.00  0.00    -0.054 NA
HETATM    5  C   UNL     1     -40.991  53.955 -48.889  1.00  0.00     0.275 A 
HETATM    6  N   UNL     1     -42.011  54.625 -49.439  1.00  0.00    -0.149 NA
HETATM    7  N   UNL     1     -40.136  53.525 -52.182  1.00  0.00    -0.192 N 
HETATM    8  C   UNL     1     -40.898  53.810 -53.312  1.00  0.00     0.037 C 
HETATM    9  C   UNL     1     -40.440  53.139 -54.584  1.00  0.00     0.070 C 
HETATM   10  C   UNL     1     -42.011  54.579 -53.195  1.00  0.00     0.062 C 
HETATM   11  H   UNL     1     -39.370  52.863 -52.288  1.00  0.00     0.184 HD
ENDROOT
BRANCH   1  12
HETATM   12  C   UNL     1     -42.456  56.627 -51.746  1.00  0.00    -0.024 A 
HETATM   13  C   UNL     1     -43.631  57.321 -51.406  1.00  0.00     0.031 A 
HETATM   14  C   UNL     1     -43.620  58.710 -51.264  1.00  0.00     0.047 A 
HETATM   15  C   UNL     1     -42.435  59.415 -51.468  1.00  0.00     0.116 A 
HETATM   16 BR   UNL     1     -45.228  59.587 -50.779  1.00  0.00    -0.048 Br
HETATM   17  C   UNL     1     -41.254  58.747 -51.819  1.00  0.00     0.103 A 
HETATM   18  C   UNL     1     -41.267  57.356 -51.953  1.00  0.00     0.049 A 
BRANCH  15  19
HETATM   19  O   UNL     1     -42.403  60.779 -51.321  1.00  0.00    -0.357 OA
HETATM   20  H   UNL     1     -42.736  60.951 -50.420  1.00  0.00     0.218 HD
ENDBRANCH  15  19
BRANCH  17  21
HETATM   21  O   UNL     1     -40.164  59.563 -51.991  1.00  0.00    -0.349 OA
BRANCH  21  22
HETATM   22  C   UNL     1     -38.949  59.170 -51.353  1.00  0.00     0.171 C 
HETATM   23  C   UNL     1     -38.838  59.940 -50.049  1.00  0.00     0.034 C 
ENDBRANCH  21  22
ENDBRANCH  17  21
ENDBRANCH   1  12
BRANCH  10  24
HETATM   24  C   UNL     1     -42.949  54.877 -54.313  1.00  0.00     0.256 C 
HETATM   25  N   UNL     1     -42.503  55.866 -55.162  1.00  0.00    -0.323 N 
HETATM   26  H   UNL     1     -41.623  56.311 -54.935  1.00  0.00     0.169 HD
HETATM   27  O   UNL     1     -44.011  54.272 -54.362  1.00  0.00    -0.267 OA
BRANCH  25  28
HETATM   28  C   UNL     1     -43.109  56.296 -56.362  1.00  0.00     0.035 A 
HETATM   29  C   UNL     1     -43.890  57.448 -56.474  1.00  0.00     0.029 A 
HETATM   30  C   UNL     1     -44.481  57.788 -57.695  1.00  0.00     0.002 A 
HETATM   31  C   UNL     1     -44.303  56.977 -58.813  1.00  0.00     0.000 A 
HETATM   32  C   UNL     1     -43.525  55.827 -58.713  1.00  0.00     0.002 A 
HETATM   33  C   UNL     1     -42.926  55.491 -57.495  1.00  0.00     0.029 A 
ENDBRANCH  25  28
ENDBRANCH  10  24
TORSDOF 6
ENDMDL
MODEL 2
REMARK VINA RESULT:      -7.8      2.049      5.545
REMARK  6 active torsions:
REMARK  status: ('A' for Active; 'I' for Inactive)
REMARK    1  A    between atoms: C_2  and  O_3 
REMARK    2  A    between atoms: O_3  and  C_4 
REMARK    3  A    between atoms: C_5  and  O_6 
REMARK    4  A    between atoms: C_10  and  C_11 
REMARK    5  A    between atoms: C_20  and  C_21 
REMARK       I    between atoms: C_21  and  N_22 
REMARK    6  A    between atoms: N_22  and  C_23 
ROOT
HETATM    1  C   UNL     1     -41.737  57.569 -55.193  1.00  0.00     0.202 C 
HETATM    2  N   UNL     1     -42.556  58.314 -56.155  1.00  0.00    -0.084 N 
HETATM    3  C   UNL     1     -43.605  57.774 -56.848  1.00  0.00     0.725 A 
HETATM    4  N   UNL     1     -44.136  58.688 -57.617  1.00  0.00    -0.054 NA
HETATM    5  C   UNL     1     -43.343  59.782 -57.381  1.00  0.00     0.275 A 
HETATM    6  N   UNL     1     -42.349  59.602 -56.502  1.00  0.00    -0.149 NA
HETATM    7  N   UNL     1     -43.900  56.469 -56.689  1.00  0.00    -0.192 N 
HETATM    8  C   UNL     1     -43.083  55.589 -55.984  1.00  0.00     0.037 C 
HETATM    9  C   UNL     1     -43.379  54.125 -56.197  1.00  0.00     0.070 C 
HETATM   10  C   UNL     1     -42.058  56.076 -55.238  1.00  0.00     0.062 C 
HETATM   11  H   UNL     1     -44.591  56.065 -57.317  1.00  0.00     0.184 HD
ENDROOT
BRANCH   1  12
HETATM   12  C   UNL     1     -41.916  58.174 -53.799  1.00  0.00    -0.024 A 
HETATM   13  C   UNL     1     -43.167  58.085 -53.164  1.00  0.00     0.031 A 
HETATM   14  C   UNL     1     -43.345  58.583 -51.871  1.00  0.00     0.047 A 
HETATM   15  C   UNL     1     -42.274  59.179 -51.209  1.00  0.00     0.116 A 
HETATM   16 BR   UNL     1     -45.047  58.411 -51.057  1.00  0.00    -0.048 Br
HETATM   17  C   UNL     1     -41.020  59.291 -51.826  1.00  0.00     0.103 A 
HETATM   18  C   UNL     1     -40.844  58.784 -53.115  1.00  0.00     0.049 A 
BRANCH  15  19
HETATM   19  O   UNL     1     -42.428  59.665 -49.934  1.00  0.00    -0.357 OA
HETATM   20  H   UNL     1     -41.604  59.429 -49.465  1.00  0.00     0.218 HD
ENDBRANCH  15  19
BRANCH  17  21
HETATM   21  O   UNL     1     -40.057  59.901 -51.061  1.00  0.00    -0.349 OA
BRANCH  21  22
HETATM   22  C   UNL     1     -38.811  59.221 -50.917  1.00  0.00     0.171 C 
HETATM   23  C   UNL     1     -38.020  59.922 -49.828  1.00  0.00     0.034 C 
ENDBRANCH  21  22
ENDBRANCH  17  21
ENDBRANCH   1  12
BRANCH  10  24
HETATM   24  C   UNL     1     -41.069  55.230 -54.513  1.00  0.00     0.256 C 
HETATM   25  N   UNL     1     -41.635  54.398 -53.573  1.00  0.00    -0.323 N 
HETATM   26  H   UNL     1     -42.636  54.461 -53.439  1.00  0.00     0.169 HD
HETATM   27  O   UNL     1     -39.882  55.366 -54.775  1.00  0.00    -0.267 OA
BRANCH  25  28
HETATM   28  C   UNL     1     -40.981  53.410 -52.806  1.00  0.00     0.035 A 
HETATM   29  C   UNL     1     -40.904  53.427 -51.412  1.00  0.00     0.029 A 
HETATM   30  C   UNL     1     -40.209  52.425 -50.728  1.00  0.00     0.002 A 
HETATM   31  C   UNL     1     -39.580  51.400 -51.430  1.00  0.00     0.000 A 
HETATM   32  C   UNL     1     -39.653  51.371 -52.821  1.00  0.00     0.002 A 
HETATM   33  C   UNL     1     -40.354  52.368 -53.505  1.00  0.00     0.029 A 
ENDBRANCH  25  28
ENDBRANCH  10  24
TORSDOF 6
ENDMDL
MODEL 3
REMARK VINA RESULT:      -7.7      3.319      6.078
REMARK  6 active torsions:
REMARK  status: ('A' for Active; 'I' for Inactive)
REMARK    1  A    between atoms: C_2  and  O_3 
REMARK    2  A    between atoms: O_3  and  C_4 
REMARK    3  A    between atoms: C_5  and  O_6 
REMARK    4  A    between atoms: C_10  and  C_11 
REMARK    5  A    between atoms: C_20  and  C_21 
REMARK       I    between atoms: C_21  and  N_22 
REMARK    6  A    between atoms: N_22  and  C_23 
ROOT
HETATM    1  C   UNL     1     -43.806  57.199 -53.196  1.00  0.00     0.202 C 
HETATM    2  N   UNL     1     -44.235  58.487 -52.642  1.00  0.00    -0.084 N 
HETATM    3  C   UNL     1     -43.671  59.073 -51.541  1.00  0.00     0.725 A 
HETATM    4  N   UNL     1     -44.265  60.213 -51.302  1.00  0.00    -0.054 NA
HETATM    5  C   UNL     1     -45.224  60.267 -52.281  1.00  0.00     0.275 A 
HETATM    6  N   UNL     1     -45.257  59.225 -53.121  1.00  0.00    -0.149 NA
HETATM    7  N   UNL     1     -42.688  58.430 -50.880  1.00  0.00    -0.192 N 
HETATM    8  C   UNL     1     -42.328  57.113 -51.155  1.00  0.00     0.037 C 
HETATM    9  C   UNL     1     -41.466  56.449 -50.109  1.00  0.00     0.070 C 
HETATM   10  C   UNL     1     -42.818  56.500 -52.263  1.00  0.00     0.062 C 
HETATM   11  H   UNL     1     -42.387  58.822 -49.991  1.00  0.00     0.184 HD
ENDROOT
BRANCH   1  12
HETATM   12  C   UNL     1     -43.243  57.415 -54.603  1.00  0.00    -0.024 A 
HETATM   13  C   UNL     1     -43.452  56.432 -55.588  1.00  0.00     0.031 A 
HETATM   14  C   UNL     1     -42.994  56.625 -56.893  1.00  0.00     0.047 A 
HETATM   15  C   UNL     1     -42.318  57.799 -57.220  1.00  0.00     0.116 A 
HETATM   16 BR   UNL     1     -43.327  55.277 -58.181  1.00  0.00    -0.048 Br
HETATM   17  C   UNL     1     -42.087  58.788 -56.253  1.00  0.00     0.103 A 
HETATM   18  C   UNL     1     -42.554  58.595 -54.951  1.00  0.00     0.049 A 
BRANCH  15  19
HETATM   19  O   UNL     1     -41.871  58.010 -58.500  1.00  0.00    -0.357 OA
HETATM   20  H   UNL     1     -41.358  58.841 -58.462  1.00  0.00     0.218 HD
ENDBRANCH  15  19
BRANCH  17  21
HETATM   21  O   UNL     1     -41.410  59.890 -56.712  1.00  0.00    -0.349 OA
BRANCH  21  22
HETATM   22  C   UNL     1     -42.185  61.043 -57.038  1.00  0.00     0.171 C 
HETATM   23  C   UNL     1     -41.429  61.830 -58.093  1.00  0.00     0.034 C 
ENDBRANCH  21  22
ENDBRANCH  17  21
ENDBRANCH   1  12
BRANCH  10  24
HETATM   24  C   UNL     1     -42.573  55.073 -52.613  1.00  0.00     0.256 C 
HETATM   25  N   UNL     1     -41.245  54.771 -52.816  1.00  0.00    -0.323 N 
HETATM   26  H   UNL     1     -40.581  55.531 -52.746  1.00  0.00     0.169 HD
HETATM   27  O   UNL     1     -43.536  54.325 -52.725  1.00  0.00    -0.267 OA
BRANCH  25  28
HETATM   28  C   UNL     1     -40.687  53.497 -53.053  1.00  0.00     0.035 A 
HETATM   29  C   UNL     1     -40.754  52.830 -54.277  1.00  0.00     0.029 A 
HETATM   30  C   UNL     1     -40.201  51.553 -54.421  1.00  0.00     0.002 A 
HETATM   31  C   UNL     1     -39.581  50.930 -53.341  1.00  0.00     0.000 A 
HETATM   32  C   UNL     1     -39.506  51.587 -52.116  1.00  0.00     0.002 A 
HETATM   33  C   UNL     1     -40.051  52.866 -51.974  1.00  0.00     0.029 A 
ENDBRANCH  25  28
ENDBRANCH  10  24
TORSDOF 6
ENDMDL
MODEL 4
REMARK VINA RESULT:      -7.7      2.511      6.007
REMARK  6 active torsions:
REMARK  status: ('A' for Active; 'I' for Inactive)
REMARK    1  A    between atoms: C_2  and  O_3 
REMARK    2  A    between atoms: O_3  and  C_4 
REMARK    3  A    between atoms: C_5  and  O_6 
REMARK    4  A    between atoms: C_10  and  C_11 
REMARK    5  A    between atoms: C_20  and  C_21 
REMARK       I    between atoms: C_21  and  N_22 
REMARK    6  A    between atoms: N_22  and  C_23 
ROOT
HETATM    1  C   UNL     1     -41.588  57.715 -55.017  1.00  0.00     0.202 C 
HETATM    2  N   UNL     1     -42.422  58.561 -55.877  1.00  0.00    -0.084 N 
HETATM    3  C   UNL     1     -43.520  58.112 -56.561  1.00  0.00     0.725 A 
HETATM    4  N   UNL     1     -44.051  59.102 -57.229  1.00  0.00    -0.054 NA
HETATM    5  C   UNL     1     -43.210  60.147 -56.945  1.00  0.00     0.275 A 
HETATM    6  N   UNL     1     -42.186  59.865 -56.130  1.00  0.00    -0.149 NA
HETATM    7  N   UNL     1     -43.853  56.808 -56.492  1.00  0.00    -0.192 N 
HETATM    8  C   UNL     1     -43.037  55.850 -55.898  1.00  0.00     0.037 C 
HETATM    9  C   UNL     1     -43.394  54.417 -56.212  1.00  0.00     0.070 C 
HETATM   10  C   UNL     1     -41.964  56.242 -55.165  1.00  0.00     0.062 C 
HETATM   11  H   UNL     1     -44.585  56.479 -57.117  1.00  0.00     0.184 HD
ENDROOT
BRANCH   1  12
HETATM   12  C   UNL     1     -41.684  58.211 -53.573  1.00  0.00    -0.024 A 
HETATM   13  C   UNL     1     -40.505  58.519 -52.870  1.00  0.00     0.031 A 
HETATM   14  C   UNL     1     -40.565  59.021 -51.568  1.00  0.00     0.047 A 
HETATM   15  C   UNL     1     -41.803  59.212 -50.959  1.00  0.00     0.116 A 
HETATM   16 BR   UNL     1     -38.944  59.441 -50.681  1.00  0.00    -0.048 Br
HETATM   17  C   UNL     1     -42.991  58.902 -51.634  1.00  0.00     0.103 A 
HETATM   18  C   UNL     1     -42.928  58.407 -52.939  1.00  0.00     0.049 A 
BRANCH  15  19
HETATM   19  O   UNL     1     -41.881  59.715 -49.684  1.00  0.00    -0.357 OA
HETATM   20  H   UNL     1     -42.359  60.562 -49.767  1.00  0.00     0.218 HD
ENDBRANCH  15  19
BRANCH  17  21
HETATM   21  O   UNL     1     -44.137  59.137 -50.916  1.00  0.00    -0.349 OA
BRANCH  21  22
HETATM   22  C   UNL     1     -45.377  58.803 -51.538  1.00  0.00     0.171 C 
HETATM   23  C   UNL     1     -46.246  60.048 -51.544  1.00  0.00     0.034 C 
ENDBRANCH  21  22
ENDBRANCH  17  21
ENDBRANCH   1  12
BRANCH  10  24
HETATM   24  C   UNL     1     -40.974  55.309 -54.557  1.00  0.00     0.256 C 
HETATM   25  N   UNL     1     -41.516  54.461 -53.616  1.00  0.00    -0.323 N 
HETATM   26  H   UNL     1     -42.500  54.570 -53.405  1.00  0.00     0.169 HD
HETATM   27  O   UNL     1     -39.803  55.395 -54.899  1.00  0.00    -0.267 OA
BRANCH  25  28
HETATM   28  C   UNL     1     -40.865  53.403 -52.947  1.00  0.00     0.035 A 
HETATM   29  C   UNL     1     -40.686  53.345 -51.564  1.00  0.00     0.029 A 
HETATM   30  C   UNL     1     -40.001  52.274 -50.982  1.00  0.00     0.002 A 
HETATM   31  C   UNL     1     -39.484  51.254 -51.776  1.00  0.00     0.000 A 
HETATM   32  C   UNL     1     -39.659  51.299 -53.157  1.00  0.00     0.002 A 
HETATM   33  C   UNL     1     -40.351  52.366 -53.739  1.00  0.00     0.029 A 
ENDBRANCH  25  28
ENDBRANCH  10  24
TORSDOF 6
ENDMDL
MODEL 5
REMARK VINA RESULT:      -7.7      1.405      2.391
REMARK  6 active torsions:
REMARK  status: ('A' for Active; 'I' for Inactive)
REMARK    1  A    between atoms: C_2  and  O_3 
REMARK    2  A    between atoms: O_3  and  C_4 
REMARK    3  A    between atoms: C_5  and  O_6 
REMARK    4  A    between atoms: C_10  and  C_11 
REMARK    5  A    between atoms: C_20  and  C_21 
REMARK       I    between atoms: C_21  and  N_22 
REMARK    6  A    between atoms: N_22  and  C_23 
ROOT
HETATM    1  C   UNL     1     -42.430  55.073 -51.656  1.00  0.00     0.202 C 
HETATM    2  N   UNL     1     -41.628  54.428 -50.610  1.00  0.00    -0.084 N 
HETATM    3  C   UNL     1     -40.497  53.699 -50.854  1.00  0.00     0.725 A 
HETATM    4  N   UNL     1     -40.007  53.263 -49.722  1.00  0.00    -0.054 NA
HETATM    5  C   UNL     1     -40.908  53.733 -48.801  1.00  0.00     0.275 A 
HETATM    6  N   UNL     1     -41.930  54.443 -49.295  1.00  0.00    -0.149 NA
HETATM    7  N   UNL     1     -40.095  53.506 -52.125  1.00  0.00    -0.192 N 
HETATM    8  C   UNL     1     -40.868  53.868 -53.225  1.00  0.00     0.037 C 
HETATM    9  C   UNL     1     -40.429  53.276 -54.543  1.00  0.00     0.070 C 
HETATM   10  C   UNL     1     -41.973  54.635 -53.047  1.00  0.00     0.062 C 
HETATM   11  H   UNL     1     -39.335  52.848 -52.282  1.00  0.00     0.184 HD
ENDROOT
BRANCH   1  12
HETATM   12  C   UNL     1     -42.386  56.590 -51.466  1.00  0.00    -0.024 A 
HETATM   13  C   UNL     1     -41.155  57.218 -51.202  1.00  0.00     0.031 A 
HETATM   14  C   UNL     1     -41.078  58.606 -51.075  1.00  0.00     0.047 A 
HETATM   15  C   UNL     1     -42.233  59.376 -51.203  1.00  0.00     0.116 A 
HETATM   16 BR   UNL     1     -39.388  59.396 -50.745  1.00  0.00    -0.048 Br
HETATM   17  C   UNL     1     -43.473  58.773 -51.454  1.00  0.00     0.103 A 
HETATM   18  C   UNL     1     -43.545  57.384 -51.589  1.00  0.00     0.049 A 
BRANCH  15  19
HETATM   19  O   UNL     1     -42.174  60.742 -51.092  1.00  0.00    -0.357 OA
HETATM   20  H   UNL     1     -43.072  61.059 -51.304  1.00  0.00     0.218 HD
ENDBRANCH  15  19
BRANCH  17  21
HETATM   21  O   UNL     1     -44.526  59.648 -51.555  1.00  0.00    -0.349 OA
BRANCH  21  22
HETATM   22  C   UNL     1     -45.496  59.626 -50.509  1.00  0.00     0.171 C 
HETATM   23  C   UNL     1     -45.806  61.063 -50.130  1.00  0.00     0.034 C 
ENDBRANCH  21  22
ENDBRANCH  17  21
ENDBRANCH   1  12
BRANCH  10  24
HETATM   24  C   UNL     1     -42.921  55.011 -54.133  1.00  0.00     0.256 C 
HETATM   25  N   UNL     1     -42.432  55.972 -54.989  1.00  0.00    -0.323 N 
HETATM   26  H   UNL     1     -41.515  56.350 -54.787  1.00  0.00     0.169 HD
HETATM   27  O   UNL     1     -44.026  54.485 -54.151  1.00  0.00    -0.267 OA
BRANCH  25  28
HETATM   28  C   UNL     1     -43.043  56.455 -56.166  1.00  0.00     0.035 A 
HETATM   29  C   UNL     1     -43.791  57.632 -56.232  1.00  0.00     0.029 A 
HETATM   30  C   UNL     1     -44.390  58.025 -57.433  1.00  0.00     0.002 A 
HETATM   31  C   UNL     1     -44.251  57.244 -58.577  1.00  0.00     0.000 A 
HETATM   32  C   UNL     1     -43.505  56.070 -58.524  1.00  0.00     0.002 A 
HETATM   33  C   UNL     1     -42.899  55.680 -57.325  1.00  0.00     0.029 A 
ENDBRANCH  25  28
ENDBRANCH  10  24
TORSDOF 6
ENDMDL
MODEL 6
REMARK VINA RESULT:      -7.5      2.883      6.412
REMARK  6 active torsions:
REMARK  status: ('A' for Active; 'I' for Inactive)
REMARK    1  A    between atoms: C_2  and  O_3 
REMARK    2  A    between atoms: O_3  and  C_4 
REMARK    3  A    between atoms: C_5  and  O_6 
REMARK    4  A    between atoms: C_10  and  C_11 
REMARK    5  A    between atoms: C_20  and  C_21 
REMARK       I    between atoms: C_21  and  N_22 
REMARK    6  A    between atoms: N_22  and  C_23 
ROOT
HETATM    1  C   UNL     1     -43.867  57.144 -53.140  1.00  0.00     0.202 C 
HETATM    2  N   UNL     1     -44.284  58.449 -52.617  1.00  0.00    -0.084 N 
HETATM    3  C   UNL     1     -43.672  59.087 -51.573  1.00  0.00     0.725 A 
HETATM    4  N   UNL     1     -44.267  60.229 -51.350  1.00  0.00    -0.054 NA
HETATM    5  C   UNL     1     -45.277  60.231 -52.279  1.00  0.00     0.275 A 
HETATM    6  N   UNL     1     -45.340  59.155 -53.073  1.00  0.00    -0.149 NA
HETATM    7  N   UNL     1     -42.648  58.483 -50.938  1.00  0.00    -0.192 N 
HETATM    8  C   UNL     1     -42.285  57.160 -51.177  1.00  0.00     0.037 C 
HETATM    9  C   UNL     1     -41.361  56.550 -50.151  1.00  0.00     0.070 C 
HETATM   10  C   UNL     1     -42.824  56.496 -52.232  1.00  0.00     0.062 C 
HETATM   11  H   UNL     1     -42.306  58.916 -50.083  1.00  0.00     0.184 HD
ENDROOT
BRANCH   1  12
HETATM   12  C   UNL     1     -43.381  57.306 -54.582  1.00  0.00    -0.024 A 
HETATM   13  C   UNL     1     -42.932  58.565 -55.021  1.00  0.00     0.031 A 
HETATM   14  C   UNL     1     -42.436  58.730 -56.316  1.00  0.00     0.047 A 
HETATM   15  C   UNL     1     -42.392  57.639 -57.182  1.00  0.00     0.116 A 
HETATM   16 BR   UNL     1     -41.822  60.444 -56.842  1.00  0.00    -0.048 Br
HETATM   17  C   UNL     1     -42.845  56.378 -56.771  1.00  0.00     0.103 A 
HETATM   18  C   UNL     1     -43.333  56.214 -55.473  1.00  0.00     0.049 A 
BRANCH  15  19
HETATM   19  O   UNL     1     -41.897  57.781 -58.454  1.00  0.00    -0.357 OA
HETATM   20  H   UNL     1     -41.783  56.872 -58.792  1.00  0.00     0.218 HD
ENDBRANCH  15  19
BRANCH  17  21
HETATM   21  O   UNL     1     -42.745  55.395 -57.725  1.00  0.00    -0.349 OA
BRANCH  21  22
HETATM   22  C   UNL     1     -43.943  55.026 -58.408  1.00  0.00     0.171 C 
HETATM   23  C   UNL     1     -43.746  55.319 -59.885  1.00  0.00     0.034 C 
ENDBRANCH  21  22
ENDBRANCH  17  21
ENDBRANCH   1  12
BRANCH  10  24
HETATM   24  C   UNL     1     -42.578  55.058 -52.534  1.00  0.00     0.256 C 
HETATM   25  N   UNL     1     -41.265  54.770 -52.832  1.00  0.00    -0.323 N 
HETATM   26  H   UNL     1     -40.613  55.543 -52.852  1.00  0.00     0.169 HD
HETATM   27  O   UNL     1     -43.531  54.289 -52.532  1.00  0.00    -0.267 OA
BRANCH  25  28
HETATM   28  C   UNL     1     -40.702  53.495 -53.056  1.00  0.00     0.035 A 
HETATM   29  C   UNL     1     -40.789  52.803 -54.264  1.00  0.00     0.029 A 
HETATM   30  C   UNL     1     -40.229  51.528 -54.395  1.00  0.00     0.002 A 
HETATM   31  C   UNL     1     -39.581  50.931 -53.316  1.00  0.00     0.000 A 
HETATM   32  C   UNL     1     -39.485  51.613 -52.106  1.00  0.00     0.002 A 
HETATM   33  C   UNL     1     -40.038  52.891 -51.978  1.00  0.00     0.029 A 
ENDBRANCH  25  28
ENDBRANCH  10  24
TORSDOF 6
ENDMDL
MODEL 7
REMARK VINA RESULT:      -7.5      3.097      4.974
REMARK  6 active torsions:
REMARK  status: ('A' for Active; 'I' for Inactive)
REMARK    1  A    between atoms: C_2  and  O_3 
REMARK    2  A    between atoms: O_3  and  C_4 
REMARK    3  A    between atoms: C_5  and  O_6 
REMARK    4  A    between atoms: C_10  and  C_11 
REMARK    5  A    between atoms: C_20  and  C_21 
REMARK       I    between atoms: C_21  and  N_22 
REMARK    6  A    between atoms: N_22  and  C_23 
ROOT
HETATM    1  C   UNL     1     -41.772  57.889 -52.798  1.00  0.00     0.202 C 
HETATM    2  N   UNL     1     -41.161  58.703 -51.742  1.00  0.00    -0.084 N 
HETATM    3  C   UNL     1     -41.874  59.434 -50.830  1.00  0.00     0.725 A 
HETATM    4  N   UNL     1     -41.048  60.043 -50.020  1.00  0.00    -0.054 NA
HETATM    5  C   UNL     1     -39.819  59.674 -50.504  1.00  0.00     0.275 A 
HETATM    6  N   UNL     1     -39.833  58.863 -51.569  1.00  0.00    -0.149 NA
HETATM    7  N   UNL     1     -43.219  59.460 -50.910  1.00  0.00    -0.192 N 
HETATM    8  C   UNL     1     -43.923  58.918 -51.982  1.00  0.00     0.037 C 
HETATM    9  C   UNL     1     -45.371  59.334 -52.077  1.00  0.00     0.070 C 
HETATM   10  C   UNL     1     -43.275  58.142 -52.888  1.00  0.00     0.062 C 
HETATM   11  H   UNL     1     -43.711  60.118 -50.310  1.00  0.00     0.184 HD
ENDROOT
BRANCH   1  12
HETATM   12  C   UNL     1     -41.430  56.416 -52.563  1.00  0.00    -0.024 A 
HETATM   13  C   UNL     1     -41.054  55.612 -53.654  1.00  0.00     0.031 A 
HETATM   14  C   UNL     1     -40.688  54.278 -53.461  1.00  0.00     0.047 A 
HETATM   15  C   UNL     1     -40.703  53.737 -52.177  1.00  0.00     0.116 A 
HETATM   16 BR   UNL     1     -40.165  53.253 -54.967  1.00  0.00    -0.048 Br
HETATM   17  C   UNL     1     -41.087  54.514 -51.076  1.00  0.00     0.103 A 
HETATM   18  C   UNL     1     -41.444  55.851 -51.271  1.00  0.00     0.049 A 
BRANCH  15  19
HETATM   19  O   UNL     1     -40.337  52.432 -51.968  1.00  0.00    -0.357 OA
HETATM   20  H   UNL     1     -40.916  51.903 -52.550  1.00  0.00     0.218 HD
ENDBRANCH  15  19
BRANCH  17  21
HETATM   21  O   UNL     1     -41.058  53.855 -49.872  1.00  0.00    -0.349 OA
BRANCH  21  22
HETATM   22  C   UNL     1     -40.976  54.655 -48.693  1.00  0.00     0.171 C 
HETATM   23  C   UNL     1     -40.198  53.871 -47.651  1.00  0.00     0.034 C 
ENDBRANCH  21  22
ENDBRANCH  17  21
ENDBRANCH   1  12
BRANCH  10  24
HETATM   24  C   UNL     1     -43.903  57.582 -54.117  1.00  0.00     0.256 C 
HETATM   25  N   UNL     1     -43.283  57.971 -55.284  1.00  0.00    -0.323 N 
HETATM   26  H   UNL     1     -42.504  58.611 -55.204  1.00  0.00     0.169 HD
HETATM   27  O   UNL     1     -44.901  56.883 -53.997  1.00  0.00    -0.267 OA
BRANCH  25  28
HETATM   28  C   UNL     1     -43.574  57.529 -56.592  1.00  0.00     0.035 A 
HETATM   29  C   UNL     1     -44.471  58.164 -57.451  1.00  0.00     0.029 A 
HETATM   30  C   UNL     1     -44.727  57.643 -58.723  1.00  0.00     0.002 A 
HETATM   31  C   UNL     1     -44.091  56.478 -59.146  1.00  0.00     0.000 A 
HETATM   32  C   UNL     1     -43.192  55.836 -58.299  1.00  0.00     0.002 A 
HETATM   33  C   UNL     1     -42.930  56.362 -57.030  1.00  0.00     0.029 A 
ENDBRANCH  25  28
ENDBRANCH  10  24
TORSDOF 6
ENDMDL
MODEL 8
REMARK VINA RESULT:      -7.5      2.886      5.188
REMARK  6 active torsions:
REMARK  status: ('A' for Active; 'I' for Inactive)
REMARK    1  A    between atoms: C_2  and  O_3 
REMARK    2  A    between atoms: O_3  and  C_4 
REMARK    3  A    between atoms: C_5  and  O_6 
REMARK    4  A    between atoms: C_10  and  C_11 
REMARK    5  A    between atoms: C_20  and  C_21 
REMARK       I    between atoms: C_21  and  N_22 
REMARK    6  A    between atoms: N_22  and  C_23 
ROOT
HETATM    1  C   UNL     1     -41.547  57.453 -52.706  1.00  0.00     0.202 C 
HETATM    2  N   UNL     1     -41.067  58.404 -51.697  1.00  0.00    -0.084 N 
HETATM    3  C   UNL     1     -41.887  59.147 -50.894  1.00  0.00     0.725 A 
HETATM    4  N   UNL     1     -41.163  59.890 -50.099  1.00  0.00    -0.054 NA
HETATM    5  C   UNL     1     -39.882  59.586 -50.484  1.00  0.00     0.275 A 
HETATM    6  N   UNL     1     -39.767  58.689 -51.471  1.00  0.00    -0.149 NA
HETATM    7  N   UNL     1     -43.223  59.053 -51.045  1.00  0.00    -0.192 N 
HETATM    8  C   UNL     1     -43.818  58.364 -52.099  1.00  0.00     0.037 C 
HETATM    9  C   UNL     1     -45.286  58.647 -52.306  1.00  0.00     0.070 C 
HETATM   10  C   UNL     1     -43.058  57.570 -52.897  1.00  0.00     0.062 C 
HETATM   11  H   UNL     1     -43.800  59.716 -50.534  1.00  0.00     0.184 HD
ENDROOT
BRANCH   1  12
HETATM   12  C   UNL     1     -41.104  56.040 -52.322  1.00  0.00    -0.024 A 
HETATM   13  C   UNL     1     -41.095  55.664 -50.966  1.00  0.00     0.031 A 
HETATM   14  C   UNL     1     -40.744  54.365 -50.591  1.00  0.00     0.047 A 
HETATM   15  C   UNL     1     -40.394  53.436 -51.568  1.00  0.00     0.116 A 
HETATM   16 BR   UNL     1     -40.775  53.912 -48.751  1.00  0.00    -0.048 Br
HETATM   17  C   UNL     1     -40.385  53.789 -52.924  1.00  0.00     0.103 A 
HETATM   18  C   UNL     1     -40.744  55.087 -53.297  1.00  0.00     0.049 A 
BRANCH  15  19
HETATM   19  O   UNL     1     -40.058  52.152 -51.218  1.00  0.00    -0.357 OA
HETATM   20  H   UNL     1     -40.333  51.596 -51.972  1.00  0.00     0.218 HD
ENDBRANCH  15  19
BRANCH  17  21
HETATM   21  O   UNL     1     -40.019  52.778 -53.778  1.00  0.00    -0.349 OA
BRANCH  21  22
HETATM   22  C   UNL     1     -41.063  51.960 -54.304  1.00  0.00     0.171 C 
HETATM   23  C   UNL     1     -40.560  50.528 -54.342  1.00  0.00     0.034 C 
ENDBRANCH  21  22
ENDBRANCH  17  21
ENDBRANCH   1  12
BRANCH  10  24
HETATM   24  C   UNL     1     -43.565  56.856 -54.102  1.00  0.00     0.256 C 
HETATM   25  N   UNL     1     -43.354  57.537 -55.280  1.00  0.00    -0.323 N 
HETATM   26  H   UNL     1     -42.918  58.448 -55.218  1.00  0.00     0.169 HD
HETATM   27  O   UNL     1     -44.140  55.786 -53.948  1.00  0.00    -0.267 OA
BRANCH  25  28
HETATM   28  C   UNL     1     -43.622  57.079 -56.588  1.00  0.00     0.035 A 
HETATM   29  C   UNL     1     -42.991  55.983 -57.178  1.00  0.00     0.029 A 
HETATM   30  C   UNL     1     -43.292  55.613 -58.492  1.00  0.00     0.002 A 
HETATM   31  C   UNL     1     -44.223  56.339 -59.231  1.00  0.00     0.000 A 
HETATM   32  C   UNL     1     -44.861  57.433 -58.653  1.00  0.00     0.002 A 
HETATM   33  C   UNL     1     -44.567  57.798 -57.335  1.00  0.00     0.029 A 
ENDBRANCH  25  28
ENDBRANCH  10  24
TORSDOF 6
ENDMDL
MODEL 9
REMARK VINA RESULT:      -7.1      3.272      6.479
REMARK  6 active torsions:
REMARK  status: ('A' for Active; 'I' for Inactive)
REMARK    1  A    between atoms: C_2  and  O_3 
REMARK    2  A    between atoms: O_3  and  C_4 
REMARK    3  A    between atoms: C_5  and  O_6 
REMARK    4  A    between atoms: C_10  and  C_11 
REMARK    5  A    between atoms: C_20  and  C_21 
REMARK       I    between atoms: C_21  and  N_22 
REMARK    6  A    between atoms: N_22  and  C_23 
ROOT
HETATM    1  C   UNL     1     -42.168  58.648 -56.503  1.00  0.00     0.202 C 
HETATM    2  N   UNL     1     -41.865  59.641 -57.539  1.00  0.00    -0.084 N 
HETATM    3  C   UNL     1     -42.080  59.442 -58.876  1.00  0.00     0.725 A 
HETATM    4  N   UNL     1     -41.717  60.509 -59.539  1.00  0.00    -0.054 NA
HETATM    5  C   UNL     1     -41.247  61.335 -58.550  1.00  0.00     0.275 A 
HETATM    6  N   UNL     1     -41.302  60.844 -57.306  1.00  0.00    -0.149 NA
HETATM    7  N   UNL     1     -42.559  58.256 -59.299  1.00  0.00    -0.192 N 
HETATM    8  C   UNL     1     -42.686  57.150 -58.463  1.00  0.00     0.037 C 
HETATM    9  C   UNL     1     -42.905  55.833 -59.167  1.00  0.00     0.070 C 
HETATM   10  C   UNL     1     -42.534  57.300 -57.123  1.00  0.00     0.062 C 
HETATM   11  H   UNL     1     -42.577  58.090 -60.303  1.00  0.00     0.184 HD
ENDROOT
BRANCH   1  12
HETATM   12  C   UNL     1     -43.260  59.194 -55.581  1.00  0.00    -0.024 A 
HETATM   13  C   UNL     1     -44.279  60.000 -56.121  1.00  0.00     0.031 A 
HETATM   14  C   UNL     1     -45.316  60.470 -55.313  1.00  0.00     0.047 A 
HETATM   15  C   UNL     1     -45.338  60.143 -53.958  1.00  0.00     0.116 A 
HETATM   16 BR   UNL     1     -46.674  61.530 -56.102  1.00  0.00    -0.048 Br
HETATM   17  C   UNL     1     -44.327  59.353 -53.395  1.00  0.00     0.103 A 
HETATM   18  C   UNL     1     -43.296  58.877 -54.208  1.00  0.00     0.049 A 
BRANCH  15  19
HETATM   19  O   UNL     1     -46.355  60.588 -53.152  1.00  0.00    -0.357 OA
HETATM   20  H   UNL     1     -47.178  60.386 -53.636  1.00  0.00     0.218 HD
ENDBRANCH  15  19
BRANCH  17  21
HETATM   21  O   UNL     1     -44.471  59.110 -52.051  1.00  0.00    -0.349 OA
BRANCH  21  22
HETATM   22  C   UNL     1     -44.934  57.816 -51.668  1.00  0.00     0.171 C 
HETATM   23  C   UNL     1     -43.731  57.002 -51.227  1.00  0.00     0.034 C 
ENDBRANCH  21  22
ENDBRANCH  17  21
ENDBRANCH   1  12
BRANCH  10  24
HETATM   24  C   UNL     1     -42.562  56.179 -56.142  1.00  0.00     0.256 C 
HETATM   25  N   UNL     1     -41.314  55.792 -55.706  1.00  0.00    -0.323 N 
HETATM   26  H   UNL     1     -40.515  56.267 -56.107  1.00  0.00     0.169 HD
HETATM   27  O   UNL     1     -43.643  55.689 -55.846  1.00  0.00    -0.267 OA
BRANCH  25  28
HETATM   28  C   UNL     1     -41.017  54.840 -54.707  1.00  0.00     0.035 A 
HETATM   29  C   UNL     1     -41.199  55.058 -53.341  1.00  0.00     0.029 A 
HETATM   30  C   UNL     1     -40.851  54.072 -52.412  1.00  0.00     0.002 A 
HETATM   31  C   UNL     1     -40.313  52.861 -52.841  1.00  0.00     0.000 A 
HETATM   32  C   UNL     1     -40.129  52.631 -54.202  1.00  0.00     0.002 A 
HETATM   33  C   UNL     1     -40.485  53.614 -55.131  1.00  0.00     0.029 A 
ENDBRANCH  25  28
ENDBRANCH  10  24
TORSDOF 6
ENDMDL
MODEL 10
REMARK VINA RESULT:      -6.9      3.912      6.575
REMARK  6 active torsions:
REMARK  status: ('A' for Active; 'I' for Inactive)
REMARK    1  A    between atoms: C_2  and  O_3 
REMARK    2  A    between atoms: O_3  and  C_4 
REMARK    3  A    between atoms: C_5  and  O_6 
REMARK    4  A    between atoms: C_10  and  C_11 
REMARK    5  A    between atoms: C_20  and  C_21 
REMARK       I    between atoms: C_21  and  N_22 
REMARK    6  A    between atoms: N_22  and  C_23 
ROOT
HETATM    1  C   UNL     1     -43.728  59.031 -53.930  1.00  0.00     0.202 C 
HETATM    2  N   UNL     1     -44.008  60.405 -53.501  1.00  0.00    -0.084 N 
HETATM    3  C   UNL     1     -43.303  61.062 -52.529  1.00  0.00     0.725 A 
HETATM    4  N   UNL     1     -43.787  62.268 -52.380  1.00  0.00    -0.054 NA
HETATM    5  C   UNL     1     -44.827  62.291 -53.275  1.00  0.00     0.275 A 
HETATM    6  N   UNL     1     -45.014  61.167 -53.978  1.00  0.00    -0.149 NA
HETATM    7  N   UNL     1     -42.314  60.418 -51.880  1.00  0.00    -0.192 N 
HETATM    8  C   UNL     1     -42.078  59.054 -52.024  1.00  0.00     0.037 C 
HETATM    9  C   UNL     1     -41.174  58.443 -50.981  1.00  0.00     0.070 C 
HETATM   10  C   UNL     1     -42.712  58.362 -53.006  1.00  0.00     0.062 C 
HETATM   11  H   UNL     1     -41.903  60.882 -51.073  1.00  0.00     0.184 HD
ENDROOT
BRANCH   1  12
HETATM   12  C   UNL     1     -43.284  59.038 -55.394  1.00  0.00    -0.024 A 
HETATM   13  C   UNL     1     -43.959  58.227 -56.324  1.00  0.00     0.031 A 
HETATM   14  C   UNL     1     -43.608  58.252 -57.676  1.00  0.00     0.047 A 
HETATM   15  C   UNL     1     -42.575  59.083 -58.105  1.00  0.00     0.116 A 
HETATM   16 BR   UNL     1     -44.571  57.156 -58.885  1.00  0.00    -0.048 Br
HETATM   17  C   UNL     1     -41.880  59.892 -57.196  1.00  0.00     0.103 A 
HETATM   18  C   UNL     1     -42.239  59.871 -55.846  1.00  0.00     0.049 A 
BRANCH  15  19
HETATM   19  O   UNL     1     -42.225  59.128 -59.431  1.00  0.00    -0.357 OA
HETATM   20  H   UNL     1     -42.782  58.458 -59.870  1.00  0.00     0.218 HD
ENDBRANCH  15  19
BRANCH  17  21
HETATM   21  O   UNL     1     -40.887  60.658 -57.754  1.00  0.00    -0.349 OA
BRANCH  21  22
HETATM   22  C   UNL     1     -41.208  62.012 -58.071  1.00  0.00     0.171 C 
HETATM   23  C   UNL     1     -40.115  62.551 -58.976  1.00  0.00     0.034 C 
ENDBRANCH  21  22
ENDBRANCH  17  21
ENDBRANCH   1  12
BRANCH  10  24
HETATM   24  C   UNL     1     -42.606  56.889 -53.200  1.00  0.00     0.256 C 
HETATM   25  N   UNL     1     -41.342  56.465 -53.546  1.00  0.00    -0.323 N 
HETATM   26  H   UNL     1     -40.631  57.175 -53.667  1.00  0.00     0.169 HD
HETATM   27  O   UNL     1     -43.617  56.210 -53.081  1.00  0.00    -0.267 OA
BRANCH  25  28
HETATM   28  C   UNL     1     -40.901  55.132 -53.694  1.00  0.00     0.035 A 
HETATM   29  C   UNL     1     -40.546  54.558 -54.915  1.00  0.00     0.029 A 
HETATM   30  C   UNL     1     -40.148  53.219 -54.980  1.00  0.00     0.002 A 
HETATM   31  C   UNL     1     -40.107  52.440 -53.826  1.00  0.00     0.000 A 
HETATM   32  C   UNL     1     -40.457  53.003 -52.602  1.00  0.00     0.002 A 
HETATM   33  C   UNL     1     -40.847  54.345 -52.535  1.00  0.00     0.029 A 
ENDBRANCH  25  28
ENDBRANCH  10  24
TORSDOF 6
ENDMDL
