MODEL 1
REMARK VINA RESULT:      -8.8      0.000      0.000
REMARK  6 active torsions:
REMARK  status: ('A' for Active; 'I' for Inactive)
REMARK    1  A    between atoms: C_2  and  C_3 
REMARK    2  A    between atoms: C_2  and  C_9 
REMARK    3  A    between atoms: C_9  and  C_10 
REMARK    4  A    between atoms: C_10  and  C_11 
REMARK       I    between atoms: C_11  and  N_12 
REMARK    5  A    between atoms: N_12  and  C_13 
REMARK    6  A    between atoms: C_20  and  C_21 
REMARK       I    between atoms: C_21  and  N_22 
ROOT
HETATM    1  C   UNL     1     -42.472  57.311 -54.117  1.00  0.00     0.035 A 
HETATM    2  C   UNL     1     -41.298  57.845 -53.579  1.00  0.00     0.046 A 
HETATM    3  C   UNL     1     -41.286  58.341 -52.256  1.00  0.00     0.030 A 
HETATM    4  C   UNL     1     -42.452  58.296 -51.508  1.00  0.00     0.063 A 
HETATM    5  N   UNL     1     -42.124  58.835 -50.294  1.00  0.00    -0.277 N 
HETATM    6  H   UNL     1     -42.732  58.958 -49.492  1.00  0.00     0.189 HD
HETATM    7  N   UNL     1     -40.845  59.237 -50.191  1.00  0.00    -0.168 NA
HETATM    8  C   UNL     1     -40.314  58.940 -51.399  1.00  0.00     0.156 A 
HETATM    9  C   UNL     1     -43.649  57.783 -52.006  1.00  0.00     0.034 A 
HETATM   10  C   UNL     1     -43.631  57.301 -53.323  1.00  0.00     0.032 A 
ENDROOT
BRANCH   1  11
HETATM   11  N   UNL     1     -42.611  56.783 -55.416  1.00  0.00    -0.327 N 
HETATM   12  C   UNL     1     -42.528  55.533 -55.960  1.00  0.00     0.222 C 
HETATM   13  O   UNL     1     -42.695  55.440 -57.180  1.00  0.00    -0.273 OA
HETATM   14  H   UNL     1     -42.855  57.450 -56.140  1.00  0.00     0.169 HD
BRANCH  12  15
HETATM   15  C   UNL     1     -42.267  54.319 -55.099  1.00  0.00     0.103 C 
BRANCH  15  16
HETATM   16  C   UNL     1     -40.789  54.051 -54.800  1.00  0.00     0.018 C 
BRANCH  16  17
HETATM   17  C   UNL     1     -40.429  53.774 -53.322  1.00  0.00     0.015 C 
HETATM   18  C   UNL     1     -41.501  54.243 -52.331  1.00  0.00     0.015 C 
BRANCH  17  19
HETATM   19  C   UNL     1     -40.135  52.290 -53.134  1.00  0.00    -0.054 A 
HETATM   20  C   UNL     1     -39.750  51.768 -51.889  1.00  0.00     0.007 A 
HETATM   21  C   UNL     1     -39.496  50.404 -51.734  1.00  0.00     0.001 A 
HETATM   22  C   UNL     1     -39.626  49.543 -52.820  1.00  0.00     0.000 A 
HETATM   23  C   UNL     1     -40.010  50.045 -54.062  1.00  0.00     0.001 A 
HETATM   24  C   UNL     1     -40.265  51.409 -54.218  1.00  0.00     0.007 A 
ENDBRANCH  17  19
ENDBRANCH  16  17
ENDBRANCH  15  16
ENDBRANCH  12  15
ENDBRANCH   1  11
BRANCH   8  25
HETATM   25  C   UNL     1     -38.909  59.227 -51.715  1.00  0.00     0.270 C 
HETATM   26  N   UNL     1     -38.135  59.514 -50.625  1.00  0.00    -0.365 N 
HETATM   27  H   UNL     1     -38.566  59.511 -49.708  1.00  0.00     0.159 HD
HETATM   28  H   UNL     1     -37.157  59.728 -50.744  1.00  0.00     0.159 HD
HETATM   29  O   UNL     1     -38.439  59.220 -52.848  1.00  0.00    -0.266 OA
ENDBRANCH   8  25
TORSDOF 6
ENDMDL
MODEL 2
REMARK VINA RESULT:      -8.5      1.159      2.566
REMARK  6 active torsions:
REMARK  status: ('A' for Active; 'I' for Inactive)
REMARK    1  A    between atoms: C_2  and  C_3 
REMARK    2  A    between atoms: C_2  and  C_9 
REMARK    3  A    between atoms: C_9  and  C_10 
REMARK    4  A    between atoms: C_10  and  C_11 
REMARK       I    between atoms: C_11  and  N_12 
REMARK    5  A    between atoms: N_12  and  C_13 
REMARK    6  A    between atoms: C_20  and  C_21 
REMARK       I    between atoms: C_21  and  N_22 
ROOT
HETATM    1  C   UNL     1     -42.459  57.623 -54.336  1.00  0.00     0.035 A 
HETATM    2  C   UNL     1     -41.287  58.076 -53.726  1.00  0.00     0.046 A 
HETATM    3  C   UNL     1     -41.289  58.423 -52.356  1.00  0.00     0.030 A 
HETATM    4  C   UNL     1     -42.467  58.312 -51.633  1.00  0.00     0.063 A 
HETATM    5  N   UNL     1     -42.151  58.708 -50.363  1.00  0.00    -0.277 N 
HETATM    6  H   UNL     1     -42.770  58.751 -49.561  1.00  0.00     0.189 HD
HETATM    7  N   UNL     1     -40.868  59.077 -50.198  1.00  0.00    -0.168 NA
HETATM    8  C   UNL     1     -40.323  58.908 -51.424  1.00  0.00     0.156 A 
HETATM    9  C   UNL     1     -43.663  57.877 -52.203  1.00  0.00     0.034 A 
HETATM   10  C   UNL     1     -43.631  57.543 -53.565  1.00  0.00     0.032 A 
ENDROOT
BRANCH   1  11
HETATM   11  N   UNL     1     -42.585  57.244 -55.688  1.00  0.00    -0.327 N 
HETATM   12  C   UNL     1     -42.705  56.054 -56.345  1.00  0.00     0.222 C 
HETATM   13  O   UNL     1     -42.779  56.099 -57.577  1.00  0.00    -0.273 OA
HETATM   14  H   UNL     1     -42.626  58.005 -56.357  1.00  0.00     0.169 HD
BRANCH  12  15
HETATM   15  C   UNL     1     -42.769  54.745 -55.593  1.00  0.00     0.103 C 
BRANCH  15  16
HETATM   16  C   UNL     1     -41.437  54.287 -54.989  1.00  0.00     0.018 C 
BRANCH  16  17
HETATM   17  C   UNL     1     -41.521  53.216 -53.879  1.00  0.00     0.015 C 
HETATM   18  C   UNL     1     -40.289  52.305 -53.808  1.00  0.00     0.015 C 
BRANCH  17  19
HETATM   19  C   UNL     1     -41.770  53.890 -52.533  1.00  0.00    -0.054 A 
HETATM   20  C   UNL     1     -43.056  53.965 -51.974  1.00  0.00     0.007 A 
HETATM   21  C   UNL     1     -43.261  54.576 -50.735  1.00  0.00     0.001 A 
HETATM   22  C   UNL     1     -42.185  55.118 -50.039  1.00  0.00     0.000 A 
HETATM   23  C   UNL     1     -40.902  55.049 -50.579  1.00  0.00     0.001 A 
HETATM   24  C   UNL     1     -40.695  54.437 -51.817  1.00  0.00     0.007 A 
ENDBRANCH  17  19
ENDBRANCH  16  17
ENDBRANCH  15  16
ENDBRANCH  12  15
ENDBRANCH   1  11
BRANCH   8  25
HETATM   25  C   UNL     1     -38.908  59.206 -51.686  1.00  0.00     0.270 C 
HETATM   26  N   UNL     1     -38.183  59.515 -50.569  1.00  0.00    -0.365 N 
HETATM   27  H   UNL     1     -38.651  59.518 -49.671  1.00  0.00     0.159 HD
HETATM   28  H   UNL     1     -37.203  59.738 -50.651  1.00  0.00     0.159 HD
HETATM   29  O   UNL     1     -38.393  59.190 -52.799  1.00  0.00    -0.266 OA
ENDBRANCH   8  25
TORSDOF 6
ENDMDL
MODEL 3
REMARK VINA RESULT:      -8.3      3.145      4.465
REMARK  6 active torsions:
REMARK  status: ('A' for Active; 'I' for Inactive)
REMARK    1  A    between atoms: C_2  and  C_3 
REMARK    2  A    between atoms: C_2  and  C_9 
REMARK    3  A    between atoms: C_9  and  C_10 
REMARK    4  A    between atoms: C_10  and  C_11 
REMARK       I    between atoms: C_11  and  N_12 
REMARK    5  A    between atoms: N_12  and  C_13 
REMARK    6  A    between atoms: C_20  and  C_21 
REMARK       I    between atoms: C_21  and  N_22 
ROOT
HETATM    1  C   UNL     1     -43.476  55.299 -53.700  1.00  0.00     0.035 A 
HETATM    2  C   UNL     1     -43.267  56.609 -54.139  1.00  0.00     0.046 A 
HETATM    3  C   UNL     1     -42.881  56.856 -55.476  1.00  0.00     0.030 A 
HETATM    4  C   UNL     1     -42.710  55.783 -56.338  1.00  0.00     0.063 A 
HETATM    5  N   UNL     1     -42.348  56.336 -57.536  1.00  0.00    -0.277 N 
HETATM    6  H   UNL     1     -42.146  55.848 -58.401  1.00  0.00     0.189 HD
HETATM    7  N   UNL     1     -42.260  57.678 -57.525  1.00  0.00    -0.168 NA
HETATM    8  C   UNL     1     -42.584  58.014 -56.256  1.00  0.00     0.156 A 
HETATM    9  C   UNL     1     -42.896  54.459 -55.942  1.00  0.00     0.034 A 
HETATM   10  C   UNL     1     -43.275  54.246 -54.608  1.00  0.00     0.032 A 
ENDROOT
BRANCH   1  11
HETATM   11  N   UNL     1     -43.865  54.924 -52.399  1.00  0.00    -0.327 N 
HETATM   12  C   UNL     1     -43.229  54.831 -51.194  1.00  0.00     0.222 C 
HETATM   13  O   UNL     1     -43.899  54.438 -50.235  1.00  0.00    -0.273 OA
HETATM   14  H   UNL     1     -44.844  54.687 -52.283  1.00  0.00     0.169 HD
BRANCH  12  15
HETATM   15  C   UNL     1     -41.775  55.215 -51.043  1.00  0.00     0.103 C 
BRANCH  15  16
HETATM   16  C   UNL     1     -40.813  54.461 -51.966  1.00  0.00     0.018 C 
BRANCH  16  17
HETATM   17  C   UNL     1     -39.954  53.358 -51.306  1.00  0.00     0.015 C 
HETATM   18  C   UNL     1     -40.408  52.993 -49.887  1.00  0.00     0.015 C 
BRANCH  17  19
HETATM   19  C   UNL     1     -39.932  52.122 -52.198  1.00  0.00    -0.054 A 
HETATM   20  C   UNL     1     -40.235  52.197 -53.567  1.00  0.00     0.007 A 
HETATM   21  C   UNL     1     -40.197  51.055 -54.371  1.00  0.00     0.001 A 
HETATM   22  C   UNL     1     -39.856  49.825 -53.817  1.00  0.00     0.000 A 
HETATM   23  C   UNL     1     -39.549  49.734 -52.460  1.00  0.00     0.001 A 
HETATM   24  C   UNL     1     -39.585  50.875 -51.656  1.00  0.00     0.007 A 
ENDBRANCH  17  19
ENDBRANCH  16  17
ENDBRANCH  15  16
ENDBRANCH  12  15
ENDBRANCH   1  11
BRANCH   8  25
HETATM   25  C   UNL     1     -42.608  59.413 -55.811  1.00  0.00     0.270 C 
HETATM   26  N   UNL     1     -43.863  59.937 -55.671  1.00  0.00    -0.365 N 
HETATM   27  H   UNL     1     -44.661  59.349 -55.875  1.00  0.00     0.159 HD
HETATM   28  H   UNL     1     -43.978  60.894 -55.373  1.00  0.00     0.159 HD
HETATM   29  O   UNL     1     -41.606  60.083 -55.580  1.00  0.00    -0.266 OA
ENDBRANCH   8  25
TORSDOF 6
ENDMDL
MODEL 4
REMARK VINA RESULT:      -8.1      2.977      4.669
REMARK  6 active torsions:
REMARK  status: ('A' for Active; 'I' for Inactive)
REMARK    1  A    between atoms: C_2  and  C_3 
REMARK    2  A    between atoms: C_2  and  C_9 
REMARK    3  A    between atoms: C_9  and  C_10 
REMARK    4  A    between atoms: C_10  and  C_11 
REMARK       I    between atoms: C_11  and  N_12 
REMARK    5  A    between atoms: N_12  and  C_13 
REMARK    6  A    between atoms: C_20  and  C_21 
REMARK       I    between atoms: C_21  and  N_22 
ROOT
HETATM    1  C   UNL     1     -43.394  56.072 -54.703  1.00  0.00     0.035 A 
HETATM    2  C   UNL     1     -43.048  57.278 -55.320  1.00  0.00     0.046 A 
HETATM    3  C   UNL     1     -42.741  57.307 -56.699  1.00  0.00     0.030 A 
HETATM    4  C   UNL     1     -42.783  56.126 -57.424  1.00  0.00     0.063 A 
HETATM    5  N   UNL     1     -42.448  56.475 -58.704  1.00  0.00    -0.277 N 
HETATM    6  H   UNL     1     -42.381  55.864 -59.510  1.00  0.00     0.189 HD
HETATM    7  N   UNL     1     -42.181  57.783 -58.872  1.00  0.00    -0.168 NA
HETATM    8  C   UNL     1     -42.357  58.309 -57.639  1.00  0.00     0.156 A 
HETATM    9  C   UNL     1     -43.110  54.898 -56.850  1.00  0.00     0.034 A 
HETATM   10  C   UNL     1     -43.407  54.900 -55.479  1.00  0.00     0.032 A 
ENDROOT
BRANCH   1  11
HETATM   11  N   UNL     1     -43.724  55.914 -53.343  1.00  0.00    -0.327 N 
HETATM   12  C   UNL     1     -43.007  55.749 -52.192  1.00  0.00     0.222 C 
HETATM   13  O   UNL     1     -43.649  55.621 -51.145  1.00  0.00    -0.273 OA
HETATM   14  H   UNL     1     -44.713  55.951 -53.122  1.00  0.00     0.169 HD
BRANCH  12  15
HETATM   15  C   UNL     1     -41.496  55.750 -52.202  1.00  0.00     0.103 C 
BRANCH  15  16
HETATM   16  C   UNL     1     -40.855  54.358 -52.200  1.00  0.00     0.018 C 
BRANCH  16  17
HETATM   17  C   UNL     1     -40.863  53.599 -53.547  1.00  0.00     0.015 C 
HETATM   18  C   UNL     1     -40.067  54.303 -54.653  1.00  0.00     0.015 C 
BRANCH  17  19
HETATM   19  C   UNL     1     -40.351  52.178 -53.338  1.00  0.00    -0.054 A 
HETATM   20  C   UNL     1     -39.893  51.737 -52.086  1.00  0.00     0.007 A 
HETATM   21  C   UNL     1     -39.440  50.427 -51.912  1.00  0.00     0.001 A 
HETATM   22  C   UNL     1     -39.439  49.542 -52.986  1.00  0.00     0.000 A 
HETATM   23  C   UNL     1     -39.893  49.964 -54.234  1.00  0.00     0.001 A 
HETATM   24  C   UNL     1     -40.348  51.272 -54.409  1.00  0.00     0.007 A 
ENDBRANCH  17  19
ENDBRANCH  16  17
ENDBRANCH  15  16
ENDBRANCH  12  15
ENDBRANCH   1  11
BRANCH   8  25
HETATM   25  C   UNL     1     -42.159  59.742 -57.377  1.00  0.00     0.270 C 
HETATM   26  N   UNL     1     -42.761  60.567 -58.286  1.00  0.00    -0.365 N 
HETATM   27  H   UNL     1     -43.283  60.153 -59.049  1.00  0.00     0.159 HD
HETATM   28  H   UNL     1     -42.677  61.567 -58.190  1.00  0.00     0.159 HD
HETATM   29  O   UNL     1     -41.513  60.190 -56.436  1.00  0.00    -0.266 OA
ENDBRANCH   8  25
TORSDOF 6
ENDMDL
MODEL 5
REMARK VINA RESULT:      -8.1      2.315      4.555
REMARK  6 active torsions:
REMARK  status: ('A' for Active; 'I' for Inactive)
REMARK    1  A    between atoms: C_2  and  C_3 
REMARK    2  A    between atoms: C_2  and  C_9 
REMARK    3  A    between atoms: C_9  and  C_10 
REMARK    4  A    between atoms: C_10  and  C_11 
REMARK       I    between atoms: C_11  and  N_12 
REMARK    5  A    between atoms: N_12  and  C_13 
REMARK    6  A    between atoms: C_20  and  C_21 
REMARK       I    between atoms: C_21  and  N_22 
ROOT
HETATM    1  C   UNL     1     -41.409  57.141 -50.869  1.00  0.00     0.035 A 
HETATM    2  C   UNL     1     -42.418  56.916 -51.808  1.00  0.00     0.046 A 
HETATM    3  C   UNL     1     -42.428  57.634 -53.026  1.00  0.00     0.030 A 
HETATM    4  C   UNL     1     -41.427  58.563 -53.269  1.00  0.00     0.063 A 
HETATM    5  N   UNL     1     -41.704  59.076 -54.506  1.00  0.00    -0.277 N 
HETATM    6  H   UNL     1     -41.178  59.781 -55.011  1.00  0.00     0.189 HD
HETATM    7  N   UNL     1     -42.806  58.568 -55.086  1.00  0.00    -0.168 NA
HETATM    8  C   UNL     1     -43.265  57.675 -54.181  1.00  0.00     0.156 A 
HETATM    9  C   UNL     1     -40.407  58.829 -52.357  1.00  0.00     0.034 A 
HETATM   10  C   UNL     1     -40.426  58.104 -51.156  1.00  0.00     0.032 A 
ENDROOT
BRANCH   1  11
HETATM   11  N   UNL     1     -41.287  56.490 -49.626  1.00  0.00    -0.327 N 
HETATM   12  C   UNL     1     -41.318  55.188 -49.215  1.00  0.00     0.222 C 
HETATM   13  O   UNL     1     -41.190  54.979 -48.005  1.00  0.00    -0.273 OA
HETATM   14  H   UNL     1     -41.107  57.091 -48.829  1.00  0.00     0.169 HD
BRANCH  12  15
HETATM   15  C   UNL     1     -41.479  54.057 -50.205  1.00  0.00     0.103 C 
BRANCH  15  16
HETATM   16  C   UNL     1     -40.398  53.995 -51.289  1.00  0.00     0.018 C 
BRANCH  16  17
HETATM   17  C   UNL     1     -40.858  53.526 -52.688  1.00  0.00     0.015 C 
HETATM   18  C   UNL     1     -40.419  54.459 -53.824  1.00  0.00     0.015 C 
BRANCH  17  19
HETATM   19  C   UNL     1     -40.367  52.105 -52.940  1.00  0.00    -0.054 A 
HETATM   20  C   UNL     1     -40.386  51.537 -54.224  1.00  0.00     0.007 A 
HETATM   21  C   UNL     1     -39.921  50.237 -54.437  1.00  0.00     0.001 A 
HETATM   22  C   UNL     1     -39.430  49.489 -53.371  1.00  0.00     0.000 A 
HETATM   23  C   UNL     1     -39.402  50.040 -52.091  1.00  0.00     0.001 A 
HETATM   24  C   UNL     1     -39.865  51.340 -51.877  1.00  0.00     0.007 A 
ENDBRANCH  17  19
ENDBRANCH  16  17
ENDBRANCH  15  16
ENDBRANCH  12  15
ENDBRANCH   1  11
BRANCH   8  25
HETATM   25  C   UNL     1     -44.479  56.885 -54.425  1.00  0.00     0.270 C 
HETATM   26  N   UNL     1     -44.290  55.532 -54.364  1.00  0.00    -0.365 N 
HETATM   27  H   UNL     1     -43.363  55.179 -54.163  1.00  0.00     0.159 HD
HETATM   28  H   UNL     1     -45.067  54.908 -54.523  1.00  0.00     0.159 HD
HETATM   29  O   UNL     1     -45.581  57.366 -54.668  1.00  0.00    -0.266 OA
ENDBRANCH   8  25
TORSDOF 6
ENDMDL
MODEL 6
REMARK VINA RESULT:      -8.0      3.289      6.040
REMARK  6 active torsions:
REMARK  status: ('A' for Active; 'I' for Inactive)
REMARK    1  A    between atoms: C_2  and  C_3 
REMARK    2  A    between atoms: C_2  and  C_9 
REMARK    3  A    between atoms: C_9  and  C_10 
REMARK    4  A    between atoms: C_10  and  C_11 
REMARK       I    between atoms: C_11  and  N_12 
REMARK    5  A    between atoms: N_12  and  C_13 
REMARK    6  A    between atoms: C_20  and  C_21 
REMARK       I    between atoms: C_21  and  N_22 
ROOT
HETATM    1  C   UNL     1     -43.569  57.599 -56.091  1.00  0.00     0.035 A 
HETATM    2  C   UNL     1     -43.894  56.752 -57.154  1.00  0.00     0.046 A 
HETATM    3  C   UNL     1     -43.162  56.817 -58.361  1.00  0.00     0.030 A 
HETATM    4  C   UNL     1     -42.127  57.732 -58.474  1.00  0.00     0.063 A 
HETATM    5  N   UNL     1     -41.621  57.552 -59.732  1.00  0.00    -0.277 N 
HETATM    6  H   UNL     1     -40.848  58.049 -60.161  1.00  0.00     0.189 HD
HETATM    7  N   UNL     1     -42.245  56.604 -60.452  1.00  0.00    -0.168 NA
HETATM    8  C   UNL     1     -43.203  56.141 -59.618  1.00  0.00     0.156 A 
HETATM    9  C   UNL     1     -41.775  58.605 -57.445  1.00  0.00     0.034 A 
HETATM   10  C   UNL     1     -42.521  58.520 -56.260  1.00  0.00     0.032 A 
ENDROOT
BRANCH   1  11
HETATM   11  N   UNL     1     -44.217  57.628 -54.840  1.00  0.00    -0.327 N 
HETATM   12  C   UNL     1     -43.966  57.083 -53.613  1.00  0.00     0.222 C 
HETATM   13  O   UNL     1     -44.786  57.312 -52.719  1.00  0.00    -0.273 OA
HETATM   14  H   UNL     1     -45.055  58.198 -54.791  1.00  0.00     0.169 HD
BRANCH  12  15
HETATM   15  C   UNL     1     -42.726  56.257 -53.361  1.00  0.00     0.103 C 
BRANCH  15  16
HETATM   16  C   UNL     1     -42.866  54.770 -53.705  1.00  0.00     0.018 C 
BRANCH  16  17
HETATM   17  C   UNL     1     -41.733  54.155 -54.557  1.00  0.00     0.015 C 
HETATM   18  C   UNL     1     -40.808  55.200 -55.195  1.00  0.00     0.015 C 
BRANCH  17  19
HETATM   19  C   UNL     1     -40.930  53.172 -53.712  1.00  0.00    -0.054 A 
HETATM   20  C   UNL     1     -40.613  53.443 -52.371  1.00  0.00     0.007 A 
HETATM   21  C   UNL     1     -39.887  52.524 -51.609  1.00  0.00     0.001 A 
HETATM   22  C   UNL     1     -39.469  51.325 -52.177  1.00  0.00     0.000 A 
HETATM   23  C   UNL     1     -39.778  51.040 -53.506  1.00  0.00     0.001 A 
HETATM   24  C   UNL     1     -40.505  51.956 -54.268  1.00  0.00     0.007 A 
ENDBRANCH  17  19
ENDBRANCH  16  17
ENDBRANCH  15  16
ENDBRANCH  12  15
ENDBRANCH   1  11
BRANCH   8  25
HETATM   25  C   UNL     1     -44.131  55.076 -60.022  1.00  0.00     0.270 C 
HETATM   26  N   UNL     1     -44.394  54.159 -59.044  1.00  0.00    -0.365 N 
HETATM   27  H   UNL     1     -43.950  54.270 -58.140  1.00  0.00     0.159 HD
HETATM   28  H   UNL     1     -45.018  53.389 -59.231  1.00  0.00     0.159 HD
HETATM   29  O   UNL     1     -44.639  54.988 -61.135  1.00  0.00    -0.266 OA
ENDBRANCH   8  25
TORSDOF 6
ENDMDL
MODEL 7
REMARK VINA RESULT:      -7.8      2.680      5.485
REMARK  6 active torsions:
REMARK  status: ('A' for Active; 'I' for Inactive)
REMARK    1  A    between atoms: C_2  and  C_3 
REMARK    2  A    between atoms: C_2  and  C_9 
REMARK    3  A    between atoms: C_9  and  C_10 
REMARK    4  A    between atoms: C_10  and  C_11 
REMARK       I    between atoms: C_11  and  N_12 
REMARK    5  A    between atoms: N_12  and  C_13 
REMARK    6  A    between atoms: C_20  and  C_21 
REMARK       I    between atoms: C_21  and  N_22 
ROOT
HETATM    1  C   UNL     1     -42.727  58.631 -55.437  1.00  0.00     0.035 A 
HETATM    2  C   UNL     1     -42.471  58.268 -56.761  1.00  0.00     0.046 A 
HETATM    3  C   UNL     1     -43.533  57.879 -57.608  1.00  0.00     0.030 A 
HETATM    4  C   UNL     1     -44.825  57.859 -57.105  1.00  0.00     0.063 A 
HETATM    5  N   UNL     1     -45.613  57.453 -58.147  1.00  0.00    -0.277 N 
HETATM    6  H   UNL     1     -46.619  57.329 -58.144  1.00  0.00     0.189 HD
HETATM    7  N   UNL     1     -44.943  57.197 -59.284  1.00  0.00    -0.168 NA
HETATM    8  C   UNL     1     -43.654  57.454 -58.966  1.00  0.00     0.156 A 
HETATM    9  C   UNL     1     -45.127  58.202 -55.788  1.00  0.00     0.034 A 
HETATM   10  C   UNL     1     -44.052  58.581 -54.970  1.00  0.00     0.032 A 
ENDROOT
BRANCH   1  11
HETATM   11  N   UNL     1     -41.759  59.040 -54.498  1.00  0.00    -0.327 N 
HETATM   12  C   UNL     1     -40.910  58.391 -53.647  1.00  0.00     0.222 C 
HETATM   13  O   UNL     1     -40.188  59.093 -52.933  1.00  0.00    -0.273 OA
HETATM   14  H   UNL     1     -41.609  60.040 -54.428  1.00  0.00     0.169 HD
BRANCH  12  15
HETATM   15  C   UNL     1     -40.846  56.882 -53.603  1.00  0.00     0.103 C 
BRANCH  15  16
HETATM   16  C   UNL     1     -41.771  56.231 -52.569  1.00  0.00     0.018 C 
BRANCH  16  17
HETATM   17  C   UNL     1     -42.463  54.919 -53.002  1.00  0.00     0.015 C 
HETATM   18  C   UNL     1     -43.176  55.018 -54.356  1.00  0.00     0.015 C 
BRANCH  17  19
HETATM   19  C   UNL     1     -41.447  53.781 -53.012  1.00  0.00    -0.054 A 
HETATM   20  C   UNL     1     -40.793  53.370 -51.839  1.00  0.00     0.007 A 
HETATM   21  C   UNL     1     -39.874  52.318 -51.866  1.00  0.00     0.001 A 
HETATM   22  C   UNL     1     -39.598  51.664 -53.063  1.00  0.00     0.000 A 
HETATM   23  C   UNL     1     -40.242  52.059 -54.235  1.00  0.00     0.001 A 
HETATM   24  C   UNL     1     -41.162  53.109 -54.209  1.00  0.00     0.007 A 
ENDBRANCH  17  19
ENDBRANCH  16  17
ENDBRANCH  15  16
ENDBRANCH  12  15
ENDBRANCH   1  11
BRANCH   8  25
HETATM   25  C   UNL     1     -42.571  57.294 -59.945  1.00  0.00     0.270 C 
HETATM   26  N   UNL     1     -42.048  58.472 -60.402  1.00  0.00    -0.365 N 
HETATM   27  H   UNL     1     -42.427  59.342 -60.048  1.00  0.00     0.159 HD
HETATM   28  H   UNL     1     -41.302  58.461 -61.080  1.00  0.00     0.159 HD
HETATM   29  O   UNL     1     -42.151  56.211 -60.342  1.00  0.00    -0.266 OA
ENDBRANCH   8  25
TORSDOF 6
ENDMDL
MODEL 8
REMARK VINA RESULT:      -7.8      2.344      4.973
REMARK  6 active torsions:
REMARK  status: ('A' for Active; 'I' for Inactive)
REMARK    1  A    between atoms: C_2  and  C_3 
REMARK    2  A    between atoms: C_2  and  C_9 
REMARK    3  A    between atoms: C_9  and  C_10 
REMARK    4  A    between atoms: C_10  and  C_11 
REMARK       I    between atoms: C_11  and  N_12 
REMARK    5  A    between atoms: N_12  and  C_13 
REMARK    6  A    between atoms: C_20  and  C_21 
REMARK       I    between atoms: C_21  and  N_22 
ROOT
HETATM    1  C   UNL     1     -41.564  56.594 -53.669  1.00  0.00     0.035 A 
HETATM    2  C   UNL     1     -42.613  57.221 -54.348  1.00  0.00     0.046 A 
HETATM    3  C   UNL     1     -42.929  56.838 -55.671  1.00  0.00     0.030 A 
HETATM    4  C   UNL     1     -42.185  55.841 -56.282  1.00  0.00     0.063 A 
HETATM    5  N   UNL     1     -42.727  55.698 -57.530  1.00  0.00    -0.277 N 
HETATM    6  H   UNL     1     -42.436  55.052 -58.256  1.00  0.00     0.189 HD
HETATM    7  N   UNL     1     -43.755  56.525 -57.788  1.00  0.00    -0.168 NA
HETATM    8  C   UNL     1     -43.891  57.238 -56.647  1.00  0.00     0.156 A 
HETATM    9  C   UNL     1     -41.123  55.196 -55.648  1.00  0.00     0.034 A 
HETATM   10  C   UNL     1     -40.830  55.599 -54.337  1.00  0.00     0.032 A 
ENDROOT
BRANCH   1  11
HETATM   11  N   UNL     1     -41.155  56.881 -52.351  1.00  0.00    -0.327 N 
HETATM   12  C   UNL     1     -41.468  56.386 -51.118  1.00  0.00     0.222 C 
HETATM   13  O   UNL     1     -40.909  56.906 -50.147  1.00  0.00    -0.273 OA
HETATM   14  H   UNL     1     -40.444  57.597 -52.257  1.00  0.00     0.169 HD
BRANCH  12  15
HETATM   15  C   UNL     1     -42.437  55.237 -50.956  1.00  0.00     0.103 C 
BRANCH  15  16
HETATM   16  C   UNL     1     -41.975  53.916 -51.579  1.00  0.00     0.018 C 
BRANCH  16  17
HETATM   17  C   UNL     1     -40.513  53.500 -51.296  1.00  0.00     0.015 C 
HETATM   18  C   UNL     1     -40.201  53.328 -49.805  1.00  0.00     0.015 C 
BRANCH  17  19
HETATM   19  C   UNL     1     -40.185  52.224 -52.065  1.00  0.00    -0.054 A 
HETATM   20  C   UNL     1     -39.775  51.054 -51.406  1.00  0.00     0.007 A 
HETATM   21  C   UNL     1     -39.489  49.892 -52.126  1.00  0.00     0.001 A 
HETATM   22  C   UNL     1     -39.611  49.884 -53.512  1.00  0.00     0.000 A 
HETATM   23  C   UNL     1     -40.020  51.036 -54.180  1.00  0.00     0.001 A 
HETATM   24  C   UNL     1     -40.307  52.198 -53.462  1.00  0.00     0.007 A 
ENDBRANCH  17  19
ENDBRANCH  16  17
ENDBRANCH  15  16
ENDBRANCH  12  15
ENDBRANCH   1  11
BRANCH   8  25
HETATM   25  C   UNL     1     -44.921  58.276 -56.505  1.00  0.00     0.270 C 
HETATM   26  N   UNL     1     -46.126  57.813 -56.053  1.00  0.00    -0.365 N 
HETATM   27  H   UNL     1     -46.224  56.825 -55.855  1.00  0.00     0.159 HD
HETATM   28  H   UNL     1     -46.895  58.453 -55.928  1.00  0.00     0.159 HD
HETATM   29  O   UNL     1     -44.748  59.463 -56.763  1.00  0.00    -0.266 OA
ENDBRANCH   8  25
TORSDOF 6
ENDMDL
MODEL 9
REMARK VINA RESULT:      -7.6      2.246      3.895
REMARK  6 active torsions:
REMARK  status: ('A' for Active; 'I' for Inactive)
REMARK    1  A    between atoms: C_2  and  C_3 
REMARK    2  A    between atoms: C_2  and  C_9 
REMARK    3  A    between atoms: C_9  and  C_10 
REMARK    4  A    between atoms: C_10  and  C_11 
REMARK       I    between atoms: C_11  and  N_12 
REMARK    5  A    between atoms: N_12  and  C_13 
REMARK    6  A    between atoms: C_20  and  C_21 
REMARK       I    between atoms: C_21  and  N_22 
ROOT
HETATM    1  C   UNL     1     -42.655  57.321 -54.517  1.00  0.00     0.035 A 
HETATM    2  C   UNL     1     -43.675  57.864 -53.730  1.00  0.00     0.046 A 
HETATM    3  C   UNL     1     -43.381  58.394 -52.454  1.00  0.00     0.030 A 
HETATM    4  C   UNL     1     -42.073  58.363 -51.996  1.00  0.00     0.063 A 
HETATM    5  N   UNL     1     -42.110  58.943 -50.757  1.00  0.00    -0.277 N 
HETATM    6  H   UNL     1     -41.330  59.095 -50.126  1.00  0.00     0.189 HD
HETATM    7  N   UNL     1     -43.333  59.340 -50.365  1.00  0.00    -0.168 NA
HETATM    8  C   UNL     1     -44.131  59.005 -51.404  1.00  0.00     0.156 A 
HETATM    9  C   UNL     1     -41.025  57.822 -52.740  1.00  0.00     0.034 A 
HETATM   10  C   UNL     1     -41.348  57.300 -54.001  1.00  0.00     0.032 A 
ENDROOT
BRANCH   1  11
HETATM   11  N   UNL     1     -42.819  56.768 -55.802  1.00  0.00    -0.327 N 
HETATM   12  C   UNL     1     -42.902  55.499 -56.299  1.00  0.00     0.222 C 
HETATM   13  O   UNL     1     -43.032  55.383 -57.522  1.00  0.00    -0.273 OA
HETATM   14  H   UNL     1     -42.932  57.435 -56.558  1.00  0.00     0.169 HD
BRANCH  12  15
HETATM   15  C   UNL     1     -42.860  54.294 -55.388  1.00  0.00     0.103 C 
BRANCH  15  16
HETATM   16  C   UNL     1     -41.460  53.915 -54.891  1.00  0.00     0.018 C 
BRANCH  16  17
HETATM   17  C   UNL     1     -41.401  52.979 -53.663  1.00  0.00     0.015 C 
HETATM   18  C   UNL     1     -40.100  52.172 -53.567  1.00  0.00     0.015 C 
BRANCH  17  19
HETATM   19  C   UNL     1     -41.628  53.787 -52.389  1.00  0.00    -0.054 A 
HETATM   20  C   UNL     1     -40.562  54.156 -51.553  1.00  0.00     0.007 A 
HETATM   21  C   UNL     1     -40.788  54.907 -50.397  1.00  0.00     0.001 A 
HETATM   22  C   UNL     1     -42.081  55.298 -50.063  1.00  0.00     0.000 A 
HETATM   23  C   UNL     1     -43.149  54.942 -50.884  1.00  0.00     0.001 A 
HETATM   24  C   UNL     1     -42.924  54.193 -52.041  1.00  0.00     0.007 A 
ENDBRANCH  17  19
ENDBRANCH  16  17
ENDBRANCH  15  16
ENDBRANCH  12  15
ENDBRANCH   1  11
BRANCH   8  25
HETATM   25  C   UNL     1     -45.576  59.268 -51.383  1.00  0.00     0.270 C 
HETATM   26  N   UNL     1     -46.006  60.120 -52.362  1.00  0.00    -0.365 N 
HETATM   27  H   UNL     1     -45.327  60.498 -53.011  1.00  0.00     0.159 HD
HETATM   28  H   UNL     1     -46.983  60.363 -52.424  1.00  0.00     0.159 HD
HETATM   29  O   UNL     1     -46.356  58.783 -50.569  1.00  0.00    -0.266 OA
ENDBRANCH   8  25
TORSDOF 6
ENDMDL
MODEL 10
REMARK VINA RESULT:      -7.6      2.466      4.905
REMARK  6 active torsions:
REMARK  status: ('A' for Active; 'I' for Inactive)
REMARK    1  A    between atoms: C_2  and  C_3 
REMARK    2  A    between atoms: C_2  and  C_9 
REMARK    3  A    between atoms: C_9  and  C_10 
REMARK    4  A    between atoms: C_10  and  C_11 
REMARK       I    between atoms: C_11  and  N_12 
REMARK    5  A    between atoms: N_12  and  C_13 
REMARK    6  A    between atoms: C_20  and  C_21 
REMARK       I    between atoms: C_21  and  N_22 
ROOT
HETATM    1  C   UNL     1     -41.608  57.281 -51.060  1.00  0.00     0.035 A 
HETATM    2  C   UNL     1     -42.693  57.539 -51.901  1.00  0.00     0.046 A 
HETATM    3  C   UNL     1     -42.590  58.523 -52.911  1.00  0.00     0.030 A 
HETATM    4  C   UNL     1     -41.404  59.227 -53.049  1.00  0.00     0.063 A 
HETATM    5  N   UNL     1     -41.611  60.085 -54.093  1.00  0.00    -0.277 N 
HETATM    6  H   UNL     1     -40.954  60.753 -54.480  1.00  0.00     0.189 HD
HETATM    7  N   UNL     1     -42.837  60.007 -54.642  1.00  0.00    -0.168 NA
HETATM    8  C   UNL     1     -43.455  59.046 -53.919  1.00  0.00     0.156 A 
HETATM    9  C   UNL     1     -40.299  59.011 -52.225  1.00  0.00     0.034 A 
HETATM   10  C   UNL     1     -40.432  58.032 -51.231  1.00  0.00     0.032 A 
ENDROOT
BRANCH   1  11
HETATM   11  N   UNL     1     -41.584  56.327 -50.023  1.00  0.00    -0.327 N 
HETATM   12  C   UNL     1     -41.762  54.975 -49.957  1.00  0.00     0.222 C 
HETATM   13  O   UNL     1     -41.684  54.454 -48.840  1.00  0.00    -0.273 OA
HETATM   14  H   UNL     1     -41.360  56.685 -49.101  1.00  0.00     0.169 HD
BRANCH  12  15
HETATM   15  C   UNL     1     -42.018  54.155 -51.200  1.00  0.00     0.103 C 
BRANCH  15  16
HETATM   16  C   UNL     1     -40.971  53.071 -51.480  1.00  0.00     0.018 C 
BRANCH  16  17
HETATM   17  C   UNL     1     -40.207  53.187 -52.818  1.00  0.00     0.015 C 
HETATM   18  C   UNL     1     -39.810  51.833 -53.418  1.00  0.00     0.015 C 
BRANCH  17  19
HETATM   19  C   UNL     1     -41.034  53.994 -53.813  1.00  0.00    -0.054 A 
HETATM   20  C   UNL     1     -40.672  55.300 -54.181  1.00  0.00     0.007 A 
HETATM   21  C   UNL     1     -41.436  56.019 -55.104  1.00  0.00     0.001 A 
HETATM   22  C   UNL     1     -42.569  55.443 -55.670  1.00  0.00     0.000 A 
HETATM   23  C   UNL     1     -42.940  54.147 -55.316  1.00  0.00     0.001 A 
HETATM   24  C   UNL     1     -42.176  53.426 -54.396  1.00  0.00     0.007 A 
ENDBRANCH  17  19
ENDBRANCH  16  17
ENDBRANCH  15  16
ENDBRANCH  12  15
ENDBRANCH   1  11
BRANCH   8  25
HETATM   25  C   UNL     1     -44.841  58.645 -54.195  1.00  0.00     0.270 C 
HETATM   26  N   UNL     1     -45.752  59.657 -54.079  1.00  0.00    -0.365 N 
HETATM   27  H   UNL     1     -45.425  60.580 -53.820  1.00  0.00     0.159 HD
HETATM   28  H   UNL     1     -46.730  59.475 -54.246  1.00  0.00     0.159 HD
HETATM   29  O   UNL     1     -45.184  57.508 -54.503  1.00  0.00    -0.266 OA
ENDBRANCH   8  25
TORSDOF 6
ENDMDL
