MODEL 1
REMARK VINA RESULT:      -9.1      0.000      0.000
REMARK  2 active torsions:
REMARK  status: ('A' for Active; 'I' for Inactive)
REMARK    1  A    between atoms: C_5  and  N_6 
REMARK    2  A    between atoms: C_9  and  C_10 
REMARK       I    between atoms: C_10  and  N_11 
ROOT
HETATM    1  N   UNL     1     -42.212  56.577 -52.882  1.00  0.00    -0.281 N 
HETATM    2  C   UNL     1     -43.060  56.648 -54.009  1.00  0.00     0.268 A 
HETATM    3  O   UNL     1     -43.398  55.704 -54.732  1.00  0.00    -0.267 OA
HETATM    4  C   UNL     1     -43.653  57.971 -54.332  1.00  0.00     0.101 A 
HETATM    5  C   UNL     1     -43.361  59.025 -53.559  1.00  0.00     0.040 A 
HETATM    6  C   UNL     1     -42.464  58.917 -52.433  1.00  0.00     0.034 A 
HETATM    7  C   UNL     1     -41.905  57.731 -52.115  1.00  0.00     0.034 A 
HETATM    8  C   UNL     1     -40.863  57.639 -51.008  1.00  0.00     0.059 C 
HETATM    9  C   UNL     1     -40.204  58.977 -50.690  1.00  0.00     0.014 C 
HETATM   10  C   UNL     1     -41.250  60.043 -50.441  1.00  0.00     0.084 C 
HETATM   11  C   UNL     1     -42.177  60.152 -51.624  1.00  0.00     0.161 C 
HETATM   12  O   UNL     1     -42.748  61.207 -51.894  1.00  0.00    -0.292 OA
ENDROOT
BRANCH   4  13
HETATM   13  C   UNL     1     -44.594  58.186 -55.459  1.00  0.00     0.262 C 
HETATM   14  N   UNL     1     -44.348  57.376 -56.608  1.00  0.00    -0.309 N 
HETATM   15  H   UNL     1     -43.507  56.801 -56.563  1.00  0.00     0.170 HD
HETATM   16  C   UNL     1     -45.051  57.254 -57.719  1.00  0.00     0.108 A 
HETATM   17  N   UNL     1     -44.650  56.430 -58.691  1.00  0.00    -0.346 N 
HETATM   18  C   UNL     1     -46.330  58.003 -57.961  1.00  0.00     0.049 A 
HETATM   19  C   UNL     1     -45.363  56.250 -59.875  1.00  0.00     0.007 A 
HETATM   20  H   UNL     1     -43.793  55.904 -58.575  1.00  0.00     0.167 HD
HETATM   21  C   UNL     1     -44.794  55.281 -60.868  1.00  0.00     0.068 C 
HETATM   22  C   UNL     1     -46.508  56.918 -60.091  1.00  0.00     0.025 A 
HETATM   23  C   UNL     1     -47.013  57.832 -59.101  1.00  0.00     0.006 A 
HETATM   24  O   UNL     1     -45.524  58.971 -55.430  1.00  0.00    -0.267 OA
ENDBRANCH   4  13
BRANCH   1  25
HETATM   25  C   UNL     1     -41.690  55.280 -52.545  1.00  0.00     0.042 A 
HETATM   26  C   UNL     1     -40.781  54.637 -53.395  1.00  0.00     0.030 A 
HETATM   27  C   UNL     1     -40.195  53.424 -53.018  1.00  0.00     0.009 A 
HETATM   28  C   UNL     1     -40.519  52.825 -51.797  1.00  0.00    -0.062 A 
HETATM   29  C   UNL     1     -39.864  51.547 -51.359  1.00  0.00     0.048 C 
HETATM   30  C   UNL     1     -41.465  53.439 -50.971  1.00  0.00     0.009 A 
HETATM   31  C   UNL     1     -42.048  54.654 -51.344  1.00  0.00     0.030 A 
ENDBRANCH   1  25
TORSDOF 2
ENDMDL
MODEL 2
REMARK VINA RESULT:      -9.1      2.153      5.002
REMARK  2 active torsions:
REMARK  status: ('A' for Active; 'I' for Inactive)
REMARK    1  A    between atoms: C_5  and  N_6 
REMARK    2  A    between atoms: C_9  and  C_10 
REMARK       I    between atoms: C_10  and  N_11 
ROOT
HETATM    1  N   UNL     1     -42.556  56.953 -52.015  1.00  0.00    -0.281 N 
HETATM    2  C   UNL     1     -43.042  56.772 -53.329  1.00  0.00     0.268 A 
HETATM    3  O   UNL     1     -43.745  57.565 -53.965  1.00  0.00    -0.267 OA
HETATM    4  C   UNL     1     -42.628  55.538 -54.043  1.00  0.00     0.101 A 
HETATM    5  C   UNL     1     -41.829  54.659 -53.423  1.00  0.00     0.040 A 
HETATM    6  C   UNL     1     -41.378  54.866 -52.067  1.00  0.00     0.034 A 
HETATM    7  C   UNL     1     -41.740  55.974 -51.388  1.00  0.00     0.034 A 
HETATM    8  C   UNL     1     -41.372  56.136 -49.919  1.00  0.00     0.059 C 
HETATM    9  C   UNL     1     -41.044  54.814 -49.232  1.00  0.00     0.014 C 
HETATM   10  C   UNL     1     -40.012  54.040 -50.027  1.00  0.00     0.084 C 
HETATM   11  C   UNL     1     -40.495  53.825 -51.438  1.00  0.00     0.161 C 
HETATM   12  O   UNL     1     -40.127  52.855 -52.098  1.00  0.00    -0.292 OA
ENDROOT
BRANCH   4  13
HETATM   13  C   UNL     1     -43.025  55.236 -55.440  1.00  0.00     0.262 C 
HETATM   14  N   UNL     1     -42.939  56.342 -56.339  1.00  0.00    -0.309 N 
HETATM   15  H   UNL     1     -42.696  57.234 -55.910  1.00  0.00     0.170 HD
HETATM   16  C   UNL     1     -43.120  56.380 -57.647  1.00  0.00     0.108 A 
HETATM   17  N   UNL     1     -42.990  57.528 -58.318  1.00  0.00    -0.346 N 
HETATM   18  C   UNL     1     -43.463  55.164 -58.459  1.00  0.00     0.049 A 
HETATM   19  C   UNL     1     -43.153  57.621 -59.700  1.00  0.00     0.007 A 
HETATM   20  H   UNL     1     -42.761  58.376 -57.815  1.00  0.00     0.167 HD
HETATM   21  C   UNL     1     -42.962  58.975 -60.314  1.00  0.00     0.068 C 
HETATM   22  C   UNL     1     -43.458  56.534 -60.426  1.00  0.00     0.025 A 
HETATM   23  C   UNL     1     -43.623  55.256 -59.786  1.00  0.00     0.006 A 
HETATM   24  O   UNL     1     -43.385  54.140 -55.826  1.00  0.00    -0.267 OA
ENDBRANCH   4  13
BRANCH   1  25
HETATM   25  C   UNL     1     -42.916  58.179 -51.354  1.00  0.00     0.042 A 
HETATM   26  C   UNL     1     -41.946  59.153 -51.088  1.00  0.00     0.030 A 
HETATM   27  C   UNL     1     -42.312  60.387 -50.539  1.00  0.00     0.009 A 
HETATM   28  C   UNL     1     -43.649  60.661 -50.233  1.00  0.00    -0.062 A 
HETATM   29  C   UNL     1     -44.065  61.996 -49.686  1.00  0.00     0.048 C 
HETATM   30  C   UNL     1     -44.611  59.669 -50.449  1.00  0.00     0.009 A 
HETATM   31  C   UNL     1     -44.247  58.439 -51.002  1.00  0.00     0.030 A 
ENDBRANCH   1  25
TORSDOF 2
ENDMDL
MODEL 3
REMARK VINA RESULT:      -8.8      2.800      5.289
REMARK  2 active torsions:
REMARK  status: ('A' for Active; 'I' for Inactive)
REMARK    1  A    between atoms: C_5  and  N_6 
REMARK    2  A    between atoms: C_9  and  C_10 
REMARK       I    between atoms: C_10  and  N_11 
ROOT
HETATM    1  N   UNL     1     -43.052  57.284 -52.535  1.00  0.00    -0.281 N 
HETATM    2  C   UNL     1     -43.216  57.453 -53.927  1.00  0.00     0.268 A 
HETATM    3  O   UNL     1     -43.838  58.364 -54.485  1.00  0.00    -0.267 OA
HETATM    4  C   UNL     1     -42.533  56.480 -54.816  1.00  0.00     0.101 A 
HETATM    5  C   UNL     1     -41.805  55.495 -54.272  1.00  0.00     0.040 A 
HETATM    6  C   UNL     1     -41.687  55.338 -52.841  1.00  0.00     0.034 A 
HETATM    7  C   UNL     1     -42.300  56.202 -52.006  1.00  0.00     0.034 A 
HETATM    8  C   UNL     1     -42.282  55.967 -50.501  1.00  0.00     0.059 C 
HETATM    9  C   UNL     1     -41.981  54.521 -50.121  1.00  0.00     0.014 C 
HETATM   10  C   UNL     1     -40.728  54.035 -50.819  1.00  0.00     0.084 C 
HETATM   11  C   UNL     1     -40.864  54.198 -52.310  1.00  0.00     0.161 C 
HETATM   12  O   UNL     1     -40.264  53.461 -53.091  1.00  0.00    -0.292 OA
ENDROOT
BRANCH   4  13
HETATM   13  C   UNL     1     -42.581  56.559 -56.297  1.00  0.00     0.262 C 
HETATM   14  N   UNL     1     -42.381  57.867 -56.833  1.00  0.00    -0.309 N 
HETATM   15  H   UNL     1     -42.311  58.614 -56.142  1.00  0.00     0.170 HD
HETATM   16  C   UNL     1     -42.266  58.253 -58.090  1.00  0.00     0.108 A 
HETATM   17  N   UNL     1     -42.078  59.541 -58.392  1.00  0.00    -0.346 N 
HETATM   18  C   UNL     1     -42.320  57.296 -59.246  1.00  0.00     0.049 A 
HETATM   19  C   UNL     1     -41.932  60.000 -59.700  1.00  0.00     0.007 A 
HETATM   20  H   UNL     1     -42.035  60.225 -57.647  1.00  0.00     0.167 HD
HETATM   21  C   UNL     1     -41.714  61.472 -59.881  1.00  0.00     0.068 C 
HETATM   22  C   UNL     1     -41.979  59.144 -60.733  1.00  0.00     0.025 A 
HETATM   23  C   UNL     1     -42.183  57.738 -60.503  1.00  0.00     0.006 A 
HETATM   24  O   UNL     1     -42.757  55.601 -57.026  1.00  0.00    -0.267 OA
ENDBRANCH   4  13
BRANCH   1  25
HETATM   25  C   UNL     1     -43.670  58.266 -51.685  1.00  0.00     0.042 A 
HETATM   26  C   UNL     1     -42.969  59.416 -51.301  1.00  0.00     0.030 A 
HETATM   27  C   UNL     1     -43.603  60.420 -50.561  1.00  0.00     0.009 A 
HETATM   28  C   UNL     1     -44.942  60.284 -50.179  1.00  0.00    -0.062 A 
HETATM   29  C   UNL     1     -45.650  61.372 -49.425  1.00  0.00     0.048 C 
HETATM   30  C   UNL     1     -45.628  59.114 -50.517  1.00  0.00     0.009 A 
HETATM   31  C   UNL     1     -44.997  58.113 -51.261  1.00  0.00     0.030 A 
ENDBRANCH   1  25
TORSDOF 2
ENDMDL
MODEL 4
REMARK VINA RESULT:      -8.7      1.512      1.890
REMARK  2 active torsions:
REMARK  status: ('A' for Active; 'I' for Inactive)
REMARK    1  A    between atoms: C_5  and  N_6 
REMARK    2  A    between atoms: C_9  and  C_10 
REMARK       I    between atoms: C_10  and  N_11 
ROOT
HETATM    1  N   UNL     1     -41.917  56.870 -54.092  1.00  0.00    -0.281 N 
HETATM    2  C   UNL     1     -42.546  57.277 -55.289  1.00  0.00     0.268 A 
HETATM    3  O   UNL     1     -42.724  56.582 -56.295  1.00  0.00    -0.267 OA
HETATM    4  C   UNL     1     -43.098  58.655 -55.333  1.00  0.00     0.101 A 
HETATM    5  C   UNL     1     -42.975  59.444 -54.257  1.00  0.00     0.040 A 
HETATM    6  C   UNL     1     -42.298  58.999 -53.061  1.00  0.00     0.034 A 
HETATM    7  C   UNL     1     -41.781  57.756 -52.991  1.00  0.00     0.034 A 
HETATM    8  C   UNL     1     -40.958  57.328 -51.783  1.00  0.00     0.059 C 
HETATM    9  C   UNL     1     -40.397  58.504 -50.990  1.00  0.00     0.014 C 
HETATM   10  C   UNL     1     -41.494  59.490 -50.648  1.00  0.00     0.084 C 
HETATM   11  C   UNL     1     -42.190  59.951 -51.902  1.00  0.00     0.161 C 
HETATM   12  O   UNL     1     -42.725  61.057 -51.967  1.00  0.00    -0.292 OA
ENDROOT
BRANCH   4  13
HETATM   13  C   UNL     1     -43.821  59.204 -56.506  1.00  0.00     0.262 C 
HETATM   14  N   UNL     1     -44.508  58.231 -57.295  1.00  0.00    -0.309 N 
HETATM   15  H   UNL     1     -44.359  57.262 -57.016  1.00  0.00     0.170 HD
HETATM   16  C   UNL     1     -45.314  58.401 -58.326  1.00  0.00     0.108 A 
HETATM   17  N   UNL     1     -45.868  57.350 -58.936  1.00  0.00    -0.346 N 
HETATM   18  C   UNL     1     -45.670  59.755 -58.870  1.00  0.00     0.049 A 
HETATM   19  C   UNL     1     -46.739  57.472 -60.018  1.00  0.00     0.007 A 
HETATM   20  H   UNL     1     -45.657  56.416 -58.608  1.00  0.00     0.167 HD
HETATM   21  C   UNL     1     -47.293  56.202 -60.590  1.00  0.00     0.068 C 
HETATM   22  C   UNL     1     -47.060  58.683 -60.502  1.00  0.00     0.025 A 
HETATM   23  C   UNL     1     -46.505  59.872 -59.911  1.00  0.00     0.006 A 
HETATM   24  O   UNL     1     -43.859  60.386 -56.793  1.00  0.00    -0.267 OA
ENDBRANCH   4  13
BRANCH   1  25
HETATM   25  C   UNL     1     -41.438  55.515 -54.041  1.00  0.00     0.042 A 
HETATM   26  C   UNL     1     -42.101  54.556 -53.264  1.00  0.00     0.030 A 
HETATM   27  C   UNL     1     -41.697  53.216 -53.295  1.00  0.00     0.009 A 
HETATM   28  C   UNL     1     -40.617  52.817 -54.087  1.00  0.00    -0.062 A 
HETATM   29  C   UNL     1     -40.201  51.376 -54.166  1.00  0.00     0.048 C 
HETATM   30  C   UNL     1     -39.921  53.781 -54.823  1.00  0.00     0.009 A 
HETATM   31  C   UNL     1     -40.327  55.118 -54.797  1.00  0.00     0.030 A 
ENDBRANCH   1  25
TORSDOF 2
ENDMDL
MODEL 5
REMARK VINA RESULT:      -8.5      3.434      3.680
REMARK  2 active torsions:
REMARK  status: ('A' for Active; 'I' for Inactive)
REMARK    1  A    between atoms: C_5  and  N_6 
REMARK    2  A    between atoms: C_9  and  C_10 
REMARK       I    between atoms: C_10  and  N_11 
ROOT
HETATM    1  N   UNL     1     -41.863  56.865 -54.903  1.00  0.00    -0.281 N 
HETATM    2  C   UNL     1     -42.307  57.176 -56.207  1.00  0.00     0.268 A 
HETATM    3  O   UNL     1     -42.423  56.384 -57.149  1.00  0.00    -0.267 OA
HETATM    4  C   UNL     1     -42.730  58.576 -56.467  1.00  0.00     0.101 A 
HETATM    5  C   UNL     1     -42.670  59.472 -55.473  1.00  0.00     0.040 A 
HETATM    6  C   UNL     1     -42.181  59.121 -54.161  1.00  0.00     0.034 A 
HETATM    7  C   UNL     1     -41.784  57.860 -53.893  1.00  0.00     0.034 A 
HETATM    8  C   UNL     1     -41.151  57.516 -52.552  1.00  0.00     0.059 C 
HETATM    9  C   UNL     1     -40.590  58.733 -51.822  1.00  0.00     0.014 C 
HETATM   10  C   UNL     1     -41.632  59.828 -51.730  1.00  0.00     0.084 C 
HETATM   11  C   UNL     1     -42.131  60.190 -53.104  1.00  0.00     0.161 C 
HETATM   12  O   UNL     1     -42.557  61.317 -53.353  1.00  0.00    -0.292 OA
ENDROOT
BRANCH   4  13
HETATM   13  C   UNL     1     -43.258  59.036 -57.775  1.00  0.00     0.262 C 
HETATM   14  N   UNL     1     -42.375  59.880 -58.513  1.00  0.00    -0.309 N 
HETATM   15  H   UNL     1     -41.516  60.141 -58.029  1.00  0.00     0.170 HD
HETATM   16  C   UNL     1     -42.501  60.366 -59.735  1.00  0.00     0.108 A 
HETATM   17  N   UNL     1     -41.550  61.146 -60.257  1.00  0.00    -0.346 N 
HETATM   18  C   UNL     1     -43.684  60.074 -60.612  1.00  0.00     0.049 A 
HETATM   19  C   UNL     1     -41.623  61.671 -61.546  1.00  0.00     0.007 A 
HETATM   20  H   UNL     1     -40.733  61.372 -59.704  1.00  0.00     0.167 HD
HETATM   21  C   UNL     1     -40.473  62.519 -61.999  1.00  0.00     0.068 C 
HETATM   22  C   UNL     1     -42.680  61.409 -62.331  1.00  0.00     0.025 A 
HETATM   23  C   UNL     1     -43.755  60.582 -61.849  1.00  0.00     0.006 A 
HETATM   24  O   UNL     1     -44.347  58.723 -58.219  1.00  0.00    -0.267 OA
ENDBRANCH   4  13
BRANCH   1  25
HETATM   25  C   UNL     1     -41.512  55.494 -54.648  1.00  0.00     0.042 A 
HETATM   26  C   UNL     1     -42.472  54.591 -54.175  1.00  0.00     0.030 A 
HETATM   27  C   UNL     1     -42.157  53.236 -54.025  1.00  0.00     0.009 A 
HETATM   28  C   UNL     1     -40.876  52.765 -54.329  1.00  0.00    -0.062 A 
HETATM   29  C   UNL     1     -40.536  51.306 -54.217  1.00  0.00     0.048 C 
HETATM   30  C   UNL     1     -39.902  53.674 -54.752  1.00  0.00     0.009 A 
HETATM   31  C   UNL     1     -40.217  55.026 -54.907  1.00  0.00     0.030 A 
ENDBRANCH   1  25
TORSDOF 2
ENDMDL
MODEL 6
REMARK VINA RESULT:      -8.5     17.516     21.143
REMARK  2 active torsions:
REMARK  status: ('A' for Active; 'I' for Inactive)
REMARK    1  A    between atoms: C_5  and  N_6 
REMARK    2  A    between atoms: C_9  and  C_10 
REMARK       I    between atoms: C_10  and  N_11 
ROOT
HETATM    1  N   UNL     1     -34.253  40.316 -55.312  1.00  0.00    -0.281 N 
HETATM    2  C   UNL     1     -33.174  39.509 -55.737  1.00  0.00     0.268 A 
HETATM    3  O   UNL     1     -32.994  39.070 -56.879  1.00  0.00    -0.267 OA
HETATM    4  C   UNL     1     -32.122  39.197 -54.737  1.00  0.00     0.101 A 
HETATM    5  C   UNL     1     -32.238  39.681 -53.493  1.00  0.00     0.040 A 
HETATM    6  C   UNL     1     -33.372  40.478 -53.089  1.00  0.00     0.034 A 
HETATM    7  C   UNL     1     -34.348  40.775 -53.972  1.00  0.00     0.034 A 
HETATM    8  C   UNL     1     -35.604  41.507 -53.519  1.00  0.00     0.059 C 
HETATM    9  C   UNL     1     -35.849  41.409 -52.017  1.00  0.00     0.014 C 
HETATM   10  C   UNL     1     -34.610  41.813 -51.246  1.00  0.00     0.084 C 
HETATM   11  C   UNL     1     -33.434  40.971 -51.670  1.00  0.00     0.161 C 
HETATM   12  O   UNL     1     -32.502  40.741 -50.902  1.00  0.00    -0.292 OA
ENDROOT
BRANCH   4  13
HETATM   13  C   UNL     1     -30.913  38.398 -55.052  1.00  0.00     0.262 C 
HETATM   14  N   UNL     1     -30.277  38.735 -56.285  1.00  0.00    -0.309 N 
HETATM   15  H   UNL     1     -30.768  39.426 -56.853  1.00  0.00     0.170 HD
HETATM   16  C   UNL     1     -29.144  38.291 -56.797  1.00  0.00     0.108 A 
HETATM   17  N   UNL     1     -28.712  38.736 -57.981  1.00  0.00    -0.346 N 
HETATM   18  C   UNL     1     -28.272  37.287 -56.101  1.00  0.00     0.049 A 
HETATM   19  C   UNL     1     -27.516  38.315 -58.559  1.00  0.00     0.007 A 
HETATM   20  H   UNL     1     -29.266  39.413 -58.490  1.00  0.00     0.167 HD
HETATM   21  C   UNL     1     -27.156  38.914 -59.885  1.00  0.00     0.068 C 
HETATM   22  C   UNL     1     -26.735  37.419 -57.935  1.00  0.00     0.025 A 
HETATM   23  C   UNL     1     -27.124  36.879 -56.659  1.00  0.00     0.006 A 
HETATM   24  O   UNL     1     -30.462  37.529 -54.330  1.00  0.00    -0.267 OA
ENDBRANCH   4  13
BRANCH   1  25
HETATM   25  C   UNL     1     -35.236  40.659 -56.305  1.00  0.00     0.042 A 
HETATM   26  C   UNL     1     -35.174  41.890 -56.969  1.00  0.00     0.030 A 
HETATM   27  C   UNL     1     -36.067  42.182 -58.006  1.00  0.00     0.009 A 
HETATM   28  C   UNL     1     -37.045  41.256 -58.385  1.00  0.00    -0.062 A 
HETATM   29  C   UNL     1     -37.980  41.535 -59.525  1.00  0.00     0.048 C 
HETATM   30  C   UNL     1     -37.141  40.048 -57.688  1.00  0.00     0.009 A 
HETATM   31  C   UNL     1     -36.246  39.754 -56.655  1.00  0.00     0.030 A 
ENDBRANCH   1  25
TORSDOF 2
ENDMDL
MODEL 7
REMARK VINA RESULT:      -8.3      3.072      7.489
REMARK  2 active torsions:
REMARK  status: ('A' for Active; 'I' for Inactive)
REMARK    1  A    between atoms: C_5  and  N_6 
REMARK    2  A    between atoms: C_9  and  C_10 
REMARK       I    between atoms: C_10  and  N_11 
ROOT
HETATM    1  N   UNL     1     -42.743  58.571 -52.390  1.00  0.00    -0.281 N 
HETATM    2  C   UNL     1     -42.254  57.441 -51.699  1.00  0.00     0.268 A 
HETATM    3  O   UNL     1     -42.184  57.308 -50.472  1.00  0.00    -0.267 OA
HETATM    4  C   UNL     1     -41.833  56.274 -52.515  1.00  0.00     0.101 A 
HETATM    5  C   UNL     1     -41.927  56.341 -53.850  1.00  0.00     0.040 A 
HETATM    6  C   UNL     1     -42.405  57.527 -54.520  1.00  0.00     0.034 A 
HETATM    7  C   UNL     1     -42.791  58.606 -53.809  1.00  0.00     0.034 A 
HETATM    8  C   UNL     1     -43.174  59.900 -54.514  1.00  0.00     0.059 C 
HETATM    9  C   UNL     1     -42.625  59.998 -55.933  1.00  0.00     0.014 C 
HETATM   10  C   UNL     1     -42.974  58.757 -56.728  1.00  0.00     0.084 C 
HETATM   11  C   UNL     1     -42.466  57.526 -56.023  1.00  0.00     0.161 C 
HETATM   12  O   UNL     1     -42.169  56.508 -56.646  1.00  0.00    -0.292 OA
ENDROOT
BRANCH   4  13
HETATM   13  C   UNL     1     -41.340  55.006 -51.924  1.00  0.00     0.262 C 
HETATM   14  N   UNL     1     -41.100  53.961 -52.867  1.00  0.00    -0.309 N 
HETATM   15  H   UNL     1     -41.370  54.170 -53.828  1.00  0.00     0.170 HD
HETATM   16  C   UNL     1     -40.571  52.765 -52.681  1.00  0.00     0.108 A 
HETATM   17  N   UNL     1     -40.426  51.919 -53.705  1.00  0.00    -0.346 N 
HETATM   18  C   UNL     1     -40.093  52.283 -51.342  1.00  0.00     0.049 A 
HETATM   19  C   UNL     1     -39.859  50.653 -53.569  1.00  0.00     0.007 A 
HETATM   20  H   UNL     1     -40.735  52.198 -54.628  1.00  0.00     0.167 HD
HETATM   21  C   UNL     1     -39.750  49.822 -54.812  1.00  0.00     0.068 C 
HETATM   22  C   UNL     1     -39.430  50.223 -52.372  1.00  0.00     0.025 A 
HETATM   23  C   UNL     1     -39.551  51.064 -51.211  1.00  0.00     0.006 A 
HETATM   24  O   UNL     1     -41.131  54.842 -50.737  1.00  0.00    -0.267 OA
ENDBRANCH   4  13
BRANCH   1  25
HETATM   25  C   UNL     1     -43.203  59.673 -51.588  1.00  0.00     0.042 A 
HETATM   26  C   UNL     1     -44.531  59.725 -51.146  1.00  0.00     0.030 A 
HETATM   27  C   UNL     1     -44.951  60.741 -50.281  1.00  0.00     0.009 A 
HETATM   28  C   UNL     1     -44.057  61.730 -49.857  1.00  0.00    -0.062 A 
HETATM   29  C   UNL     1     -44.481  62.800 -48.893  1.00  0.00     0.048 C 
HETATM   30  C   UNL     1     -42.745  61.709 -50.339  1.00  0.00     0.009 A 
HETATM   31  C   UNL     1     -42.323  60.692 -51.198  1.00  0.00     0.030 A 
ENDBRANCH   1  25
TORSDOF 2
ENDMDL
MODEL 8
REMARK VINA RESULT:      -8.2      2.635      6.698
REMARK  2 active torsions:
REMARK  status: ('A' for Active; 'I' for Inactive)
REMARK    1  A    between atoms: C_5  and  N_6 
REMARK    2  A    between atoms: C_9  and  C_10 
REMARK       I    between atoms: C_10  and  N_11 
ROOT
HETATM    1  N   UNL     1     -42.410  56.894 -55.075  1.00  0.00    -0.281 N 
HETATM    2  C   UNL     1     -42.462  57.869 -54.054  1.00  0.00     0.268 A 
HETATM    3  O   UNL     1     -42.082  57.727 -52.886  1.00  0.00    -0.267 OA
HETATM    4  C   UNL     1     -42.968  59.214 -54.424  1.00  0.00     0.101 A 
HETATM    5  C   UNL     1     -43.354  59.444 -55.686  1.00  0.00     0.040 A 
HETATM    6  C   UNL     1     -43.314  58.411 -56.694  1.00  0.00     0.034 A 
HETATM    7  C   UNL     1     -42.864  57.176 -56.390  1.00  0.00     0.034 A 
HETATM    8  C   UNL     1     -42.939  56.052 -57.414  1.00  0.00     0.059 C 
HETATM    9  C   UNL     1     -43.955  56.312 -58.521  1.00  0.00     0.014 C 
HETATM   10  C   UNL     1     -43.730  57.675 -59.143  1.00  0.00     0.084 C 
HETATM   11  C   UNL     1     -43.779  58.746 -58.084  1.00  0.00     0.161 C 
HETATM   12  O   UNL     1     -44.125  59.895 -58.353  1.00  0.00    -0.292 OA
ENDROOT
BRANCH   4  13
HETATM   13  C   UNL     1     -43.038  60.347 -53.469  1.00  0.00     0.262 C 
HETATM   14  N   UNL     1     -43.762  60.074 -52.268  1.00  0.00    -0.309 N 
HETATM   15  H   UNL     1     -44.220  59.164 -52.234  1.00  0.00     0.170 HD
HETATM   16  C   UNL     1     -43.919  60.822 -51.192  1.00  0.00     0.108 A 
HETATM   17  N   UNL     1     -44.640  60.382 -50.157  1.00  0.00    -0.346 N 
HETATM   18  C   UNL     1     -43.302  62.184 -51.047  1.00  0.00     0.049 A 
HETATM   19  C   UNL     1     -44.824  61.122 -48.990  1.00  0.00     0.007 A 
HETATM   20  H   UNL     1     -45.077  59.470 -50.208  1.00  0.00     0.167 HD
HETATM   21  C   UNL     1     -45.648  60.490 -47.909  1.00  0.00     0.068 C 
HETATM   22  C   UNL     1     -44.271  62.339 -48.860  1.00  0.00     0.025 A 
HETATM   23  C   UNL     1     -43.482  62.896 -49.926  1.00  0.00     0.006 A 
HETATM   24  O   UNL     1     -42.517  61.431 -53.656  1.00  0.00    -0.267 OA
ENDBRANCH   4  13
BRANCH   1  25
HETATM   25  C   UNL     1     -41.863  55.612 -54.719  1.00  0.00     0.042 A 
HETATM   26  C   UNL     1     -40.564  55.262 -55.105  1.00  0.00     0.030 A 
HETATM   27  C   UNL     1     -39.995  54.059 -54.672  1.00  0.00     0.009 A 
HETATM   28  C   UNL     1     -40.719  53.180 -53.861  1.00  0.00    -0.062 A 
HETATM   29  C   UNL     1     -40.107  51.908 -53.351  1.00  0.00     0.048 C 
HETATM   30  C   UNL     1     -42.035  53.504 -53.517  1.00  0.00     0.009 A 
HETATM   31  C   UNL     1     -42.603  54.707 -53.945  1.00  0.00     0.030 A 
ENDBRANCH   1  25
TORSDOF 2
ENDMDL
MODEL 9
REMARK VINA RESULT:      -8.2      3.672      4.012
REMARK  2 active torsions:
REMARK  status: ('A' for Active; 'I' for Inactive)
REMARK    1  A    between atoms: C_5  and  N_6 
REMARK    2  A    between atoms: C_9  and  C_10 
REMARK       I    between atoms: C_10  and  N_11 
ROOT
HETATM    1  N   UNL     1     -41.790  57.373 -54.056  1.00  0.00    -0.281 N 
HETATM    2  C   UNL     1     -42.139  58.093 -55.220  1.00  0.00     0.268 A 
HETATM    3  O   UNL     1     -42.259  57.629 -56.360  1.00  0.00    -0.267 OA
HETATM    4  C   UNL     1     -42.448  59.537 -55.060  1.00  0.00     0.101 A 
HETATM    5  C   UNL     1     -42.379  60.089 -53.841  1.00  0.00     0.040 A 
HETATM    6  C   UNL     1     -41.988  59.324 -52.680  1.00  0.00     0.034 A 
HETATM    7  C   UNL     1     -41.696  58.012 -52.792  1.00  0.00     0.034 A 
HETATM    8  C   UNL     1     -41.163  57.234 -51.597  1.00  0.00     0.059 C 
HETATM    9  C   UNL     1     -40.559  58.127 -50.518  1.00  0.00     0.014 C 
HETATM   10  C   UNL     1     -41.525  59.229 -50.133  1.00  0.00     0.084 C 
HETATM   11  C   UNL     1     -41.921  60.023 -51.350  1.00  0.00     0.161 C 
HETATM   12  O   UNL     1     -42.253  61.204 -51.262  1.00  0.00    -0.292 OA
ENDROOT
BRANCH   4  13
HETATM   13  C   UNL     1     -42.871  60.407 -56.184  1.00  0.00     0.262 C 
HETATM   14  N   UNL     1     -41.799  60.963 -56.946  1.00  0.00    -0.309 N 
HETATM   15  H   UNL     1     -40.864  60.771 -56.587  1.00  0.00     0.170 HD
HETATM   16  C   UNL     1     -41.838  61.683 -58.052  1.00  0.00     0.108 A 
HETATM   17  N   UNL     1     -40.709  62.114 -58.623  1.00  0.00    -0.346 N 
HETATM   18  C   UNL     1     -43.120  62.050 -58.743  1.00  0.00     0.049 A 
HETATM   19  C   UNL     1     -40.691  62.862 -59.800  1.00  0.00     0.007 A 
HETATM   20  H   UNL     1     -39.819  61.893 -58.194  1.00  0.00     0.167 HD
HETATM   21  C   UNL     1     -39.347  63.262 -60.327  1.00  0.00     0.068 C 
HETATM   22  C   UNL     1     -41.838  63.188 -60.418  1.00  0.00     0.025 A 
HETATM   23  C   UNL     1     -43.102  62.771 -59.872  1.00  0.00     0.006 A 
HETATM   24  O   UNL     1     -44.031  60.635 -56.471  1.00  0.00    -0.267 OA
ENDBRANCH   4  13
BRANCH   1  25
HETATM   25  C   UNL     1     -41.550  55.963 -54.214  1.00  0.00     0.042 A 
HETATM   26  C   UNL     1     -40.326  55.504 -54.717  1.00  0.00     0.030 A 
HETATM   27  C   UNL     1     -40.053  54.133 -54.774  1.00  0.00     0.009 A 
HETATM   28  C   UNL     1     -41.003  53.200 -54.346  1.00  0.00    -0.062 A 
HETATM   29  C   UNL     1     -40.708  51.727 -54.358  1.00  0.00     0.048 C 
HETATM   30  C   UNL     1     -42.245  53.655 -53.893  1.00  0.00     0.009 A 
HETATM   31  C   UNL     1     -42.516  55.024 -53.831  1.00  0.00     0.030 A 
ENDBRANCH   1  25
TORSDOF 2
ENDMDL
MODEL 10
REMARK VINA RESULT:      -8.2      2.134      2.888
REMARK  2 active torsions:
REMARK  status: ('A' for Active; 'I' for Inactive)
REMARK    1  A    between atoms: C_5  and  N_6 
REMARK    2  A    between atoms: C_9  and  C_10 
REMARK       I    between atoms: C_10  and  N_11 
ROOT
HETATM    1  N   UNL     1     -42.174  56.598 -54.753  1.00  0.00    -0.281 N 
HETATM    2  C   UNL     1     -42.926  56.768 -55.937  1.00  0.00     0.268 A 
HETATM    3  O   UNL     1     -43.171  55.897 -56.780  1.00  0.00    -0.267 OA
HETATM    4  C   UNL     1     -43.531  58.103 -56.173  1.00  0.00     0.101 A 
HETATM    5  C   UNL     1     -43.339  59.077 -55.273  1.00  0.00     0.040 A 
HETATM    6  C   UNL     1     -42.538  58.871 -54.089  1.00  0.00     0.034 A 
HETATM    7  C   UNL     1     -41.970  57.672 -53.848  1.00  0.00     0.034 A 
HETATM    8  C   UNL     1     -41.023  57.488 -52.670  1.00  0.00     0.059 C 
HETATM    9  C   UNL     1     -40.435  58.799 -52.159  1.00  0.00     0.014 C 
HETATM   10  C   UNL     1     -41.533  59.809 -51.893  1.00  0.00     0.084 C 
HETATM   11  C   UNL     1     -42.359  60.020 -53.136  1.00  0.00     0.161 C 
HETATM   12  O   UNL     1     -42.938  61.085 -53.345  1.00  0.00    -0.292 OA
ENDROOT
BRANCH   4  13
HETATM   13  C   UNL     1     -44.380  58.414 -57.349  1.00  0.00     0.262 C 
HETATM   14  N   UNL     1     -45.689  58.888 -57.034  1.00  0.00    -0.309 N 
HETATM   15  H   UNL     1     -45.927  58.883 -56.042  1.00  0.00     0.170 HD
HETATM   16  C   UNL     1     -46.636  59.341 -57.835  1.00  0.00     0.108 A 
HETATM   17  N   UNL     1     -47.809  59.747 -57.340  1.00  0.00    -0.346 N 
HETATM   18  C   UNL     1     -46.465  59.445 -59.323  1.00  0.00     0.049 A 
HETATM   19  C   UNL     1     -48.836  60.250 -58.137  1.00  0.00     0.007 A 
HETATM   20  H   UNL     1     -47.972  59.695 -56.342  1.00  0.00     0.167 HD
HETATM   21  C   UNL     1     -50.090  60.678 -57.437  1.00  0.00     0.068 C 
HETATM   22  C   UNL     1     -48.682  60.345 -59.468  1.00  0.00     0.025 A 
HETATM   23  C   UNL     1     -47.454  59.925 -60.089  1.00  0.00     0.006 A 
HETATM   24  O   UNL     1     -44.014  58.300 -58.504  1.00  0.00    -0.267 OA
ENDBRANCH   4  13
BRANCH   1  25
HETATM   25  C   UNL     1     -41.641  55.284 -54.507  1.00  0.00     0.042 A 
HETATM   26  C   UNL     1     -40.430  54.889 -55.088  1.00  0.00     0.030 A 
HETATM   27  C   UNL     1     -39.860  53.652 -54.767  1.00  0.00     0.009 A 
HETATM   28  C   UNL     1     -40.499  52.784 -53.876  1.00  0.00    -0.062 A 
HETATM   29  C   UNL     1     -39.878  51.474 -53.486  1.00  0.00     0.048 C 
HETATM   30  C   UNL     1     -41.734  53.155 -53.335  1.00  0.00     0.009 A 
HETATM   31  C   UNL     1     -42.301  54.393 -53.651  1.00  0.00     0.030 A 
ENDBRANCH   1  25
TORSDOF 2
ENDMDL
