MODEL 1
REMARK VINA RESULT:      -6.9      0.000      0.000
REMARK  5 active torsions:
REMARK  status: ('A' for Active; 'I' for Inactive)
REMARK    1  A    between atoms: C_2  and  N_3 
REMARK    2  A    between atoms: N_3  and  C_5 
REMARK    3  A    between atoms: N_3  and  C_21 
REMARK    4  A    between atoms: C_8  and  N_9 
REMARK       I    between atoms: N_9  and  C_10 
REMARK    5  A    between atoms: C_10  and  C_11 
ROOT
HETATM    1  C   UNL     1     -40.223  53.265 -52.693  1.00  0.00     0.134 A 
HETATM    2  C   UNL     1     -39.871  52.851 -53.977  1.00  0.00     0.039 A 
HETATM    3  C   UNL     1     -40.310  53.574 -55.093  1.00  0.00     0.032 A 
HETATM    4  C   UNL     1     -41.113  54.706 -54.947  1.00  0.00     0.035 A 
HETATM    5  C   UNL     1     -41.474  55.106 -53.655  1.00  0.00     0.032 A 
HETATM    6  C   UNL     1     -41.031  54.394 -52.533  1.00  0.00     0.039 A 
ENDROOT
BRANCH   4   7
HETATM    7  N   UNL     1     -41.584  55.489 -56.025  1.00  0.00    -0.323 N 
HETATM    8  C   UNL     1     -42.734  55.272 -56.769  1.00  0.00     0.257 C 
HETATM    9  O   UNL     1     -43.554  54.382 -56.573  1.00  0.00    -0.267 OA
HETATM   10  H   UNL     1     -41.038  56.311 -56.243  1.00  0.00     0.169 HD
BRANCH   8  11
HETATM   11  C   UNL     1     -42.990  56.224 -57.883  1.00  0.00     0.050 A 
HETATM   12  C   UNL     1     -43.157  57.571 -57.574  1.00  0.00     0.135 A 
HETATM   13  N   UNL     1     -43.393  58.540 -58.493  1.00  0.00    -0.248 NA
HETATM   14  C   UNL     1     -43.486  58.142 -59.776  1.00  0.00     0.125 A 
HETATM   15 CL   UNL     1     -43.792  59.397 -60.901  1.00  0.00    -0.063 Cl
HETATM   16  C   UNL     1     -43.356  56.828 -60.191  1.00  0.00     0.045 A 
HETATM   17  C   UNL     1     -43.108  55.849 -59.225  1.00  0.00     0.022 A 
ENDBRANCH   8  11
ENDBRANCH   4   7
BRANCH   1  18
HETATM   18  N   UNL     1     -39.763  52.551 -51.480  1.00  0.00    -0.042 N 
HETATM   19  H   UNL     1     -38.828  52.933 -51.287  1.00  0.00     0.286 HD
BRANCH  18  20
HETATM   20  C   UNL     1     -39.522  51.071 -51.678  1.00  0.00     0.237 C 
HETATM   21  C   UNL     1     -39.963  50.277 -50.460  1.00  0.00     0.035 C 
ENDBRANCH  18  20
BRANCH  18  22
HETATM   22  C   UNL     1     -40.578  52.917 -50.261  1.00  0.00     0.237 C 
HETATM   23  C   UNL     1     -39.910  53.929 -49.351  1.00  0.00     0.035 C 
ENDBRANCH  18  22
ENDBRANCH   1  18
TORSDOF 5
ENDMDL
MODEL 2
REMARK VINA RESULT:      -6.8      1.491      1.786
REMARK  5 active torsions:
REMARK  status: ('A' for Active; 'I' for Inactive)
REMARK    1  A    between atoms: C_2  and  N_3 
REMARK    2  A    between atoms: N_3  and  C_5 
REMARK    3  A    between atoms: N_3  and  C_21 
REMARK    4  A    between atoms: C_8  and  N_9 
REMARK       I    between atoms: N_9  and  C_10 
REMARK    5  A    between atoms: C_10  and  C_11 
ROOT
HETATM    1  C   UNL     1     -40.734  53.291 -52.817  1.00  0.00     0.134 A 
HETATM    2  C   UNL     1     -41.987  53.831 -52.531  1.00  0.00     0.039 A 
HETATM    3  C   UNL     1     -42.760  54.391 -53.555  1.00  0.00     0.032 A 
HETATM    4  C   UNL     1     -42.293  54.432 -54.870  1.00  0.00     0.035 A 
HETATM    5  C   UNL     1     -41.026  53.901 -55.145  1.00  0.00     0.032 A 
HETATM    6  C   UNL     1     -40.251  53.331 -54.127  1.00  0.00     0.039 A 
ENDROOT
BRANCH   4   7
HETATM    7  N   UNL     1     -43.020  54.971 -55.954  1.00  0.00    -0.323 N 
HETATM    8  C   UNL     1     -42.872  56.234 -56.509  1.00  0.00     0.257 C 
HETATM    9  O   UNL     1     -42.043  57.071 -56.168  1.00  0.00    -0.267 OA
HETATM   10  H   UNL     1     -43.689  54.350 -56.387  1.00  0.00     0.169 HD
BRANCH   8  11
HETATM   11  C   UNL     1     -43.791  56.577 -57.626  1.00  0.00     0.050 A 
HETATM   12  C   UNL     1     -44.646  57.665 -57.466  1.00  0.00     0.135 A 
HETATM   13  N   UNL     1     -45.530  58.084 -58.406  1.00  0.00    -0.248 NA
HETATM   14  C   UNL     1     -45.575  57.373 -59.549  1.00  0.00     0.125 A 
HETATM   15 CL   UNL     1     -46.709  57.932 -60.704  1.00  0.00    -0.063 Cl
HETATM   16  C   UNL     1     -44.785  56.265 -59.804  1.00  0.00     0.045 A 
HETATM   17  C   UNL     1     -43.879  55.856 -58.821  1.00  0.00     0.022 A 
ENDBRANCH   8  11
ENDBRANCH   4   7
BRANCH   1  18
HETATM   18  N   UNL     1     -39.889  52.664 -51.774  1.00  0.00    -0.042 N 
HETATM   19  H   UNL     1     -38.996  53.171 -51.816  1.00  0.00     0.286 HD
BRANCH  18  20
HETATM   20  C   UNL     1     -39.510  51.227 -52.056  1.00  0.00     0.237 C 
HETATM   21  C   UNL     1     -39.808  50.337 -50.860  1.00  0.00     0.035 C 
ENDBRANCH  18  20
BRANCH  18  22
HETATM   22  C   UNL     1     -40.410  52.934 -50.381  1.00  0.00     0.237 C 
HETATM   23  C   UNL     1     -39.697  54.064 -49.663  1.00  0.00     0.035 C 
ENDBRANCH  18  22
ENDBRANCH   1  18
TORSDOF 5
ENDMDL
MODEL 3
REMARK VINA RESULT:      -6.7      3.583      8.464
REMARK  5 active torsions:
REMARK  status: ('A' for Active; 'I' for Inactive)
REMARK    1  A    between atoms: C_2  and  N_3 
REMARK    2  A    between atoms: N_3  and  C_5 
REMARK    3  A    between atoms: N_3  and  C_21 
REMARK    4  A    between atoms: C_8  and  N_9 
REMARK       I    between atoms: N_9  and  C_10 
REMARK    5  A    between atoms: C_10  and  C_11 
ROOT
HETATM    1  C   UNL     1     -43.874  57.293 -57.347  1.00  0.00     0.134 A 
HETATM    2  C   UNL     1     -43.438  56.124 -57.968  1.00  0.00     0.039 A 
HETATM    3  C   UNL     1     -42.844  55.106 -57.212  1.00  0.00     0.032 A 
HETATM    4  C   UNL     1     -42.665  55.244 -55.834  1.00  0.00     0.035 A 
HETATM    5  C   UNL     1     -43.091  56.429 -55.221  1.00  0.00     0.032 A 
HETATM    6  C   UNL     1     -43.695  57.447 -55.970  1.00  0.00     0.039 A 
ENDROOT
BRANCH   4   7
HETATM    7  N   UNL     1     -42.083  54.258 -55.008  1.00  0.00    -0.323 N 
HETATM    8  C   UNL     1     -40.743  54.142 -54.667  1.00  0.00     0.257 C 
HETATM    9  O   UNL     1     -39.853  54.917 -55.000  1.00  0.00    -0.267 OA
HETATM   10  H   UNL     1     -42.725  53.595 -54.596  1.00  0.00     0.169 HD
BRANCH   8  11
HETATM   11  C   UNL     1     -40.377  52.986 -53.807  1.00  0.00     0.050 A 
HETATM   12  C   UNL     1     -40.300  53.185 -52.431  1.00  0.00     0.135 A 
HETATM   13  N   UNL     1     -39.979  52.217 -51.538  1.00  0.00    -0.248 NA
HETATM   14  C   UNL     1     -39.704  51.000 -52.043  1.00  0.00     0.125 A 
HETATM   15 CL   UNL     1     -39.297  49.810 -50.881  1.00  0.00    -0.063 Cl
HETATM   16  C   UNL     1     -39.731  50.697 -53.394  1.00  0.00     0.045 A 
HETATM   17  C   UNL     1     -40.069  51.711 -54.294  1.00  0.00     0.022 A 
ENDBRANCH   8  11
ENDBRANCH   4   7
BRANCH   1  18
HETATM   18  N   UNL     1     -44.532  58.387 -58.098  1.00  0.00    -0.042 N 
HETATM   19  H   UNL     1     -45.305  58.695 -57.494  1.00  0.00     0.286 HD
BRANCH  18  20
HETATM   20  C   UNL     1     -45.215  57.948 -59.374  1.00  0.00     0.237 C 
HETATM   21  C   UNL     1     -46.653  57.532 -59.112  1.00  0.00     0.035 C 
ENDBRANCH  18  20
BRANCH  18  22
HETATM   22  C   UNL     1     -43.645  59.605 -58.225  1.00  0.00     0.237 C 
HETATM   23  C   UNL     1     -42.415  59.387 -59.085  1.00  0.00     0.035 C 
ENDBRANCH  18  22
ENDBRANCH   1  18
TORSDOF 5
ENDMDL
MODEL 4
REMARK VINA RESULT:      -6.7      0.615      1.570
REMARK  5 active torsions:
REMARK  status: ('A' for Active; 'I' for Inactive)
REMARK    1  A    between atoms: C_2  and  N_3 
REMARK    2  A    between atoms: N_3  and  C_5 
REMARK    3  A    between atoms: N_3  and  C_21 
REMARK    4  A    between atoms: C_8  and  N_9 
REMARK       I    between atoms: N_9  and  C_10 
REMARK    5  A    between atoms: C_10  and  C_11 
ROOT
HETATM    1  C   UNL     1     -40.894  53.239 -52.681  1.00  0.00     0.134 A 
HETATM    2  C   UNL     1     -40.124  53.083 -53.832  1.00  0.00     0.039 A 
HETATM    3  C   UNL     1     -40.382  53.870 -54.962  1.00  0.00     0.032 A 
HETATM    4  C   UNL     1     -41.414  54.810 -54.963  1.00  0.00     0.035 A 
HETATM    5  C   UNL     1     -42.192  54.949 -53.807  1.00  0.00     0.032 A 
HETATM    6  C   UNL     1     -41.934  54.172 -52.670  1.00  0.00     0.039 A 
ENDROOT
BRANCH   4   7
HETATM    7  N   UNL     1     -41.726  55.644 -56.060  1.00  0.00    -0.323 N 
HETATM    8  C   UNL     1     -42.729  55.445 -56.997  1.00  0.00     0.257 C 
HETATM    9  O   UNL     1     -43.540  54.526 -56.990  1.00  0.00    -0.267 OA
HETATM   10  H   UNL     1     -41.179  56.490 -56.137  1.00  0.00     0.169 HD
BRANCH   8  11
HETATM   11  C   UNL     1     -42.828  56.456 -58.084  1.00  0.00     0.050 A 
HETATM   12  C   UNL     1     -42.453  57.766 -57.802  1.00  0.00     0.135 A 
HETATM   13  N   UNL     1     -42.493  58.781 -58.701  1.00  0.00    -0.248 NA
HETATM   14  C   UNL     1     -42.947  58.476 -59.932  1.00  0.00     0.125 A 
HETATM   15 CL   UNL     1     -42.988  59.787 -61.033  1.00  0.00    -0.063 Cl
HETATM   16  C   UNL     1     -43.363  57.211 -60.313  1.00  0.00     0.045 A 
HETATM   17  C   UNL     1     -43.308  56.182 -59.369  1.00  0.00     0.022 A 
ENDBRANCH   8  11
ENDBRANCH   4   7
BRANCH   1  18
HETATM   18  N   UNL     1     -40.644  52.450 -51.453  1.00  0.00    -0.042 N 
HETATM   19  H   UNL     1     -41.428  51.788 -51.399  1.00  0.00     0.286 HD
BRANCH  18  20
HETATM   20  C   UNL     1     -40.743  53.243 -50.168  1.00  0.00     0.237 C 
HETATM   21  C   UNL     1     -39.496  54.083 -49.946  1.00  0.00     0.035 C 
ENDBRANCH  18  20
BRANCH  18  22
HETATM   22  C   UNL     1     -39.419  51.573 -51.579  1.00  0.00     0.237 C 
HETATM   23  C   UNL     1     -39.592  50.182 -50.999  1.00  0.00     0.035 C 
ENDBRANCH  18  22
ENDBRANCH   1  18
TORSDOF 5
ENDMDL
MODEL 5
REMARK VINA RESULT:      -6.6      1.405      2.357
REMARK  5 active torsions:
REMARK  status: ('A' for Active; 'I' for Inactive)
REMARK    1  A    between atoms: C_2  and  N_3 
REMARK    2  A    between atoms: N_3  and  C_5 
REMARK    3  A    between atoms: N_3  and  C_21 
REMARK    4  A    between atoms: C_8  and  N_9 
REMARK       I    between atoms: N_9  and  C_10 
REMARK    5  A    between atoms: C_10  and  C_11 
ROOT
HETATM    1  C   UNL     1     -40.947  53.201 -53.726  1.00  0.00     0.134 A 
HETATM    2  C   UNL     1     -42.207  53.784 -53.610  1.00  0.00     0.039 A 
HETATM    3  C   UNL     1     -42.629  54.738 -54.544  1.00  0.00     0.032 A 
HETATM    4  C   UNL     1     -41.800  55.131 -55.596  1.00  0.00     0.035 A 
HETATM    5  C   UNL     1     -40.529  54.551 -55.696  1.00  0.00     0.032 A 
HETATM    6  C   UNL     1     -40.104  53.589 -54.770  1.00  0.00     0.039 A 
ENDROOT
BRANCH   4   7
HETATM    7  N   UNL     1     -42.160  56.078 -56.580  1.00  0.00    -0.323 N 
HETATM    8  C   UNL     1     -42.975  55.864 -57.681  1.00  0.00     0.257 C 
HETATM    9  O   UNL     1     -43.553  54.816 -57.949  1.00  0.00    -0.267 OA
HETATM   10  H   UNL     1     -41.813  57.016 -56.434  1.00  0.00     0.169 HD
BRANCH   8  11
HETATM   11  C   UNL     1     -43.171  57.022 -58.594  1.00  0.00     0.050 A 
HETATM   12  C   UNL     1     -44.321  57.055 -59.379  1.00  0.00     0.135 A 
HETATM   13  N   UNL     1     -44.621  58.051 -60.249  1.00  0.00    -0.248 NA
HETATM   14  C   UNL     1     -43.722  59.049 -60.353  1.00  0.00     0.125 A 
HETATM   15 CL   UNL     1     -44.137  60.282 -61.467  1.00  0.00    -0.063 Cl
HETATM   16  C   UNL     1     -42.539  59.106 -59.636  1.00  0.00     0.045 A 
HETATM   17  C   UNL     1     -42.256  58.069 -58.742  1.00  0.00     0.022 A 
ENDBRANCH   8  11
ENDBRANCH   4   7
BRANCH   1  18
HETATM   18  N   UNL     1     -40.466  52.169 -52.779  1.00  0.00    -0.042 N 
HETATM   19  H   UNL     1     -41.279  51.563 -52.611  1.00  0.00     0.286 HD
BRANCH  18  20
HETATM   20  C   UNL     1     -40.109  52.696 -51.407  1.00  0.00     0.237 C 
HETATM   21  C   UNL     1     -40.285  51.622 -50.345  1.00  0.00     0.035 C 
ENDBRANCH  18  20
BRANCH  18  22
HETATM   22  C   UNL     1     -39.439  51.254 -53.408  1.00  0.00     0.237 C 
HETATM   23  C   UNL     1     -40.032  50.035 -54.088  1.00  0.00     0.035 C 
ENDBRANCH  18  22
ENDBRANCH   1  18
TORSDOF 5
ENDMDL
MODEL 6
REMARK VINA RESULT:      -6.5      5.619      8.177
REMARK  5 active torsions:
REMARK  status: ('A' for Active; 'I' for Inactive)
REMARK    1  A    between atoms: C_2  and  N_3 
REMARK    2  A    between atoms: N_3  and  C_5 
REMARK    3  A    between atoms: N_3  and  C_21 
REMARK    4  A    between atoms: C_8  and  N_9 
REMARK       I    between atoms: N_9  and  C_10 
REMARK    5  A    between atoms: C_10  and  C_11 
ROOT
HETATM    1  C   UNL     1     -43.291  59.494 -50.994  1.00  0.00     0.134 A 
HETATM    2  C   UNL     1     -41.911  59.324 -51.087  1.00  0.00     0.039 A 
HETATM    3  C   UNL     1     -41.381  58.114 -51.552  1.00  0.00     0.032 A 
HETATM    4  C   UNL     1     -42.216  57.057 -51.918  1.00  0.00     0.035 A 
HETATM    5  C   UNL     1     -43.601  57.231 -51.806  1.00  0.00     0.032 A 
HETATM    6  C   UNL     1     -44.138  58.442 -51.351  1.00  0.00     0.039 A 
ENDROOT
BRANCH   4   7
HETATM    7  N   UNL     1     -41.755  55.813 -52.403  1.00  0.00    -0.323 N 
HETATM    8  C   UNL     1     -41.177  54.794 -51.662  1.00  0.00     0.257 C 
HETATM    9  O   UNL     1     -41.018  54.797 -50.446  1.00  0.00    -0.267 OA
HETATM   10  H   UNL     1     -41.900  55.645 -53.389  1.00  0.00     0.169 HD
BRANCH   8  11
HETATM   11  C   UNL     1     -40.738  53.592 -52.420  1.00  0.00     0.050 A 
HETATM   12  C   UNL     1     -40.021  52.609 -51.741  1.00  0.00     0.135 A 
HETATM   13  N   UNL     1     -39.565  51.467 -52.312  1.00  0.00    -0.248 NA
HETATM   14  C   UNL     1     -39.820  51.308 -53.625  1.00  0.00     0.125 A 
HETATM   15 CL   UNL     1     -39.220  49.856 -54.307  1.00  0.00    -0.063 Cl
HETATM   16  C   UNL     1     -40.505  52.229 -54.399  1.00  0.00     0.045 A 
HETATM   17  C   UNL     1     -40.969  53.396 -53.785  1.00  0.00     0.022 A 
ENDBRANCH   8  11
ENDBRANCH   4   7
BRANCH   1  18
HETATM   18  N   UNL     1     -43.900  60.763 -50.534  1.00  0.00    -0.042 N 
HETATM   19  H   UNL     1     -43.343  61.043 -49.717  1.00  0.00     0.286 HD
BRANCH  18  20
HETATM   20  C   UNL     1     -45.306  60.623 -49.992  1.00  0.00     0.237 C 
HETATM   21  C   UNL     1     -45.387  61.100 -48.551  1.00  0.00     0.035 C 
ENDBRANCH  18  20
BRANCH  18  22
HETATM   22  C   UNL     1     -43.700  61.884 -51.528  1.00  0.00     0.237 C 
HETATM   23  C   UNL     1     -43.124  63.151 -50.924  1.00  0.00     0.035 C 
ENDBRANCH  18  22
ENDBRANCH   1  18
TORSDOF 5
ENDMDL
MODEL 7
REMARK VINA RESULT:      -6.4      4.486      5.681
REMARK  5 active torsions:
REMARK  status: ('A' for Active; 'I' for Inactive)
REMARK    1  A    between atoms: C_2  and  N_3 
REMARK    2  A    between atoms: N_3  and  C_5 
REMARK    3  A    between atoms: N_3  and  C_21 
REMARK    4  A    between atoms: C_8  and  N_9 
REMARK       I    between atoms: N_9  and  C_10 
REMARK    5  A    between atoms: C_10  and  C_11 
ROOT
HETATM    1  C   UNL     1     -40.591  53.044 -52.470  1.00  0.00     0.134 A 
HETATM    2  C   UNL     1     -41.122  53.718 -53.568  1.00  0.00     0.039 A 
HETATM    3  C   UNL     1     -41.568  55.039 -53.436  1.00  0.00     0.032 A 
HETATM    4  C   UNL     1     -41.502  55.700 -52.208  1.00  0.00     0.035 A 
HETATM    5  C   UNL     1     -40.982  55.011 -51.105  1.00  0.00     0.032 A 
HETATM    6  C   UNL     1     -40.525  53.692 -51.233  1.00  0.00     0.039 A 
ENDROOT
BRANCH   4   7
HETATM    7  N   UNL     1     -41.923  57.032 -52.001  1.00  0.00    -0.323 N 
HETATM    8  C   UNL     1     -41.309  58.181 -52.476  1.00  0.00     0.257 C 
HETATM    9  O   UNL     1     -40.318  58.215 -53.197  1.00  0.00    -0.267 OA
HETATM   10  H   UNL     1     -42.784  57.146 -51.484  1.00  0.00     0.169 HD
BRANCH   8  11
HETATM   11  C   UNL     1     -41.932  59.474 -52.085  1.00  0.00     0.050 A 
HETATM   12  C   UNL     1     -42.340  60.342 -53.094  1.00  0.00     0.135 A 
HETATM   13  N   UNL     1     -42.922  61.547 -52.875  1.00  0.00    -0.248 NA
HETATM   14  C   UNL     1     -43.086  61.910 -51.588  1.00  0.00     0.125 A 
HETATM   15 CL   UNL     1     -43.818  63.441 -51.356  1.00  0.00    -0.063 Cl
HETATM   16  C   UNL     1     -42.700  61.133 -50.508  1.00  0.00     0.045 A 
HETATM   17  C   UNL     1     -42.107  59.893 -50.762  1.00  0.00     0.022 A 
ENDBRANCH   8  11
ENDBRANCH   4   7
BRANCH   1  18
HETATM   18  N   UNL     1     -40.083  51.657 -52.565  1.00  0.00    -0.042 N 
HETATM   19  H   UNL     1     -40.920  51.063 -52.512  1.00  0.00     0.286 HD
BRANCH  18  20
HETATM   20  C   UNL     1     -39.242  51.216 -51.387  1.00  0.00     0.237 C 
HETATM   21  C   UNL     1     -39.786  49.935 -50.776  1.00  0.00     0.035 C 
ENDBRANCH  18  20
BRANCH  18  22
HETATM   22  C   UNL     1     -39.496  51.358 -53.926  1.00  0.00     0.237 C 
HETATM   23  C   UNL     1     -39.897  50.008 -54.489  1.00  0.00     0.035 C 
ENDBRANCH  18  22
ENDBRANCH   1  18
TORSDOF 5
ENDMDL
MODEL 8
REMARK VINA RESULT:      -6.3      2.885      3.452
REMARK  5 active torsions:
REMARK  status: ('A' for Active; 'I' for Inactive)
REMARK    1  A    between atoms: C_2  and  N_3 
REMARK    2  A    between atoms: N_3  and  C_5 
REMARK    3  A    between atoms: N_3  and  C_21 
REMARK    4  A    between atoms: C_8  and  N_9 
REMARK       I    between atoms: N_9  and  C_10 
REMARK    5  A    between atoms: C_10  and  C_11 
ROOT
HETATM    1  C   UNL     1     -40.163  52.750 -53.225  1.00  0.00     0.134 A 
HETATM    2  C   UNL     1     -40.641  53.595 -52.225  1.00  0.00     0.039 A 
HETATM    3  C   UNL     1     -41.109  54.874 -52.550  1.00  0.00     0.032 A 
HETATM    4  C   UNL     1     -41.095  55.331 -53.869  1.00  0.00     0.035 A 
HETATM    5  C   UNL     1     -40.599  54.481 -54.865  1.00  0.00     0.032 A 
HETATM    6  C   UNL     1     -40.139  53.197 -54.548  1.00  0.00     0.039 A 
ENDROOT
BRANCH   4   7
HETATM    7  N   UNL     1     -41.559  56.603 -54.272  1.00  0.00    -0.323 N 
HETATM    8  C   UNL     1     -42.862  56.949 -54.596  1.00  0.00     0.257 C 
HETATM    9  O   UNL     1     -43.835  56.204 -54.536  1.00  0.00    -0.267 OA
HETATM   10  H   UNL     1     -40.866  57.339 -54.286  1.00  0.00     0.169 HD
BRANCH   8  11
HETATM   11  C   UNL     1     -43.085  58.354 -55.030  1.00  0.00     0.050 A 
HETATM   12  C   UNL     1     -41.981  59.106 -55.422  1.00  0.00     0.135 A 
HETATM   13  N   UNL     1     -42.046  60.395 -55.840  1.00  0.00    -0.248 NA
HETATM   14  C   UNL     1     -43.267  60.963 -55.848  1.00  0.00     0.125 A 
HETATM   15 CL   UNL     1     -43.302  62.592 -56.376  1.00  0.00    -0.063 Cl
HETATM   16  C   UNL     1     -44.427  60.314 -55.461  1.00  0.00     0.045 A 
HETATM   17  C   UNL     1     -44.333  58.985 -55.038  1.00  0.00     0.022 A 
ENDBRANCH   8  11
ENDBRANCH   4   7
BRANCH   1  18
HETATM   18  N   UNL     1     -39.683  51.379 -52.936  1.00  0.00    -0.042 N 
HETATM   19  H   UNL     1     -38.726  51.349 -53.309  1.00  0.00     0.286 HD
BRANCH  18  20
HETATM   20  C   UNL     1     -40.408  50.289 -53.693  1.00  0.00     0.237 C 
HETATM   21  C   UNL     1     -39.508  49.659 -54.743  1.00  0.00     0.035 C 
ENDBRANCH  18  20
BRANCH  18  22
HETATM   22  C   UNL     1     -39.516  51.135 -51.453  1.00  0.00     0.237 C 
HETATM   23  C   UNL     1     -39.706  49.688 -51.039  1.00  0.00     0.035 C 
ENDBRANCH  18  22
ENDBRANCH   1  18
TORSDOF 5
ENDMDL
MODEL 9
REMARK VINA RESULT:      -6.1      1.580      2.471
REMARK  5 active torsions:
REMARK  status: ('A' for Active; 'I' for Inactive)
REMARK    1  A    between atoms: C_2  and  N_3 
REMARK    2  A    between atoms: N_3  and  C_5 
REMARK    3  A    between atoms: N_3  and  C_21 
REMARK    4  A    between atoms: C_8  and  N_9 
REMARK       I    between atoms: N_9  and  C_10 
REMARK    5  A    between atoms: C_10  and  C_11 
ROOT
HETATM    1  C   UNL     1     -40.484  52.769 -53.565  1.00  0.00     0.134 A 
HETATM    2  C   UNL     1     -41.643  53.300 -53.002  1.00  0.00     0.039 A 
HETATM    3  C   UNL     1     -42.262  54.412 -53.585  1.00  0.00     0.032 A 
HETATM    4  C   UNL     1     -41.731  55.015 -54.727  1.00  0.00     0.035 A 
HETATM    5  C   UNL     1     -40.558  54.484 -55.277  1.00  0.00     0.032 A 
HETATM    6  C   UNL     1     -39.938  53.366 -54.704  1.00  0.00     0.039 A 
ENDROOT
BRANCH   4   7
HETATM    7  N   UNL     1     -42.305  56.131 -55.374  1.00  0.00    -0.323 N 
HETATM    8  C   UNL     1     -42.967  56.135 -56.593  1.00  0.00     0.257 C 
HETATM    9  O   UNL     1     -43.200  55.149 -57.283  1.00  0.00    -0.267 OA
HETATM   10  H   UNL     1     -42.255  57.005 -54.870  1.00  0.00     0.169 HD
BRANCH   8  11
HETATM   11  C   UNL     1     -43.449  57.456 -57.079  1.00  0.00     0.050 A 
HETATM   12  C   UNL     1     -43.532  57.663 -58.453  1.00  0.00     0.135 A 
HETATM   13  N   UNL     1     -43.955  58.817 -59.026  1.00  0.00    -0.248 NA
HETATM   14  C   UNL     1     -44.294  59.815 -58.188  1.00  0.00     0.125 A 
HETATM   15 CL   UNL     1     -44.816  61.255 -58.954  1.00  0.00    -0.063 Cl
HETATM   16  C   UNL     1     -44.232  59.724 -56.808  1.00  0.00     0.045 A 
HETATM   17  C   UNL     1     -43.796  58.522 -56.242  1.00  0.00     0.022 A 
ENDBRANCH   8  11
ENDBRANCH   4   7
BRANCH   1  18
HETATM   18  N   UNL     1     -39.807  51.579 -53.001  1.00  0.00    -0.042 N 
HETATM   19  H   UNL     1     -38.838  51.640 -53.339  1.00  0.00     0.286 HD
BRANCH  18  20
HETATM   20  C   UNL     1     -40.304  50.258 -53.546  1.00  0.00     0.237 C 
HETATM   21  C   UNL     1     -39.473  49.809 -54.737  1.00  0.00     0.035 C 
ENDBRANCH  18  20
BRANCH  18  22
HETATM   22  C   UNL     1     -39.685  51.653 -51.496  1.00  0.00     0.237 C 
HETATM   23  C   UNL     1     -39.794  50.310 -50.800  1.00  0.00     0.035 C 
ENDBRANCH  18  22
ENDBRANCH   1  18
TORSDOF 5
ENDMDL
MODEL 10
REMARK VINA RESULT:      -6.1     15.228     18.312
REMARK  5 active torsions:
REMARK  status: ('A' for Active; 'I' for Inactive)
REMARK    1  A    between atoms: C_2  and  N_3 
REMARK    2  A    between atoms: N_3  and  C_5 
REMARK    3  A    between atoms: N_3  and  C_21 
REMARK    4  A    between atoms: C_8  and  N_9 
REMARK       I    between atoms: N_9  and  C_10 
REMARK    5  A    between atoms: C_10  and  C_11 
ROOT
HETATM    1  C   UNL     1     -35.896  41.014 -57.272  1.00  0.00     0.134 A 
HETATM    2  C   UNL     1     -35.850  42.082 -56.377  1.00  0.00     0.039 A 
HETATM    3  C   UNL     1     -35.383  41.885 -55.072  1.00  0.00     0.032 A 
HETATM    4  C   UNL     1     -34.967  40.624 -54.639  1.00  0.00     0.035 A 
HETATM    5  C   UNL     1     -35.031  39.554 -55.540  1.00  0.00     0.032 A 
HETATM    6  C   UNL     1     -35.489  39.746 -56.850  1.00  0.00     0.039 A 
ENDROOT
BRANCH   4   7
HETATM    7  N   UNL     1     -34.476  40.353 -53.343  1.00  0.00    -0.323 N 
HETATM    8  C   UNL     1     -33.146  40.277 -52.957  1.00  0.00     0.257 C 
HETATM    9  O   UNL     1     -32.179  40.482 -53.682  1.00  0.00    -0.267 OA
HETATM   10  H   UNL     1     -35.176  40.242 -52.622  1.00  0.00     0.169 HD
BRANCH   8  11
HETATM   11  C   UNL     1     -32.890  39.937 -51.531  1.00  0.00     0.050 A 
HETATM   12  C   UNL     1     -31.603  40.118 -51.032  1.00  0.00     0.135 A 
HETATM   13  N   UNL     1     -31.237  39.849 -49.754  1.00  0.00    -0.248 NA
HETATM   14  C   UNL     1     -32.195  39.361 -48.944  1.00  0.00     0.125 A 
HETATM   15 CL   UNL     1     -31.688  39.029 -47.342  1.00  0.00    -0.063 Cl
HETATM   16  C   UNL     1     -33.501  39.125 -49.342  1.00  0.00     0.045 A 
HETATM   17  C   UNL     1     -33.853  39.414 -50.663  1.00  0.00     0.022 A 
ENDBRANCH   8  11
ENDBRANCH   4   7
BRANCH   1  18
HETATM   18  N   UNL     1     -36.357  41.177 -58.670  1.00  0.00    -0.042 N 
HETATM   19  H   UNL     1     -35.510  41.413 -59.203  1.00  0.00     0.286 HD
BRANCH  18  20
HETATM   20  C   UNL     1     -37.274  42.358 -58.894  1.00  0.00     0.237 C 
HETATM   21  C   UNL     1     -37.336  42.733 -60.365  1.00  0.00     0.035 C 
ENDBRANCH  18  20
BRANCH  18  22
HETATM   22  C   UNL     1     -36.826  39.871 -59.270  1.00  0.00     0.237 C 
HETATM   23  C   UNL     1     -38.276  39.539 -58.973  1.00  0.00     0.035 C 
ENDBRANCH  18  22
ENDBRANCH   1  18
TORSDOF 5
ENDMDL
