MODEL 1
REMARK VINA RESULT:      -9.0      0.000      0.000
REMARK  3 active torsions:
REMARK  status: ('A' for Active; 'I' for Inactive)
REMARK    1  A    between atoms: C_6  and  N_7 
REMARK       I    between atoms: N_7  and  C_8 
REMARK    2  A    between atoms: C_8  and  C_9 
REMARK    3  A    between atoms: C_9  and  C_10 
ROOT
HETATM    1  C   UNL     1     -40.727  54.256 -55.190  1.00  0.00     0.165 C 
ENDROOT
BRANCH   1   2
HETATM    2  C   UNL     1     -42.065  54.666 -55.779  1.00  0.00     0.227 C 
HETATM    3  N   UNL     1     -42.029  55.585 -56.801  1.00  0.00    -0.327 N 
HETATM    4  H   UNL     1     -41.123  56.026 -56.961  1.00  0.00     0.169 HD
HETATM    5  O   UNL     1     -43.081  54.120 -55.350  1.00  0.00    -0.273 OA
BRANCH   3   6
HETATM    6  C   UNL     1     -43.096  56.057 -57.590  1.00  0.00     0.036 A 
HETATM    7  C   UNL     1     -43.497  55.479 -58.795  1.00  0.00     0.053 A 
HETATM    8  C   UNL     1     -44.560  56.025 -59.525  1.00  0.00     0.042 A 
HETATM    9  C   UNL     1     -45.245  57.161 -59.063  1.00  0.00    -0.040 A 
HETATM   10 CL   UNL     1     -44.994  55.262 -61.015  1.00  0.00    -0.084 Cl
HETATM   11  C   UNL     1     -46.380  57.774 -59.832  1.00  0.00     0.050 C 
HETATM   12  C   UNL     1     -44.835  57.738 -57.856  1.00  0.00     0.011 A 
HETATM   13  C   UNL     1     -43.773  57.191 -57.129  1.00  0.00     0.030 A 
ENDBRANCH   3   6
ENDBRANCH   1   2
BRANCH   1  14
HETATM   14  C   UNL     1     -40.586  53.870 -53.730  1.00  0.00     0.074 A 
HETATM   15  N   UNL     1     -40.775  54.768 -52.807  1.00  0.00    -0.175 NA
HETATM   16  N   UNL     1     -40.644  54.401 -51.504  1.00  0.00    -0.243 N 
HETATM   17  C   UNL     1     -40.321  53.148 -51.042  1.00  0.00     0.272 A 
HETATM   18  H   UNL     1     -40.813  55.115 -50.801  1.00  0.00     0.192 HD
HETATM   19  O   UNL     1     -40.219  52.898 -49.847  1.00  0.00    -0.266 OA
HETATM   20  C   UNL     1     -40.100  52.117 -52.067  1.00  0.00     0.046 A 
HETATM   21  C   UNL     1     -40.234  52.458 -53.411  1.00  0.00     0.006 A 
HETATM   22  C   UNL     1     -39.763  50.811 -51.690  1.00  0.00     0.018 A 
HETATM   23  C   UNL     1     -40.034  51.477 -54.390  1.00  0.00     0.014 A 
HETATM   24  C   UNL     1     -39.697  50.172 -54.017  1.00  0.00     0.001 A 
HETATM   25  C   UNL     1     -39.561  49.840 -52.669  1.00  0.00     0.001 A 
ENDBRANCH   1  14
TORSDOF 3
ENDMDL
MODEL 2
REMARK VINA RESULT:      -8.4      2.454      2.876
REMARK  3 active torsions:
REMARK  status: ('A' for Active; 'I' for Inactive)
REMARK    1  A    between atoms: C_6  and  N_7 
REMARK       I    between atoms: N_7  and  C_8 
REMARK    2  A    between atoms: C_8  and  C_9 
REMARK    3  A    between atoms: C_9  and  C_10 
ROOT
HETATM    1  C   UNL     1     -43.188  54.508 -54.500  1.00  0.00     0.165 C 
ENDROOT
BRANCH   1   2
HETATM    2  C   UNL     1     -42.486  55.413 -55.497  1.00  0.00     0.227 C 
HETATM    3  N   UNL     1     -43.203  55.765 -56.616  1.00  0.00    -0.327 N 
HETATM    4  H   UNL     1     -44.078  55.258 -56.752  1.00  0.00     0.169 HD
HETATM    5  O   UNL     1     -41.356  55.815 -55.221  1.00  0.00    -0.273 OA
BRANCH   3   6
HETATM    6  C   UNL     1     -42.841  56.665 -57.638  1.00  0.00     0.036 A 
HETATM    7  C   UNL     1     -42.419  57.976 -57.416  1.00  0.00     0.053 A 
HETATM    8  C   UNL     1     -42.096  58.809 -58.495  1.00  0.00     0.042 A 
HETATM    9  C   UNL     1     -42.188  58.347 -59.817  1.00  0.00    -0.040 A 
HETATM   10 CL   UNL     1     -41.590  60.426 -58.144  1.00  0.00    -0.084 Cl
HETATM   11  C   UNL     1     -41.859  59.223 -60.992  1.00  0.00     0.050 C 
HETATM   12  C   UNL     1     -42.617  57.032 -60.032  1.00  0.00     0.011 A 
HETATM   13  C   UNL     1     -42.940  56.202 -58.954  1.00  0.00     0.030 A 
ENDBRANCH   3   6
ENDBRANCH   1   2
BRANCH   1  14
HETATM   14  C   UNL     1     -42.776  54.463 -53.040  1.00  0.00     0.074 A 
HETATM   15  N   UNL     1     -43.408  55.198 -52.172  1.00  0.00    -0.175 NA
HETATM   16  N   UNL     1     -43.023  55.143 -50.869  1.00  0.00    -0.243 N 
HETATM   17  C   UNL     1     -42.008  54.375 -50.354  1.00  0.00     0.272 A 
HETATM   18  H   UNL     1     -43.542  55.713 -50.207  1.00  0.00     0.192 HD
HETATM   19  O   UNL     1     -41.721  54.384 -49.163  1.00  0.00    -0.266 OA
HETATM   20  C   UNL     1     -41.278  53.537 -51.317  1.00  0.00     0.046 A 
HETATM   21  C   UNL     1     -41.652  53.564 -52.659  1.00  0.00     0.006 A 
HETATM   22  C   UNL     1     -40.225  52.722 -50.884  1.00  0.00     0.018 A 
HETATM   23  C   UNL     1     -40.966  52.760 -53.578  1.00  0.00     0.014 A 
HETATM   24  C   UNL     1     -39.914  51.945 -53.148  1.00  0.00     0.001 A 
HETATM   25  C   UNL     1     -39.543  51.927 -51.804  1.00  0.00     0.001 A 
ENDBRANCH   1  14
TORSDOF 3
ENDMDL
MODEL 3
REMARK VINA RESULT:      -8.3      3.071      8.436
REMARK  3 active torsions:
REMARK  status: ('A' for Active; 'I' for Inactive)
REMARK    1  A    between atoms: C_6  and  N_7 
REMARK       I    between atoms: N_7  and  C_8 
REMARK    2  A    between atoms: C_8  and  C_9 
REMARK    3  A    between atoms: C_9  and  C_10 
ROOT
HETATM    1  C   UNL     1     -42.456  56.674 -55.346  1.00  0.00     0.165 C 
ENDROOT
BRANCH   1   2
HETATM    2  C   UNL     1     -42.285  55.447 -54.468  1.00  0.00     0.227 C 
HETATM    3  N   UNL     1     -41.113  54.744 -54.619  1.00  0.00    -0.327 N 
HETATM    4  H   UNL     1     -40.539  55.017 -55.418  1.00  0.00     0.169 HD
HETATM    5  O   UNL     1     -43.166  55.191 -53.648  1.00  0.00    -0.273 OA
BRANCH   3   6
HETATM    6  C   UNL     1     -40.651  53.644 -53.870  1.00  0.00     0.036 A 
HETATM    7  C   UNL     1     -40.339  52.399 -54.416  1.00  0.00     0.053 A 
HETATM    8  C   UNL     1     -39.902  51.353 -53.593  1.00  0.00     0.042 A 
HETATM    9  C   UNL     1     -39.767  51.532 -52.208  1.00  0.00    -0.040 A 
HETATM   10 CL   UNL     1     -39.544  49.834 -54.339  1.00  0.00    -0.084 Cl
HETATM   11  C   UNL     1     -39.312  50.424 -51.301  1.00  0.00     0.050 C 
HETATM   12  C   UNL     1     -40.086  52.783 -51.665  1.00  0.00     0.011 A 
HETATM   13  C   UNL     1     -40.523  53.826 -52.489  1.00  0.00     0.030 A 
ENDBRANCH   3   6
ENDBRANCH   1   2
BRANCH   1  14
HETATM   14  C   UNL     1     -42.775  56.555 -56.824  1.00  0.00     0.074 A 
HETATM   15  N   UNL     1     -43.264  55.441 -57.288  1.00  0.00    -0.175 NA
HETATM   16  N   UNL     1     -43.543  55.355 -58.615  1.00  0.00    -0.243 N 
HETATM   17  C   UNL     1     -43.357  56.344 -59.550  1.00  0.00     0.272 A 
HETATM   18  H   UNL     1     -43.939  54.482 -58.951  1.00  0.00     0.192 HD
HETATM   19  O   UNL     1     -43.632  56.186 -60.734  1.00  0.00    -0.266 OA
HETATM   20  C   UNL     1     -42.803  57.611 -59.050  1.00  0.00     0.046 A 
HETATM   21  C   UNL     1     -42.513  57.736 -57.693  1.00  0.00     0.006 A 
HETATM   22  C   UNL     1     -42.576  58.676 -59.930  1.00  0.00     0.018 A 
HETATM   23  C   UNL     1     -41.995  58.944 -57.211  1.00  0.00     0.014 A 
HETATM   24  C   UNL     1     -41.767  60.009 -58.088  1.00  0.00     0.001 A 
HETATM   25  C   UNL     1     -42.056  59.875 -59.446  1.00  0.00     0.001 A 
ENDBRANCH   1  14
TORSDOF 3
ENDMDL
MODEL 4
REMARK VINA RESULT:      -8.3      1.491      2.434
REMARK  3 active torsions:
REMARK  status: ('A' for Active; 'I' for Inactive)
REMARK    1  A    between atoms: C_6  and  N_7 
REMARK       I    between atoms: N_7  and  C_8 
REMARK    2  A    between atoms: C_8  and  C_9 
REMARK    3  A    between atoms: C_9  and  C_10 
ROOT
HETATM    1  C   UNL     1     -40.893  55.350 -54.766  1.00  0.00     0.165 C 
ENDROOT
BRANCH   1   2
HETATM    2  C   UNL     1     -42.219  55.521 -55.486  1.00  0.00     0.227 C 
HETATM    3  N   UNL     1     -42.183  56.188 -56.687  1.00  0.00    -0.327 N 
HETATM    4  H   UNL     1     -41.298  56.647 -56.906  1.00  0.00     0.169 HD
HETATM    5  O   UNL     1     -43.222  55.012 -54.986  1.00  0.00    -0.273 OA
BRANCH   3   6
HETATM    6  C   UNL     1     -43.232  56.394 -57.605  1.00  0.00     0.036 A 
HETATM    7  C   UNL     1     -43.491  55.569 -58.699  1.00  0.00     0.053 A 
HETATM    8  C   UNL     1     -44.546  55.859 -59.573  1.00  0.00     0.042 A 
HETATM    9  C   UNL     1     -45.365  56.981 -59.368  1.00  0.00    -0.040 A 
HETATM   10 CL   UNL     1     -44.800  54.797 -60.914  1.00  0.00    -0.084 Cl
HETATM   11  C   UNL     1     -46.496  57.322 -60.296  1.00  0.00     0.050 C 
HETATM   12  C   UNL     1     -45.097  57.808 -58.271  1.00  0.00     0.011 A 
HETATM   13  C   UNL     1     -44.042  57.517 -57.401  1.00  0.00     0.030 A 
ENDBRANCH   3   6
ENDBRANCH   1   2
BRANCH   1  14
HETATM   14  C   UNL     1     -40.525  54.049 -54.077  1.00  0.00     0.074 A 
HETATM   15  N   UNL     1     -40.153  53.027 -54.792  1.00  0.00    -0.175 NA
HETATM   16  N   UNL     1     -39.828  51.871 -54.156  1.00  0.00    -0.243 N 
HETATM   17  C   UNL     1     -39.852  51.656 -52.799  1.00  0.00     0.272 A 
HETATM   18  H   UNL     1     -39.524  51.092 -54.733  1.00  0.00     0.192 HD
HETATM   19  O   UNL     1     -39.544  50.579 -52.302  1.00  0.00    -0.266 OA
HETATM   20  C   UNL     1     -40.271  52.797 -51.971  1.00  0.00     0.046 A 
HETATM   21  C   UNL     1     -40.604  53.999 -52.591  1.00  0.00     0.006 A 
HETATM   22  C   UNL     1     -40.328  52.671 -50.577  1.00  0.00     0.018 A 
HETATM   23  C   UNL     1     -40.994  55.090 -51.805  1.00  0.00     0.014 A 
HETATM   24  C   UNL     1     -41.053  54.967 -50.414  1.00  0.00     0.001 A 
HETATM   25  C   UNL     1     -40.721  53.759 -49.801  1.00  0.00     0.001 A 
ENDBRANCH   1  14
TORSDOF 3
ENDMDL
MODEL 5
REMARK VINA RESULT:      -8.1      4.796      7.864
REMARK  3 active torsions:
REMARK  status: ('A' for Active; 'I' for Inactive)
REMARK    1  A    between atoms: C_6  and  N_7 
REMARK       I    between atoms: N_7  and  C_8 
REMARK    2  A    between atoms: C_8  and  C_9 
REMARK    3  A    between atoms: C_9  and  C_10 
ROOT
HETATM    1  C   UNL     1     -42.367  56.801 -53.969  1.00  0.00     0.165 C 
ENDROOT
BRANCH   1   2
HETATM    2  C   UNL     1     -42.221  55.342 -53.576  1.00  0.00     0.227 C 
HETATM    3  N   UNL     1     -40.938  54.880 -53.399  1.00  0.00    -0.327 N 
HETATM    4  H   UNL     1     -40.199  55.514 -53.705  1.00  0.00     0.169 HD
HETATM    5  O   UNL     1     -43.244  54.685 -53.388  1.00  0.00    -0.273 OA
BRANCH   3   6
HETATM    6  C   UNL     1     -40.519  53.617 -52.938  1.00  0.00     0.036 A 
HETATM    7  C   UNL     1     -40.213  52.539 -53.769  1.00  0.00     0.053 A 
HETATM    8  C   UNL     1     -39.821  51.311 -53.223  1.00  0.00     0.042 A 
HETATM    9  C   UNL     1     -39.726  51.136 -51.834  1.00  0.00    -0.040 A 
HETATM   10 CL   UNL     1     -39.467  50.017 -54.315  1.00  0.00    -0.084 Cl
HETATM   11  C   UNL     1     -39.320  49.825 -51.221  1.00  0.00     0.050 C 
HETATM   12  C   UNL     1     -40.040  52.220 -51.004  1.00  0.00     0.011 A 
HETATM   13  C   UNL     1     -40.432  53.445 -51.552  1.00  0.00     0.030 A 
ENDBRANCH   3   6
ENDBRANCH   1   2
BRANCH   1  14
HETATM   14  C   UNL     1     -42.965  57.824 -53.022  1.00  0.00     0.074 A 
HETATM   15  N   UNL     1     -44.242  58.069 -53.064  1.00  0.00    -0.175 NA
HETATM   16  N   UNL     1     -44.758  58.989 -52.207  1.00  0.00    -0.243 N 
HETATM   17  C   UNL     1     -44.057  59.712 -51.274  1.00  0.00     0.272 A 
HETATM   18  H   UNL     1     -45.761  59.150 -52.247  1.00  0.00     0.192 HD
HETATM   19  O   UNL     1     -44.598  60.528 -50.536  1.00  0.00    -0.266 OA
HETATM   20  C   UNL     1     -42.611  59.454 -51.208  1.00  0.00     0.046 A 
HETATM   21  C   UNL     1     -42.051  58.512 -52.068  1.00  0.00     0.006 A 
HETATM   22  C   UNL     1     -41.813  60.147 -50.290  1.00  0.00     0.018 A 
HETATM   23  C   UNL     1     -40.675  58.256 -52.003  1.00  0.00     0.014 A 
HETATM   24  C   UNL     1     -39.877  58.947 -51.086  1.00  0.00     0.001 A 
HETATM   25  C   UNL     1     -40.444  59.892 -50.231  1.00  0.00     0.001 A 
ENDBRANCH   1  14
TORSDOF 3
ENDMDL
MODEL 6
REMARK VINA RESULT:      -8.1      4.615      8.184
REMARK  3 active torsions:
REMARK  status: ('A' for Active; 'I' for Inactive)
REMARK    1  A    between atoms: C_6  and  N_7 
REMARK       I    between atoms: N_7  and  C_8 
REMARK    2  A    between atoms: C_8  and  C_9 
REMARK    3  A    between atoms: C_9  and  C_10 
ROOT
HETATM    1  C   UNL     1     -41.752  56.649 -50.638  1.00  0.00     0.165 C 
ENDROOT
BRANCH   1   2
HETATM    2  C   UNL     1     -41.593  55.160 -50.888  1.00  0.00     0.227 C 
HETATM    3  N   UNL     1     -40.948  54.799 -52.048  1.00  0.00    -0.327 N 
HETATM    4  H   UNL     1     -40.781  55.558 -52.709  1.00  0.00     0.169 HD
HETATM    5  O   UNL     1     -41.994  54.379 -50.026  1.00  0.00    -0.273 OA
BRANCH   3   6
HETATM    6  C   UNL     1     -40.574  53.510 -52.475  1.00  0.00     0.036 A 
HETATM    7  C   UNL     1     -40.131  52.498 -51.623  1.00  0.00     0.053 A 
HETATM    8  C   UNL     1     -39.762  51.249 -52.138  1.00  0.00     0.042 A 
HETATM    9  C   UNL     1     -39.831  50.986 -53.515  1.00  0.00    -0.040 A 
HETATM   10 CL   UNL     1     -39.211  50.047 -51.022  1.00  0.00    -0.084 Cl
HETATM   11  C   UNL     1     -39.430  49.659 -54.094  1.00  0.00     0.050 C 
HETATM   12  C   UNL     1     -40.273  52.007 -54.365  1.00  0.00     0.011 A 
HETATM   13  C   UNL     1     -40.640  53.253 -53.849  1.00  0.00     0.030 A 
ENDBRANCH   3   6
ENDBRANCH   1   2
BRANCH   1  14
HETATM   14  C   UNL     1     -41.758  57.650 -51.777  1.00  0.00     0.074 A 
HETATM   15  N   UNL     1     -40.673  57.844 -52.468  1.00  0.00    -0.175 NA
HETATM   16  N   UNL     1     -40.699  58.746 -53.485  1.00  0.00    -0.243 N 
HETATM   17  C   UNL     1     -41.779  59.501 -53.872  1.00  0.00     0.272 A 
HETATM   18  H   UNL     1     -39.845  58.867 -54.021  1.00  0.00     0.192 HD
HETATM   19  O   UNL     1     -41.721  60.297 -54.802  1.00  0.00    -0.266 OA
HETATM   20  C   UNL     1     -43.017  59.301 -53.104  1.00  0.00     0.046 A 
HETATM   21  C   UNL     1     -43.026  58.378 -52.061  1.00  0.00     0.006 A 
HETATM   22  C   UNL     1     -44.170  60.029 -53.426  1.00  0.00     0.018 A 
HETATM   23  C   UNL     1     -44.206  58.178 -51.333  1.00  0.00     0.014 A 
HETATM   24  C   UNL     1     -45.358  58.904 -51.651  1.00  0.00     0.001 A 
HETATM   25  C   UNL     1     -45.340  59.828 -52.696  1.00  0.00     0.001 A 
ENDBRANCH   1  14
TORSDOF 3
ENDMDL
MODEL 7
REMARK VINA RESULT:      -8.1     13.711     14.952
REMARK  3 active torsions:
REMARK  status: ('A' for Active; 'I' for Inactive)
REMARK    1  A    between atoms: C_6  and  N_7 
REMARK       I    between atoms: N_7  and  C_8 
REMARK    2  A    between atoms: C_8  and  C_9 
REMARK    3  A    between atoms: C_9  and  C_10 
ROOT
HETATM    1  C   UNL     1     -35.821  42.459 -53.539  1.00  0.00     0.165 C 
ENDROOT
BRANCH   1   2
HETATM    2  C   UNL     1     -35.687  42.077 -55.002  1.00  0.00     0.227 C 
HETATM    3  N   UNL     1     -36.804  41.544 -55.601  1.00  0.00    -0.327 N 
HETATM    4  H   UNL     1     -37.568  41.304 -54.968  1.00  0.00     0.169 HD
HETATM    5  O   UNL     1     -34.622  42.314 -55.570  1.00  0.00    -0.273 OA
BRANCH   3   6
HETATM    6  C   UNL     1     -36.992  41.204 -56.956  1.00  0.00     0.036 A 
HETATM    7  C   UNL     1     -37.071  42.132 -57.994  1.00  0.00     0.053 A 
HETATM    8  C   UNL     1     -37.277  41.706 -59.312  1.00  0.00     0.042 A 
HETATM    9  C   UNL     1     -37.407  40.343 -59.618  1.00  0.00    -0.040 A 
HETATM   10 CL   UNL     1     -37.376  42.915 -60.546  1.00  0.00    -0.084 Cl
HETATM   11  C   UNL     1     -37.641  39.860 -61.022  1.00  0.00     0.050 C 
HETATM   12  C   UNL     1     -37.331  39.417 -58.571  1.00  0.00     0.011 A 
HETATM   13  C   UNL     1     -37.126  39.844 -57.256  1.00  0.00     0.030 A 
ENDBRANCH   3   6
ENDBRANCH   1   2
BRANCH   1  14
HETATM   14  C   UNL     1     -36.299  41.464 -52.498  1.00  0.00     0.074 A 
HETATM   15  N   UNL     1     -37.563  41.164 -52.429  1.00  0.00    -0.175 NA
HETATM   16  N   UNL     1     -37.971  40.270 -51.489  1.00  0.00    -0.243 N 
HETATM   17  C   UNL     1     -37.169  39.632 -50.575  1.00  0.00     0.272 A 
HETATM   18  H   UNL     1     -38.960  40.039 -51.466  1.00  0.00     0.192 HD
HETATM   19  O   UNL     1     -37.616  38.838 -49.755  1.00  0.00    -0.266 OA
HETATM   20  C   UNL     1     -35.736  39.956 -50.632  1.00  0.00     0.046 A 
HETATM   21  C   UNL     1     -35.284  40.863 -51.589  1.00  0.00     0.006 A 
HETATM   22  C   UNL     1     -34.843  39.356 -49.737  1.00  0.00     0.018 A 
HETATM   23  C   UNL     1     -33.919  41.167 -51.653  1.00  0.00     0.014 A 
HETATM   24  C   UNL     1     -33.024  40.570 -50.760  1.00  0.00     0.001 A 
HETATM   25  C   UNL     1     -33.486  39.666 -49.802  1.00  0.00     0.001 A 
ENDBRANCH   1  14
TORSDOF 3
ENDMDL
MODEL 8
REMARK VINA RESULT:      -8.0      2.893      8.234
REMARK  3 active torsions:
REMARK  status: ('A' for Active; 'I' for Inactive)
REMARK    1  A    between atoms: C_6  and  N_7 
REMARK       I    between atoms: N_7  and  C_8 
REMARK    2  A    between atoms: C_8  and  C_9 
REMARK    3  A    between atoms: C_9  and  C_10 
ROOT
HETATM    1  C   UNL     1     -42.324  56.683 -55.657  1.00  0.00     0.165 C 
ENDROOT
BRANCH   1   2
HETATM    2  C   UNL     1     -42.120  55.267 -55.150  1.00  0.00     0.227 C 
HETATM    3  N   UNL     1     -40.971  55.032 -54.432  1.00  0.00    -0.327 N 
HETATM    4  H   UNL     1     -40.286  55.788 -54.444  1.00  0.00     0.169 HD
HETATM    5  O   UNL     1     -43.007  54.440 -55.361  1.00  0.00    -0.273 OA
BRANCH   3   6
HETATM    6  C   UNL     1     -40.584  53.855 -53.762  1.00  0.00     0.036 A 
HETATM    7  C   UNL     1     -40.273  52.654 -54.401  1.00  0.00     0.053 A 
HETATM    8  C   UNL     1     -39.914  51.526 -53.654  1.00  0.00     0.042 A 
HETATM    9  C   UNL     1     -39.857  51.575 -52.253  1.00  0.00    -0.040 A 
HETATM   10 CL   UNL     1     -39.553  50.069 -54.515  1.00  0.00    -0.084 Cl
HETATM   11  C   UNL     1     -39.486  50.376 -51.427  1.00  0.00     0.050 C 
HETATM   12  C   UNL     1     -40.174  52.782 -51.617  1.00  0.00     0.011 A 
HETATM   13  C   UNL     1     -40.534  53.907 -52.365  1.00  0.00     0.030 A 
ENDBRANCH   3   6
ENDBRANCH   1   2
BRANCH   1  14
HETATM   14  C   UNL     1     -43.643  57.129 -56.260  1.00  0.00     0.074 A 
HETATM   15  N   UNL     1     -44.560  57.640 -55.491  1.00  0.00    -0.175 NA
HETATM   16  N   UNL     1     -45.735  58.033 -56.050  1.00  0.00    -0.243 N 
HETATM   17  C   UNL     1     -46.071  57.945 -57.379  1.00  0.00     0.272 A 
HETATM   18  H   UNL     1     -46.429  58.443 -55.433  1.00  0.00     0.192 HD
HETATM   19  O   UNL     1     -47.156  58.321 -57.806  1.00  0.00    -0.266 OA
HETATM   20  C   UNL     1     -45.050  57.370 -58.268  1.00  0.00     0.046 A 
HETATM   21  C   UNL     1     -43.832  56.964 -57.728  1.00  0.00     0.006 A 
HETATM   22  C   UNL     1     -45.304  57.238 -59.639  1.00  0.00     0.018 A 
HETATM   23  C   UNL     1     -42.854  56.424 -58.572  1.00  0.00     0.014 A 
HETATM   24  C   UNL     1     -43.105  56.291 -59.941  1.00  0.00     0.001 A 
HETATM   25  C   UNL     1     -44.329  56.697 -60.474  1.00  0.00     0.001 A 
ENDBRANCH   1  14
TORSDOF 3
ENDMDL
MODEL 9
REMARK VINA RESULT:      -8.0      4.584      7.969
REMARK  3 active torsions:
REMARK  status: ('A' for Active; 'I' for Inactive)
REMARK    1  A    between atoms: C_6  and  N_7 
REMARK       I    between atoms: N_7  and  C_8 
REMARK    2  A    between atoms: C_8  and  C_9 
REMARK    3  A    between atoms: C_9  and  C_10 
ROOT
HETATM    1  C   UNL     1     -41.607  56.277 -50.004  1.00  0.00     0.165 C 
ENDROOT
BRANCH   1   2
HETATM    2  C   UNL     1     -40.851  55.011 -50.365  1.00  0.00     0.227 C 
HETATM    3  N   UNL     1     -41.347  54.280 -51.419  1.00  0.00    -0.327 N 
HETATM    4  H   UNL     1     -42.266  54.569 -51.756  1.00  0.00     0.169 HD
HETATM    5  O   UNL     1     -39.825  54.747 -49.739  1.00  0.00    -0.273 OA
BRANCH   3   6
HETATM    6  C   UNL     1     -40.793  53.137 -52.028  1.00  0.00     0.036 A 
HETATM    7  C   UNL     1     -40.265  52.052 -51.327  1.00  0.00     0.053 A 
HETATM    8  C   UNL     1     -39.717  50.963 -52.015  1.00  0.00     0.042 A 
HETATM    9  C   UNL     1     -39.687  50.936 -53.418  1.00  0.00    -0.040 A 
HETATM   10 CL   UNL     1     -39.072  49.659 -51.080  1.00  0.00    -0.084 Cl
HETATM   11  C   UNL     1     -39.094  49.785 -54.181  1.00  0.00     0.050 C 
HETATM   12  C   UNL     1     -40.214  52.030 -54.115  1.00  0.00     0.011 A 
HETATM   13  C   UNL     1     -40.760  53.117 -53.427  1.00  0.00     0.030 A 
ENDBRANCH   3   6
ENDBRANCH   1   2
BRANCH   1  14
HETATM   14  C   UNL     1     -42.647  56.875 -50.933  1.00  0.00     0.074 A 
HETATM   15  N   UNL     1     -43.902  56.570 -50.773  1.00  0.00    -0.175 NA
HETATM   16  N   UNL     1     -44.818  57.115 -51.616  1.00  0.00    -0.243 N 
HETATM   17  C   UNL     1     -44.554  57.978 -52.653  1.00  0.00     0.272 A 
HETATM   18  H   UNL     1     -45.793  56.876 -51.461  1.00  0.00     0.192 HD
HETATM   19  O   UNL     1     -45.440  58.426 -53.372  1.00  0.00    -0.266 OA
HETATM   20  C   UNL     1     -43.142  58.335 -52.854  1.00  0.00     0.046 A 
HETATM   21  C   UNL     1     -42.179  57.799 -52.002  1.00  0.00     0.006 A 
HETATM   22  C   UNL     1     -42.778  59.206 -53.888  1.00  0.00     0.018 A 
HETATM   23  C   UNL     1     -40.834  58.145 -52.185  1.00  0.00     0.014 A 
HETATM   24  C   UNL     1     -40.467  59.014 -53.217  1.00  0.00     0.001 A 
HETATM   25  C   UNL     1     -41.438  59.543 -54.068  1.00  0.00     0.001 A 
ENDBRANCH   1  14
TORSDOF 3
ENDMDL
MODEL 10
REMARK VINA RESULT:      -7.8      1.739      2.015
REMARK  3 active torsions:
REMARK  status: ('A' for Active; 'I' for Inactive)
REMARK    1  A    between atoms: C_6  and  N_7 
REMARK       I    between atoms: N_7  and  C_8 
REMARK    2  A    between atoms: C_8  and  C_9 
REMARK    3  A    between atoms: C_9  and  C_10 
ROOT
HETATM    1  C   UNL     1     -40.531  53.888 -54.856  1.00  0.00     0.165 C 
ENDROOT
BRANCH   1   2
HETATM    2  C   UNL     1     -41.188  55.180 -55.308  1.00  0.00     0.227 C 
HETATM    3  N   UNL     1     -42.178  55.066 -56.255  1.00  0.00    -0.327 N 
HETATM    4  H   UNL     1     -42.269  54.144 -56.684  1.00  0.00     0.169 HD
HETATM    5  O   UNL     1     -40.839  56.230 -54.768  1.00  0.00    -0.273 OA
BRANCH   3   6
HETATM    6  C   UNL     1     -43.017  56.075 -56.769  1.00  0.00     0.036 A 
HETATM    7  C   UNL     1     -43.695  57.007 -55.985  1.00  0.00     0.053 A 
HETATM    8  C   UNL     1     -44.523  57.966 -56.580  1.00  0.00     0.042 A 
HETATM    9  C   UNL     1     -44.689  58.013 -57.973  1.00  0.00    -0.040 A 
HETATM   10 CL   UNL     1     -45.342  59.083 -55.543  1.00  0.00    -0.084 Cl
HETATM   11  C   UNL     1     -45.581  59.023 -58.637  1.00  0.00     0.050 C 
HETATM   12  C   UNL     1     -44.009  57.071 -58.755  1.00  0.00     0.011 A 
HETATM   13  C   UNL     1     -43.183  56.114 -58.158  1.00  0.00     0.030 A 
ENDBRANCH   3   6
ENDBRANCH   1   2
BRANCH   1  14
HETATM   14  C   UNL     1     -40.469  53.498 -53.391  1.00  0.00     0.074 A 
HETATM   15  N   UNL     1     -40.713  54.392 -52.478  1.00  0.00    -0.175 NA
HETATM   16  N   UNL     1     -40.652  54.022 -51.171  1.00  0.00    -0.243 N 
HETATM   17  C   UNL     1     -40.348  52.770 -50.695  1.00  0.00     0.272 A 
HETATM   18  H   UNL     1     -40.862  54.733 -50.477  1.00  0.00     0.192 HD
HETATM   19  O   UNL     1     -40.312  52.517 -49.496  1.00  0.00    -0.266 OA
HETATM   20  C   UNL     1     -40.067  51.743 -51.709  1.00  0.00     0.046 A 
HETATM   21  C   UNL     1     -40.129  52.087 -53.058  1.00  0.00     0.006 A 
HETATM   22  C   UNL     1     -39.745  50.438 -51.318  1.00  0.00     0.018 A 
HETATM   23  C   UNL     1     -39.870  51.109 -54.027  1.00  0.00     0.014 A 
HETATM   24  C   UNL     1     -39.549  49.805 -53.639  1.00  0.00     0.001 A 
HETATM   25  C   UNL     1     -39.486  49.470 -52.286  1.00  0.00     0.001 A 
ENDBRANCH   1  14
TORSDOF 3
ENDMDL
