MODEL 1
REMARK VINA RESULT:      -8.4      0.000      0.000
REMARK  7 active torsions:
REMARK  status: ('A' for Active; 'I' for Inactive)
REMARK    1  A    between atoms: C_7  and  C_8 
REMARK    2  A    between atoms: C_8  and  N_9 
REMARK    3  A    between atoms: C_13  and  C_14 
REMARK    4  A    between atoms: C_14  and  C_15 
REMARK    5  A    between atoms: C_15  and  C_16 
REMARK    6  A    between atoms: N_26  and  C_27 
REMARK    7  A    between atoms: C_27  and  C_28 
ROOT
HETATM    1  C   UNL     1     -43.520  56.859 -54.221  1.00  0.00     0.123 C 
HETATM    2  N   UNL     1     -44.503  56.929 -53.150  1.00  0.00    -0.324 N 
HETATM    3  C   UNL     1     -43.964  57.294 -51.938  1.00  0.00     0.326 C 
HETATM    4  O   UNL     1     -44.630  57.502 -50.941  1.00  0.00    -0.247 OA
HETATM    5  N   UNL     1     -42.613  57.318 -52.069  1.00  0.00    -0.268 N 
HETATM    6  C   UNL     1     -42.256  56.987 -53.342  1.00  0.00     0.257 C 
HETATM    7  O   UNL     1     -41.113  56.814 -53.744  1.00  0.00    -0.270 OA
HETATM    8  H   UNL     1     -45.511  56.928 -53.269  1.00  0.00     0.165 HD
ENDROOT
BRANCH   1   9
HETATM    9  C   UNL     1     -43.657  55.497 -54.980  1.00  0.00     0.027 C 
HETATM   10  C   UNL     1     -43.673  54.244 -54.079  1.00  0.00     0.035 C 
HETATM   11  C   UNL     1     -42.301  53.777 -53.619  1.00  0.00     0.235 C 
HETATM   12  N   UNL     1     -41.396  53.532 -54.797  1.00  0.00    -0.067 N 
HETATM   13  H   UNL     1     -41.753  52.698 -55.277  1.00  0.00     0.280 HD
HETATM   14  C   UNL     1     -41.325  54.653 -55.798  1.00  0.00     0.235 C 
HETATM   15  C   UNL     1     -42.692  55.221 -56.145  1.00  0.00     0.035 C 
BRANCH  12  16
HETATM   16  C   UNL     1     -39.977  53.180 -54.358  1.00  0.00     0.277 C 
BRANCH  16  17
HETATM   17  C   UNL     1     -39.869  51.901 -53.620  1.00  0.00     0.011 A 
HETATM   18  C   UNL     1     -39.761  51.669 -52.255  1.00  0.00     0.035 A 
HETATM   19  C   UNL     1     -39.751  52.594 -51.093  1.00  0.00     0.070 C 
HETATM   20  N   UNL     1     -39.684  50.300 -52.118  1.00  0.00    -0.278 N 
HETATM   21  C   UNL     1     -39.594  49.528 -50.898  1.00  0.00     0.179 C 
HETATM   22  N   UNL     1     -39.725  49.651 -53.292  1.00  0.00    -0.185 NA
HETATM   23  C   UNL     1     -39.872  50.612 -54.197  1.00  0.00     0.149 A 
ENDBRANCH  16  17
ENDBRANCH  12  16
ENDBRANCH   1   9
BRANCH   1  24
HETATM   24  C   UNL     1     -43.558  58.149 -55.100  1.00  0.00     0.082 C 
BRANCH  24  25
HETATM   25  C   UNL     1     -44.439  58.116 -56.337  1.00  0.00    -0.034 A 
HETATM   26  C   UNL     1     -43.944  58.127 -57.655  1.00  0.00     0.040 A 
HETATM   27 CL   UNL     1     -42.259  58.208 -58.019  1.00  0.00    -0.084 Cl
HETATM   28  C   UNL     1     -44.818  58.115 -58.749  1.00  0.00     0.024 A 
HETATM   29  C   UNL     1     -46.197  58.104 -58.553  1.00  0.00     0.002 A 
HETATM   30  C   UNL     1     -46.706  58.126 -57.260  1.00  0.00     0.001 A 
HETATM   31  C   UNL     1     -45.837  58.144 -56.167  1.00  0.00     0.009 A 
ENDBRANCH  24  25
ENDBRANCH   1  24
BRANCH   5  32
HETATM   32  C   UNL     1     -41.690  57.583 -50.987  1.00  0.00     0.141 C 
BRANCH  32  33
HETATM   33  C   UNL     1     -41.142  58.972 -51.109  1.00  0.00     0.004 A 
HETATM   34  C   UNL     1     -40.504  59.654 -49.925  1.00  0.00     0.007 A 
HETATM   35  C   UNL     1     -39.653  59.208 -51.084  1.00  0.00     0.007 A 
ENDBRANCH  32  33
ENDBRANCH   5  32
TORSDOF 7
ENDMDL
MODEL 2
REMARK VINA RESULT:      -8.3      2.851      8.095
REMARK  7 active torsions:
REMARK  status: ('A' for Active; 'I' for Inactive)
REMARK    1  A    between atoms: C_7  and  C_8 
REMARK    2  A    between atoms: C_8  and  N_9 
REMARK    3  A    between atoms: C_13  and  C_14 
REMARK    4  A    between atoms: C_14  and  C_15 
REMARK    5  A    between atoms: C_15  and  C_16 
REMARK    6  A    between atoms: N_26  and  C_27 
REMARK    7  A    between atoms: C_27  and  C_28 
ROOT
HETATM    1  C   UNL     1     -41.657  54.713 -53.153  1.00  0.00     0.123 C 
HETATM    2  N   UNL     1     -42.607  53.901 -53.899  1.00  0.00    -0.324 N 
HETATM    3  C   UNL     1     -42.904  54.412 -55.142  1.00  0.00     0.326 C 
HETATM    4  O   UNL     1     -43.600  53.835 -55.956  1.00  0.00    -0.247 OA
HETATM    5  N   UNL     1     -42.336  55.641 -55.238  1.00  0.00    -0.268 N 
HETATM    6  C   UNL     1     -41.665  55.942 -54.090  1.00  0.00     0.257 C 
HETATM    7  O   UNL     1     -41.143  57.017 -53.826  1.00  0.00    -0.270 OA
HETATM    8  H   UNL     1     -42.887  52.953 -53.667  1.00  0.00     0.165 HD
ENDROOT
BRANCH   1   9
HETATM    9  C   UNL     1     -42.206  54.983 -51.712  1.00  0.00     0.027 C 
HETATM   10  C   UNL     1     -43.648  55.527 -51.651  1.00  0.00     0.035 C 
HETATM   11  C   UNL     1     -43.773  57.020 -51.910  1.00  0.00     0.235 C 
HETATM   12  N   UNL     1     -42.906  57.803 -50.960  1.00  0.00    -0.067 N 
HETATM   13  H   UNL     1     -43.328  57.713 -50.029  1.00  0.00     0.280 HD
HETATM   14  C   UNL     1     -41.476  57.345 -50.870  1.00  0.00     0.235 C 
HETATM   15  C   UNL     1     -41.346  55.834 -50.762  1.00  0.00     0.035 C 
BRANCH  12  16
HETATM   16  C   UNL     1     -42.921  59.295 -51.279  1.00  0.00     0.277 C 
BRANCH  16  17
HETATM   17  C   UNL     1     -44.270  59.905 -51.272  1.00  0.00     0.011 A 
HETATM   18  C   UNL     1     -44.985  60.492 -52.308  1.00  0.00     0.035 A 
HETATM   19  C   UNL     1     -44.669  60.677 -53.748  1.00  0.00     0.070 C 
HETATM   20  N   UNL     1     -46.177  60.899 -51.750  1.00  0.00    -0.278 N 
HETATM   21  C   UNL     1     -47.298  61.538 -52.403  1.00  0.00     0.179 C 
HETATM   22  N   UNL     1     -46.265  60.623 -50.439  1.00  0.00    -0.185 NA
HETATM   23  C   UNL     1     -45.131  59.993 -50.156  1.00  0.00     0.149 A 
ENDBRANCH  16  17
ENDBRANCH  12  16
ENDBRANCH   1   9
BRANCH   1  24
HETATM   24  C   UNL     1     -40.217  54.117 -53.247  1.00  0.00     0.082 C 
BRANCH  24  25
HETATM   25  C   UNL     1     -40.086  52.607 -53.150  1.00  0.00    -0.034 A 
HETATM   26  C   UNL     1     -39.921  51.908 -51.939  1.00  0.00     0.040 A 
HETATM   27 CL   UNL     1     -39.820  52.702 -50.410  1.00  0.00    -0.084 Cl
HETATM   28  C   UNL     1     -39.788  50.515 -51.928  1.00  0.00     0.024 A 
HETATM   29  C   UNL     1     -39.804  49.794 -53.119  1.00  0.00     0.002 A 
HETATM   30  C   UNL     1     -39.933  50.466 -54.328  1.00  0.00     0.001 A 
HETATM   31  C   UNL     1     -40.060  51.857 -54.342  1.00  0.00     0.009 A 
ENDBRANCH  24  25
ENDBRANCH   1  24
BRANCH   5  32
HETATM   32  C   UNL     1     -42.490  56.528 -56.371  1.00  0.00     0.141 C 
BRANCH  32  33
HETATM   33  C   UNL     1     -43.719  57.367 -56.200  1.00  0.00     0.004 A 
HETATM   34  C   UNL     1     -43.787  58.759 -56.776  1.00  0.00     0.007 A 
HETATM   35  C   UNL     1     -44.615  57.655 -57.378  1.00  0.00     0.007 A 
ENDBRANCH  32  33
ENDBRANCH   5  32
TORSDOF 7
ENDMDL
MODEL 3
REMARK VINA RESULT:      -8.3      3.302      8.447
REMARK  7 active torsions:
REMARK  status: ('A' for Active; 'I' for Inactive)
REMARK    1  A    between atoms: C_7  and  C_8 
REMARK    2  A    between atoms: C_8  and  N_9 
REMARK    3  A    between atoms: C_13  and  C_14 
REMARK    4  A    between atoms: C_14  and  C_15 
REMARK    5  A    between atoms: C_15  and  C_16 
REMARK    6  A    between atoms: N_26  and  C_27 
REMARK    7  A    between atoms: C_27  and  C_28 
ROOT
HETATM    1  C   UNL     1     -42.032  55.559 -52.716  1.00  0.00     0.123 C 
HETATM    2  N   UNL     1     -42.991  54.566 -53.175  1.00  0.00    -0.324 N 
HETATM    3  C   UNL     1     -43.557  54.875 -54.392  1.00  0.00     0.326 C 
HETATM    4  O   UNL     1     -44.308  54.130 -54.992  1.00  0.00    -0.247 OA
HETATM    5  N   UNL     1     -43.165  56.130 -54.730  1.00  0.00    -0.268 N 
HETATM    6  C   UNL     1     -42.348  56.645 -53.768  1.00  0.00     0.257 C 
HETATM    7  O   UNL     1     -41.920  57.792 -53.729  1.00  0.00    -0.270 OA
HETATM    8  H   UNL     1     -43.111  53.634 -52.790  1.00  0.00     0.165 HD
ENDROOT
BRANCH   1   9
HETATM    9  C   UNL     1     -42.353  55.964 -51.238  1.00  0.00     0.027 C 
HETATM   10  C   UNL     1     -43.807  56.409 -50.982  1.00  0.00     0.035 C 
HETATM   11  C   UNL     1     -44.107  57.848 -51.374  1.00  0.00     0.235 C 
HETATM   12  N   UNL     1     -43.166  58.799 -50.683  1.00  0.00    -0.067 N 
HETATM   13  H   UNL     1     -43.417  58.794 -49.688  1.00  0.00     0.280 HD
HETATM   14  C   UNL     1     -41.707  58.455 -50.799  1.00  0.00     0.235 C 
HETATM   15  C   UNL     1     -41.426  56.981 -50.553  1.00  0.00     0.035 C 
BRANCH  12  16
HETATM   16  C   UNL     1     -43.368  60.236 -51.154  1.00  0.00     0.277 C 
BRANCH  16  17
HETATM   17  C   UNL     1     -44.069  61.102 -50.178  1.00  0.00     0.011 A 
HETATM   18  C   UNL     1     -43.804  62.412 -49.802  1.00  0.00     0.035 A 
HETATM   19  C   UNL     1     -42.778  63.384 -50.260  1.00  0.00     0.070 C 
HETATM   20  N   UNL     1     -44.757  62.726 -48.859  1.00  0.00    -0.278 N 
HETATM   21  C   UNL     1     -44.952  63.982 -48.168  1.00  0.00     0.179 C 
HETATM   22  N   UNL     1     -45.597  61.711 -48.601  1.00  0.00    -0.185 NA
HETATM   23  C   UNL     1     -45.206  60.742 -49.421  1.00  0.00     0.149 A 
ENDBRANCH  16  17
ENDBRANCH  12  16
ENDBRANCH   1   9
BRANCH   1  24
HETATM   24  C   UNL     1     -40.568  55.099 -53.006  1.00  0.00     0.082 C 
BRANCH  24  25
HETATM   25  C   UNL     1     -40.292  53.606 -52.966  1.00  0.00    -0.034 A 
HETATM   26  C   UNL     1     -39.951  52.901 -51.797  1.00  0.00     0.040 A 
HETATM   27 CL   UNL     1     -39.779  53.669 -50.261  1.00  0.00    -0.084 Cl
HETATM   28  C   UNL     1     -39.691  51.526 -51.839  1.00  0.00     0.024 A 
HETATM   29  C   UNL     1     -39.753  50.831 -53.044  1.00  0.00     0.002 A 
HETATM   30  C   UNL     1     -40.056  51.514 -54.215  1.00  0.00     0.001 A 
HETATM   31  C   UNL     1     -40.310  52.886 -54.177  1.00  0.00     0.009 A 
ENDBRANCH  24  25
ENDBRANCH   1  24
BRANCH   5  32
HETATM   32  C   UNL     1     -43.616  56.839 -55.908  1.00  0.00     0.141 C 
BRANCH  32  33
HETATM   33  C   UNL     1     -42.714  56.536 -57.065  1.00  0.00     0.004 A 
HETATM   34  C   UNL     1     -43.214  55.735 -58.241  1.00  0.00     0.007 A 
HETATM   35  C   UNL     1     -42.935  57.206 -58.398  1.00  0.00     0.007 A 
ENDBRANCH  32  33
ENDBRANCH   5  32
TORSDOF 7
ENDMDL
MODEL 4
REMARK VINA RESULT:      -8.1      2.315      3.413
REMARK  7 active torsions:
REMARK  status: ('A' for Active; 'I' for Inactive)
REMARK    1  A    between atoms: C_7  and  C_8 
REMARK    2  A    between atoms: C_8  and  N_9 
REMARK    3  A    between atoms: C_13  and  C_14 
REMARK    4  A    between atoms: C_14  and  C_15 
REMARK    5  A    between atoms: C_15  and  C_16 
REMARK    6  A    between atoms: N_26  and  C_27 
REMARK    7  A    between atoms: C_27  and  C_28 
ROOT
HETATM    1  C   UNL     1     -43.431  57.249 -55.154  1.00  0.00     0.123 C 
HETATM    2  N   UNL     1     -44.663  57.480 -55.892  1.00  0.00    -0.324 N 
HETATM    3  C   UNL     1     -45.010  58.810 -55.974  1.00  0.00     0.326 C 
HETATM    4  O   UNL     1     -45.950  59.220 -56.628  1.00  0.00    -0.247 OA
HETATM    5  N   UNL     1     -44.165  59.514 -55.179  1.00  0.00    -0.268 N 
HETATM    6  C   UNL     1     -43.268  58.677 -54.585  1.00  0.00     0.257 C 
HETATM    7  O   UNL     1     -42.450  58.992 -53.730  1.00  0.00    -0.270 OA
HETATM    8  H   UNL     1     -45.139  56.802 -56.479  1.00  0.00     0.165 HD
ENDROOT
BRANCH   1   9
HETATM    9  C   UNL     1     -43.657  56.136 -54.077  1.00  0.00     0.027 C 
HETATM   10  C   UNL     1     -42.563  56.041 -52.993  1.00  0.00     0.035 C 
HETATM   11  C   UNL     1     -41.314  55.286 -53.420  1.00  0.00     0.235 C 
HETATM   12  N   UNL     1     -41.662  53.901 -53.899  1.00  0.00    -0.067 N 
HETATM   13  H   UNL     1     -41.960  53.368 -53.074  1.00  0.00     0.280 HD
HETATM   14  C   UNL     1     -42.762  53.833 -54.922  1.00  0.00     0.235 C 
HETATM   15  C   UNL     1     -43.953  54.709 -54.568  1.00  0.00     0.035 C 
BRANCH  12  16
HETATM   16  C   UNL     1     -40.441  53.168 -54.446  1.00  0.00     0.277 C 
BRANCH  16  17
HETATM   17  C   UNL     1     -40.112  51.915 -53.728  1.00  0.00     0.011 A 
HETATM   18  C   UNL     1     -39.815  51.712 -52.386  1.00  0.00     0.035 A 
HETATM   19  C   UNL     1     -39.761  52.648 -51.233  1.00  0.00     0.070 C 
HETATM   20  N   UNL     1     -39.581  50.361 -52.260  1.00  0.00    -0.278 N 
HETATM   21  C   UNL     1     -39.264  49.617 -51.060  1.00  0.00     0.179 C 
HETATM   22  N   UNL     1     -39.696  49.696 -53.420  1.00  0.00    -0.185 NA
HETATM   23  C   UNL     1     -40.051  50.626 -54.300  1.00  0.00     0.149 A 
ENDBRANCH  16  17
ENDBRANCH  12  16
ENDBRANCH   1   9
BRANCH   1  24
HETATM   24  C   UNL     1     -42.228  57.039 -56.126  1.00  0.00     0.082 C 
BRANCH  24  25
HETATM   25  C   UNL     1     -42.547  56.922 -57.606  1.00  0.00    -0.034 A 
HETATM   26  C   UNL     1     -42.333  57.952 -58.541  1.00  0.00     0.040 A 
HETATM   27 CL   UNL     1     -41.699  59.495 -58.100  1.00  0.00    -0.084 Cl
HETATM   28  C   UNL     1     -42.670  57.778 -59.889  1.00  0.00     0.024 A 
HETATM   29  C   UNL     1     -43.236  56.585 -60.328  1.00  0.00     0.002 A 
HETATM   30  C   UNL     1     -43.486  55.567 -59.416  1.00  0.00     0.001 A 
HETATM   31  C   UNL     1     -43.157  55.739 -58.070  1.00  0.00     0.009 A 
ENDBRANCH  24  25
ENDBRANCH   1  24
BRANCH   5  32
HETATM   32  C   UNL     1     -44.260  60.938 -54.941  1.00  0.00     0.141 C 
BRANCH  32  33
HETATM   33  C   UNL     1     -43.386  61.678 -55.907  1.00  0.00     0.004 A 
HETATM   34  C   UNL     1     -43.955  62.240 -57.185  1.00  0.00     0.007 A 
HETATM   35  C   UNL     1     -43.532  63.169 -56.078  1.00  0.00     0.007 A 
ENDBRANCH  32  33
ENDBRANCH   5  32
TORSDOF 7
ENDMDL
MODEL 5
REMARK VINA RESULT:      -8.1      1.951      4.836
REMARK  7 active torsions:
REMARK  status: ('A' for Active; 'I' for Inactive)
REMARK    1  A    between atoms: C_7  and  C_8 
REMARK    2  A    between atoms: C_8  and  N_9 
REMARK    3  A    between atoms: C_13  and  C_14 
REMARK    4  A    between atoms: C_14  and  C_15 
REMARK    5  A    between atoms: C_15  and  C_16 
REMARK    6  A    between atoms: N_26  and  C_27 
REMARK    7  A    between atoms: C_27  and  C_28 
ROOT
HETATM    1  C   UNL     1     -43.712  57.214 -54.153  1.00  0.00     0.123 C 
HETATM    2  N   UNL     1     -42.372  57.695 -54.453  1.00  0.00    -0.324 N 
HETATM    3  C   UNL     1     -42.356  58.958 -55.001  1.00  0.00     0.326 C 
HETATM    4  O   UNL     1     -41.335  59.576 -55.234  1.00  0.00    -0.247 OA
HETATM    5  N   UNL     1     -43.639  59.321 -55.259  1.00  0.00    -0.268 N 
HETATM    6  C   UNL     1     -44.494  58.328 -54.883  1.00  0.00     0.257 C 
HETATM    7  O   UNL     1     -45.701  58.307 -55.086  1.00  0.00    -0.270 OA
HETATM    8  H   UNL     1     -41.505  57.281 -54.125  1.00  0.00     0.165 HD
ENDROOT
BRANCH   1   9
HETATM    9  C   UNL     1     -43.906  55.778 -54.746  1.00  0.00     0.027 C 
HETATM   10  C   UNL     1     -43.829  54.629 -53.719  1.00  0.00     0.035 C 
HETATM   11  C   UNL     1     -42.416  54.212 -53.341  1.00  0.00     0.235 C 
HETATM   12  N   UNL     1     -41.621  53.841 -54.564  1.00  0.00    -0.067 N 
HETATM   13  H   UNL     1     -42.014  52.961 -54.918  1.00  0.00     0.280 HD
HETATM   14  C   UNL     1     -41.652  54.848 -55.681  1.00  0.00     0.235 C 
HETATM   15  C   UNL     1     -43.050  55.378 -55.959  1.00  0.00     0.035 C 
BRANCH  12  16
HETATM   16  C   UNL     1     -40.166  53.536 -54.223  1.00  0.00     0.277 C 
BRANCH  16  17
HETATM   17  C   UNL     1     -39.963  52.247 -53.522  1.00  0.00     0.011 A 
HETATM   18  C   UNL     1     -39.825  51.985 -52.166  1.00  0.00     0.035 A 
HETATM   19  C   UNL     1     -39.866  52.876 -50.977  1.00  0.00     0.070 C 
HETATM   20  N   UNL     1     -39.654  50.622 -52.068  1.00  0.00    -0.278 N 
HETATM   21  C   UNL     1     -39.499  49.824 -50.871  1.00  0.00     0.179 C 
HETATM   22  N   UNL     1     -39.662  50.004 -53.259  1.00  0.00    -0.185 NA
HETATM   23  C   UNL     1     -39.883  50.977 -54.136  1.00  0.00     0.149 A 
ENDBRANCH  16  17
ENDBRANCH  12  16
ENDBRANCH   1   9
BRANCH   1  24
HETATM   24  C   UNL     1     -44.042  57.388 -52.636  1.00  0.00     0.082 C 
BRANCH  24  25
HETATM   25  C   UNL     1     -42.967  58.010 -51.762  1.00  0.00    -0.034 A 
HETATM   26  C   UNL     1     -42.922  59.376 -51.424  1.00  0.00     0.040 A 
HETATM   27 CL   UNL     1     -44.084  60.517 -51.996  1.00  0.00    -0.084 Cl
HETATM   28  C   UNL     1     -41.888  59.884 -50.628  1.00  0.00     0.024 A 
HETATM   29  C   UNL     1     -40.876  59.048 -50.165  1.00  0.00     0.002 A 
HETATM   30  C   UNL     1     -40.884  57.703 -50.514  1.00  0.00     0.001 A 
HETATM   31  C   UNL     1     -41.910  57.194 -51.313  1.00  0.00     0.009 A 
ENDBRANCH  24  25
ENDBRANCH   1  24
BRANCH   5  32
HETATM   32  C   UNL     1     -44.026  60.553 -55.910  1.00  0.00     0.141 C 
BRANCH  32  33
HETATM   33  C   UNL     1     -43.729  60.473 -57.376  1.00  0.00     0.004 A 
HETATM   34  C   UNL     1     -44.244  59.322 -58.203  1.00  0.00     0.007 A 
HETATM   35  C   UNL     1     -44.824  60.699 -58.388  1.00  0.00     0.007 A 
ENDBRANCH  32  33
ENDBRANCH   5  32
TORSDOF 7
ENDMDL
MODEL 6
REMARK VINA RESULT:      -8.0      1.571      2.141
REMARK  7 active torsions:
REMARK  status: ('A' for Active; 'I' for Inactive)
REMARK    1  A    between atoms: C_7  and  C_8 
REMARK    2  A    between atoms: C_8  and  N_9 
REMARK    3  A    between atoms: C_13  and  C_14 
REMARK    4  A    between atoms: C_14  and  C_15 
REMARK    5  A    between atoms: C_15  and  C_16 
REMARK    6  A    between atoms: N_26  and  C_27 
REMARK    7  A    between atoms: C_27  and  C_28 
ROOT
HETATM    1  C   UNL     1     -43.702  57.241 -55.644  1.00  0.00     0.123 C 
HETATM    2  N   UNL     1     -44.871  57.753 -54.946  1.00  0.00    -0.324 N 
HETATM    3  C   UNL     1     -44.575  58.745 -54.039  1.00  0.00     0.326 C 
HETATM    4  O   UNL     1     -45.420  59.368 -53.425  1.00  0.00    -0.247 OA
HETATM    5  N   UNL     1     -43.224  58.835 -53.942  1.00  0.00    -0.268 N 
HETATM    6  C   UNL     1     -42.630  57.933 -54.773  1.00  0.00     0.257 C 
HETATM    7  O   UNL     1     -41.430  57.694 -54.832  1.00  0.00    -0.270 OA
HETATM    8  H   UNL     1     -45.838  57.587 -55.208  1.00  0.00     0.165 HD
ENDROOT
BRANCH   1   9
HETATM    9  C   UNL     1     -43.689  55.677 -55.582  1.00  0.00     0.027 C 
HETATM   10  C   UNL     1     -44.046  55.072 -54.208  1.00  0.00     0.035 C 
HETATM   11  C   UNL     1     -42.902  55.058 -53.206  1.00  0.00     0.235 C 
HETATM   12  N   UNL     1     -41.704  54.340 -53.770  1.00  0.00    -0.067 N 
HETATM   13  H   UNL     1     -41.953  53.345 -53.823  1.00  0.00     0.280 HD
HETATM   14  C   UNL     1     -41.274  54.787 -55.141  1.00  0.00     0.235 C 
HETATM   15  C   UNL     1     -42.440  54.946 -56.103  1.00  0.00     0.035 C 
BRANCH  12  16
HETATM   16  C   UNL     1     -40.503  54.418 -52.832  1.00  0.00     0.277 C 
BRANCH  16  17
HETATM   17  C   UNL     1     -40.323  53.223 -51.976  1.00  0.00     0.011 A 
HETATM   18  C   UNL     1     -39.873  51.952 -52.308  1.00  0.00     0.035 A 
HETATM   19  C   UNL     1     -39.397  51.376 -53.592  1.00  0.00     0.070 C 
HETATM   20  N   UNL     1     -39.908  51.230 -51.135  1.00  0.00    -0.278 N 
HETATM   21  C   UNL     1     -39.508  49.857 -50.919  1.00  0.00     0.179 C 
HETATM   22  N   UNL     1     -40.355  51.944 -50.091  1.00  0.00    -0.185 NA
HETATM   23  C   UNL     1     -40.574  53.157 -50.587  1.00  0.00     0.149 A 
ENDBRANCH  16  17
ENDBRANCH  12  16
ENDBRANCH   1   9
BRANCH   1  24
HETATM   24  C   UNL     1     -43.572  57.879 -57.063  1.00  0.00     0.082 C 
BRANCH  24  25
HETATM   25  C   UNL     1     -44.563  57.421 -58.120  1.00  0.00    -0.034 A 
HETATM   26  C   UNL     1     -44.226  56.591 -59.205  1.00  0.00     0.040 A 
HETATM   27 CL   UNL     1     -42.622  56.013 -59.476  1.00  0.00    -0.084 Cl
HETATM   28  C   UNL     1     -45.189  56.224 -60.153  1.00  0.00     0.024 A 
HETATM   29  C   UNL     1     -46.498  56.686 -60.046  1.00  0.00     0.002 A 
HETATM   30  C   UNL     1     -46.844  57.533 -59.001  1.00  0.00     0.001 A 
HETATM   31  C   UNL     1     -45.885  57.905 -58.057  1.00  0.00     0.009 A 
ENDBRANCH  24  25
ENDBRANCH   1  24
BRANCH   5  32
HETATM   32  C   UNL     1     -42.526  59.713 -53.029  1.00  0.00     0.141 C 
BRANCH  32  33
HETATM   33  C   UNL     1     -42.449  59.084 -51.671  1.00  0.00     0.004 A 
HETATM   34  C   UNL     1     -41.311  58.162 -51.313  1.00  0.00     0.007 A 
HETATM   35  C   UNL     1     -41.399  59.527 -50.684  1.00  0.00     0.007 A 
ENDBRANCH  32  33
ENDBRANCH   5  32
TORSDOF 7
ENDMDL
MODEL 7
REMARK VINA RESULT:      -8.0      2.488      4.742
REMARK  7 active torsions:
REMARK  status: ('A' for Active; 'I' for Inactive)
REMARK    1  A    between atoms: C_7  and  C_8 
REMARK    2  A    between atoms: C_8  and  N_9 
REMARK    3  A    between atoms: C_13  and  C_14 
REMARK    4  A    between atoms: C_14  and  C_15 
REMARK    5  A    between atoms: C_15  and  C_16 
REMARK    6  A    between atoms: N_26  and  C_27 
REMARK    7  A    between atoms: C_27  and  C_28 
ROOT
HETATM    1  C   UNL     1     -43.655  57.049 -55.531  1.00  0.00     0.123 C 
HETATM    2  N   UNL     1     -42.558  57.839 -54.994  1.00  0.00    -0.324 N 
HETATM    3  C   UNL     1     -42.326  59.001 -55.695  1.00  0.00     0.326 C 
HETATM    4  O   UNL     1     -41.519  59.843 -55.352  1.00  0.00    -0.247 OA
HETATM    5  N   UNL     1     -43.102  58.981 -56.809  1.00  0.00    -0.268 N 
HETATM    6  C   UNL     1     -43.843  57.838 -56.846  1.00  0.00     0.257 C 
HETATM    7  O   UNL     1     -44.556  57.476 -57.774  1.00  0.00    -0.270 OA
HETATM    8  H   UNL     1     -42.119  57.706 -54.088  1.00  0.00     0.165 HD
ENDROOT
BRANCH   1   9
HETATM    9  C   UNL     1     -43.199  55.563 -55.716  1.00  0.00     0.027 C 
HETATM   10  C   UNL     1     -43.716  54.582 -54.643  1.00  0.00     0.035 C 
HETATM   11  C   UNL     1     -42.929  54.594 -53.342  1.00  0.00     0.235 C 
HETATM   12  N   UNL     1     -41.468  54.330 -53.596  1.00  0.00    -0.067 N 
HETATM   13  H   UNL     1     -41.389  53.348 -53.882  1.00  0.00     0.280 HD
HETATM   14  C   UNL     1     -40.839  55.180 -54.666  1.00  0.00     0.235 C 
HETATM   15  C   UNL     1     -41.699  55.289 -55.915  1.00  0.00     0.035 C 
BRANCH  12  16
HETATM   16  C   UNL     1     -40.639  54.459 -52.322  1.00  0.00     0.277 C 
BRANCH  16  17
HETATM   17  C   UNL     1     -40.389  53.174 -51.628  1.00  0.00     0.011 A 
HETATM   18  C   UNL     1     -39.910  51.972 -52.130  1.00  0.00     0.035 A 
HETATM   19  C   UNL     1     -39.460  51.577 -53.490  1.00  0.00     0.070 C 
HETATM   20  N   UNL     1     -39.880  51.109 -51.057  1.00  0.00    -0.278 N 
HETATM   21  C   UNL     1     -39.427  49.735 -51.028  1.00  0.00     0.179 C 
HETATM   22  N   UNL     1     -40.314  51.671 -49.918  1.00  0.00    -0.185 NA
HETATM   23  C   UNL     1     -40.589  52.926 -50.252  1.00  0.00     0.149 A 
ENDBRANCH  16  17
ENDBRANCH  12  16
ENDBRANCH   1   9
BRANCH   1  24
HETATM   24  C   UNL     1     -44.963  57.276 -54.709  1.00  0.00     0.082 C 
BRANCH  24  25
HETATM   25  C   UNL     1     -44.850  58.116 -53.449  1.00  0.00    -0.034 A 
HETATM   26  C   UNL     1     -45.095  59.501 -53.402  1.00  0.00     0.040 A 
HETATM   27 CL   UNL     1     -45.531  60.419 -54.797  1.00  0.00    -0.084 Cl
HETATM   28  C   UNL     1     -44.952  60.215 -52.206  1.00  0.00     0.024 A 
HETATM   29  C   UNL     1     -44.552  59.568 -51.040  1.00  0.00     0.002 A 
HETATM   30  C   UNL     1     -44.273  58.207 -51.071  1.00  0.00     0.001 A 
HETATM   31  C   UNL     1     -44.409  57.494 -52.263  1.00  0.00     0.009 A 
ENDBRANCH  24  25
ENDBRANCH   1  24
BRANCH   5  32
HETATM   32  C   UNL     1     -43.081  59.995 -57.840  1.00  0.00     0.141 C 
BRANCH  32  33
HETATM   33  C   UNL     1     -42.067  59.642 -58.885  1.00  0.00     0.004 A 
HETATM   34  C   UNL     1     -42.493  59.344 -60.300  1.00  0.00     0.007 A 
HETATM   35  C   UNL     1     -41.745  60.614 -59.992  1.00  0.00     0.007 A 
ENDBRANCH  32  33
ENDBRANCH   5  32
TORSDOF 7
ENDMDL
MODEL 8
REMARK VINA RESULT:      -8.0      2.522      5.043
REMARK  7 active torsions:
REMARK  status: ('A' for Active; 'I' for Inactive)
REMARK    1  A    between atoms: C_7  and  C_8 
REMARK    2  A    between atoms: C_8  and  N_9 
REMARK    3  A    between atoms: C_13  and  C_14 
REMARK    4  A    between atoms: C_14  and  C_15 
REMARK    5  A    between atoms: C_15  and  C_16 
REMARK    6  A    between atoms: N_26  and  C_27 
REMARK    7  A    between atoms: C_27  and  C_28 
ROOT
HETATM    1  C   UNL     1     -42.482  56.895 -52.801  1.00  0.00     0.123 C 
HETATM    2  N   UNL     1     -41.136  56.468 -53.150  1.00  0.00    -0.324 N 
HETATM    3  C   UNL     1     -41.045  55.928 -54.413  1.00  0.00     0.326 C 
HETATM    4  O   UNL     1     -39.993  55.599 -54.929  1.00  0.00    -0.247 OA
HETATM    5  N   UNL     1     -42.303  55.798 -54.907  1.00  0.00    -0.268 N 
HETATM    6  C   UNL     1     -43.214  56.250 -54.000  1.00  0.00     0.257 C 
HETATM    7  O   UNL     1     -44.431  56.166 -54.104  1.00  0.00    -0.270 OA
HETATM    8  H   UNL     1     -40.288  56.708 -52.646  1.00  0.00     0.165 HD
ENDROOT
BRANCH   1   9
HETATM    9  C   UNL     1     -42.878  56.316 -51.402  1.00  0.00     0.027 C 
HETATM   10  C   UNL     1     -41.840  56.540 -50.283  1.00  0.00     0.035 C 
HETATM   11  C   UNL     1     -40.679  55.557 -50.290  1.00  0.00     0.235 C 
HETATM   12  N   UNL     1     -41.178  54.138 -50.229  1.00  0.00    -0.067 N 
HETATM   13  H   UNL     1     -41.566  54.000 -49.289  1.00  0.00     0.280 HD
HETATM   14  C   UNL     1     -42.244  53.788 -51.231  1.00  0.00     0.235 C 
HETATM   15  C   UNL     1     -43.330  54.848 -51.331  1.00  0.00     0.035 C 
BRANCH  12  16
HETATM   16  C   UNL     1     -40.039  53.131 -50.358  1.00  0.00     0.277 C 
BRANCH  16  17
HETATM   17  C   UNL     1     -39.984  52.440 -51.667  1.00  0.00     0.011 A 
HETATM   18  C   UNL     1     -39.737  51.104 -51.956  1.00  0.00     0.035 A 
HETATM   19  C   UNL     1     -39.485  49.933 -51.078  1.00  0.00     0.070 C 
HETATM   20  N   UNL     1     -39.796  51.006 -53.329  1.00  0.00    -0.278 N 
HETATM   21  C   UNL     1     -39.644  49.823 -54.148  1.00  0.00     0.179 C 
HETATM   22  N   UNL     1     -40.050  52.179 -53.929  1.00  0.00    -0.185 NA
HETATM   23  C   UNL     1     -40.198  53.039 -52.928  1.00  0.00     0.149 A 
ENDBRANCH  16  17
ENDBRANCH  12  16
ENDBRANCH   1   9
BRANCH   1  24
HETATM   24  C   UNL     1     -42.645  58.437 -52.985  1.00  0.00     0.082 C 
BRANCH  24  25
HETATM   25  C   UNL     1     -43.588  59.150 -52.032  1.00  0.00    -0.034 A 
HETATM   26  C   UNL     1     -43.162  59.944 -50.951  1.00  0.00     0.040 A 
HETATM   27 CL   UNL     1     -41.496  60.178 -50.565  1.00  0.00    -0.084 Cl
HETATM   28  C   UNL     1     -44.090  60.557 -50.101  1.00  0.00     0.024 A 
HETATM   29  C   UNL     1     -45.457  60.382 -50.303  1.00  0.00     0.002 A 
HETATM   30  C   UNL     1     -45.899  59.576 -51.344  1.00  0.00     0.001 A 
HETATM   31  C   UNL     1     -44.975  58.959 -52.190  1.00  0.00     0.009 A 
ENDBRANCH  24  25
ENDBRANCH   1  24
BRANCH   5  32
HETATM   32  C   UNL     1     -42.624  55.194 -56.182  1.00  0.00     0.141 C 
BRANCH  32  33
HETATM   33  C   UNL     1     -43.230  56.217 -57.094  1.00  0.00     0.004 A 
HETATM   34  C   UNL     1     -42.427  57.405 -57.560  1.00  0.00     0.007 A 
HETATM   35  C   UNL     1     -42.787  56.313 -58.532  1.00  0.00     0.007 A 
ENDBRANCH  32  33
ENDBRANCH   5  32
TORSDOF 7
ENDMDL
MODEL 9
REMARK VINA RESULT:      -7.8      3.228      8.230
REMARK  7 active torsions:
REMARK  status: ('A' for Active; 'I' for Inactive)
REMARK    1  A    between atoms: C_7  and  C_8 
REMARK    2  A    between atoms: C_8  and  N_9 
REMARK    3  A    between atoms: C_13  and  C_14 
REMARK    4  A    between atoms: C_14  and  C_15 
REMARK    5  A    between atoms: C_15  and  C_16 
REMARK    6  A    between atoms: N_26  and  C_27 
REMARK    7  A    between atoms: C_27  and  C_28 
ROOT
HETATM    1  C   UNL     1     -42.658  56.085 -53.510  1.00  0.00     0.123 C 
HETATM    2  N   UNL     1     -43.863  56.885 -53.661  1.00  0.00    -0.324 N 
HETATM    3  C   UNL     1     -44.258  57.034 -54.971  1.00  0.00     0.326 C 
HETATM    4  O   UNL     1     -45.290  57.585 -55.303  1.00  0.00    -0.247 OA
HETATM    5  N   UNL     1     -43.286  56.515 -55.765  1.00  0.00    -0.268 N 
HETATM    6  C   UNL     1     -42.269  56.022 -55.004  1.00  0.00     0.257 C 
HETATM    7  O   UNL     1     -41.203  55.590 -55.424  1.00  0.00    -0.270 OA
HETATM    8  H   UNL     1     -44.497  57.150 -52.914  1.00  0.00     0.165 HD
ENDROOT
BRANCH   1   9
HETATM    9  C   UNL     1     -41.632  56.835 -52.596  1.00  0.00     0.027 C 
HETATM   10  C   UNL     1     -42.232  57.476 -51.327  1.00  0.00     0.035 C 
HETATM   11  C   UNL     1     -42.912  58.817 -51.557  1.00  0.00     0.235 C 
HETATM   12  N   UNL     1     -41.968  59.793 -52.209  1.00  0.00    -0.067 N 
HETATM   13  H   UNL     1     -41.258  60.032 -51.507  1.00  0.00     0.280 HD
HETATM   14  C   UNL     1     -41.261  59.281 -53.433  1.00  0.00     0.235 C 
HETATM   15  C   UNL     1     -40.709  57.875 -53.252  1.00  0.00     0.035 C 
BRANCH  12  16
HETATM   16  C   UNL     1     -42.663  61.105 -52.560  1.00  0.00     0.277 C 
BRANCH  16  17
HETATM   17  C   UNL     1     -43.528  61.641 -51.483  1.00  0.00     0.011 A 
HETATM   18  C   UNL     1     -44.911  61.611 -51.358  1.00  0.00     0.035 A 
HETATM   19  C   UNL     1     -45.969  61.018 -52.215  1.00  0.00     0.070 C 
HETATM   20  N   UNL     1     -45.188  62.258 -50.174  1.00  0.00    -0.278 N 
HETATM   21  C   UNL     1     -46.477  62.475 -49.554  1.00  0.00     0.179 C 
HETATM   22  N   UNL     1     -44.087  62.704 -49.548  1.00  0.00    -0.185 NA
HETATM   23  C   UNL     1     -43.082  62.303 -50.318  1.00  0.00     0.149 A 
ENDBRANCH  16  17
ENDBRANCH  12  16
ENDBRANCH   1   9
BRANCH   1  24
HETATM   24  C   UNL     1     -43.008  54.619 -53.100  1.00  0.00     0.082 C 
BRANCH  24  25
HETATM   25  C   UNL     1     -41.881  53.772 -52.533  1.00  0.00    -0.034 A 
HETATM   26  C   UNL     1     -41.602  53.654 -51.159  1.00  0.00     0.040 A 
HETATM   27 CL   UNL     1     -42.504  54.490 -49.948  1.00  0.00    -0.084 Cl
HETATM   28  C   UNL     1     -40.534  52.869 -50.709  1.00  0.00     0.024 A 
HETATM   29  C   UNL     1     -39.717  52.199 -51.617  1.00  0.00     0.002 A 
HETATM   30  C   UNL     1     -39.955  52.328 -52.979  1.00  0.00     0.001 A 
HETATM   31  C   UNL     1     -41.016  53.115 -53.431  1.00  0.00     0.009 A 
ENDBRANCH  24  25
ENDBRANCH   1  24
BRANCH   5  32
HETATM   32  C   UNL     1     -43.302  56.555 -57.211  1.00  0.00     0.141 C 
BRANCH  32  33
HETATM   33  C   UNL     1     -42.693  57.836 -57.695  1.00  0.00     0.004 A 
HETATM   34  C   UNL     1     -42.125  57.939 -59.088  1.00  0.00     0.007 A 
HETATM   35  C   UNL     1     -43.395  58.667 -58.739  1.00  0.00     0.007 A 
ENDBRANCH  32  33
ENDBRANCH   5  32
TORSDOF 7
ENDMDL
MODEL 10
REMARK VINA RESULT:      -7.8      2.568      5.009
REMARK  7 active torsions:
REMARK  status: ('A' for Active; 'I' for Inactive)
REMARK    1  A    between atoms: C_7  and  C_8 
REMARK    2  A    between atoms: C_8  and  N_9 
REMARK    3  A    between atoms: C_13  and  C_14 
REMARK    4  A    between atoms: C_14  and  C_15 
REMARK    5  A    between atoms: C_15  and  C_16 
REMARK    6  A    between atoms: N_26  and  C_27 
REMARK    7  A    between atoms: C_27  and  C_28 
ROOT
HETATM    1  C   UNL     1     -43.472  57.161 -53.647  1.00  0.00     0.123 C 
HETATM    2  N   UNL     1     -42.071  57.547 -53.724  1.00  0.00    -0.324 N 
HETATM    3  C   UNL     1     -41.885  58.902 -53.882  1.00  0.00     0.326 C 
HETATM    4  O   UNL     1     -40.793  59.436 -53.871  1.00  0.00    -0.247 OA
HETATM    5  N   UNL     1     -43.100  59.471 -54.091  1.00  0.00    -0.268 N 
HETATM    6  C   UNL     1     -44.077  58.521 -54.065  1.00  0.00     0.257 C 
HETATM    7  O   UNL     1     -45.259  58.700 -54.329  1.00  0.00    -0.270 OA
HETATM    8  H   UNL     1     -41.280  56.958 -53.484  1.00  0.00     0.165 HD
ENDROOT
BRANCH   1   9
HETATM    9  C   UNL     1     -43.754  55.984 -54.640  1.00  0.00     0.027 C 
HETATM   10  C   UNL     1     -43.775  54.580 -54.002  1.00  0.00     0.035 C 
HETATM   11  C   UNL     1     -42.402  53.970 -53.769  1.00  0.00     0.235 C 
HETATM   12  N   UNL     1     -41.612  53.922 -55.051  1.00  0.00    -0.067 N 
HETATM   13  H   UNL     1     -42.059  53.218 -55.648  1.00  0.00     0.280 HD
HETATM   14  C   UNL     1     -41.554  55.215 -55.817  1.00  0.00     0.235 C 
HETATM   15  C   UNL     1     -42.906  55.903 -55.920  1.00  0.00     0.035 C 
BRANCH  12  16
HETATM   16  C   UNL     1     -40.188  53.427 -54.820  1.00  0.00     0.277 C 
BRANCH  16  17
HETATM   17  C   UNL     1     -40.014  52.632 -53.583  1.00  0.00     0.011 A 
HETATM   18  C   UNL     1     -39.861  51.261 -53.423  1.00  0.00     0.035 A 
HETATM   19  C   UNL     1     -39.784  50.152 -54.409  1.00  0.00     0.070 C 
HETATM   20  N   UNL     1     -39.747  51.058 -52.065  1.00  0.00    -0.278 N 
HETATM   21  C   UNL     1     -39.535  49.811 -51.362  1.00  0.00     0.179 C 
HETATM   22  N   UNL     1     -39.828  52.194 -51.355  1.00  0.00    -0.185 NA
HETATM   23  C   UNL     1     -39.954  53.148 -52.270  1.00  0.00     0.149 A 
ENDBRANCH  16  17
ENDBRANCH  12  16
ENDBRANCH   1   9
BRANCH   1  24
HETATM   24  C   UNL     1     -43.910  56.939 -52.165  1.00  0.00     0.082 C 
BRANCH  24  25
HETATM   25  C   UNL     1     -42.874  56.362 -51.217  1.00  0.00    -0.034 A 
HETATM   26  C   UNL     1     -43.026  55.141 -50.534  1.00  0.00     0.040 A 
HETATM   27 CL   UNL     1     -44.441  54.162 -50.678  1.00  0.00    -0.084 Cl
HETATM   28  C   UNL     1     -42.035  54.679 -49.659  1.00  0.00     0.024 A 
HETATM   29  C   UNL     1     -40.883  55.428 -49.439  1.00  0.00     0.002 A 
HETATM   30  C   UNL     1     -40.726  56.652 -50.078  1.00  0.00     0.001 A 
HETATM   31  C   UNL     1     -41.715  57.118 -50.946  1.00  0.00     0.009 A 
ENDBRANCH  24  25
ENDBRANCH   1  24
BRANCH   5  32
HETATM   32  C   UNL     1     -43.308  60.873 -54.378  1.00  0.00     0.141 C 
BRANCH  32  33
HETATM   33  C   UNL     1     -43.293  61.102 -55.859  1.00  0.00     0.004 A 
HETATM   34  C   UNL     1     -44.438  61.808 -56.540  1.00  0.00     0.007 A 
HETATM   35  C   UNL     1     -43.103  62.491 -56.413  1.00  0.00     0.007 A 
ENDBRANCH  32  33
ENDBRANCH   5  32
TORSDOF 7
ENDMDL
