REMARK  5 active torsions:
REMARK  status: ('A' for Active; 'I' for Inactive)
REMARK    1  A    between atoms: C_6  and  O_7 
REMARK    2  A    between atoms: O_7  and  C_8 
REMARK    3  A    between atoms: C_8  and  C_9 
REMARK       I    between atoms: C_9  and  N_10 
REMARK    4  A    between atoms: N_10  and  N_11 
REMARK    5  A    between atoms: C_12  and  C_13 
ROOT
HETATM    1  C   UNL     1       8.739   0.880  -1.271  1.00  0.00     0.261 C 
HETATM    2  N   UNL     1       9.020  -0.478  -1.206  1.00  0.00    -0.246 N 
HETATM    3  O   UNL     1       9.495   1.743  -1.713  1.00  0.00    -0.269 OA
HETATM    4  H   UNL     1       8.341  -1.108  -0.787  1.00  0.00     0.192 HD
ENDROOT
BRANCH   2   5
HETATM    5  N   UNL     1      10.226  -0.940  -1.641  1.00  0.00    -0.184 NA
HETATM    6  C   UNL     1      10.375  -2.224  -1.670  1.00  0.00     0.152 C 
BRANCH   6   7
HETATM    7  C   UNL     1      11.635  -2.775  -2.130  1.00  0.00     0.011 A 
HETATM    8  C   UNL     1      11.949  -4.145  -2.406  1.00  0.00     0.005 A 
HETATM    9  C   UNL     1      13.279  -4.190  -2.835  1.00  0.00     0.043 A 
HETATM   10  C   UNL     1      11.224  -5.355  -2.348  1.00  0.00     0.033 A 
HETATM   11  C   UNL     1      13.922  -5.377  -3.204  1.00  0.00     0.031 A 
HETATM   12  N   UNL     1      13.756  -2.900  -2.814  1.00  0.00    -0.364 N 
HETATM   13  C   UNL     1      13.183  -6.562  -3.140  1.00  0.00     0.021 A 
HETATM   14  C   UNL     1      11.856  -6.547  -2.719  1.00  0.00     0.012 A 
HETATM   15 BR   UNL     1      10.883  -8.169  -2.654  1.00  0.00    -0.051 Br
HETATM   16  H   UNL     1      14.693  -2.627  -3.078  1.00  0.00     0.165 HD
HETATM   17  C   UNL     1      12.777  -2.043  -2.399  1.00  0.00     0.102 A 
ENDBRANCH   6   7
ENDBRANCH   2   5
BRANCH   1  18
HETATM   18  C   UNL     1       7.316   1.217  -0.838  1.00  0.00     0.280 C 
BRANCH  18  19
HETATM   19  O   UNL     1       6.881   0.360   0.218  1.00  0.00    -0.342 OA
BRANCH  19  20
HETATM   20  C   UNL     1       5.748   0.802   0.850  1.00  0.00     0.069 A 
HETATM   21  C   UNL     1       4.649   1.355   0.190  1.00  0.00     0.044 A 
HETATM   22  C   UNL     1       3.512   1.772   0.906  1.00  0.00    -0.053 A 
HETATM   23  C   UNL     1       3.493   1.641   2.309  1.00  0.00    -0.056 A 
HETATM   24  C   UNL     1       2.354   2.373   0.156  1.00  0.00     0.049 C 
HETATM   25  C   UNL     1       2.305   2.077   3.124  1.00  0.00     0.049 C 
HETATM   26  C   UNL     1       4.590   1.053   2.956  1.00  0.00     0.010 A 
HETATM   27  C   UNL     1       5.706   0.630   2.230  1.00  0.00     0.037 A 
ENDBRANCH  19  20
ENDBRANCH  18  19
ENDBRANCH   1  18
TORSDOF 5
