REMARK  3 active torsions:
REMARK  status: ('A' for Active; 'I' for Inactive)
REMARK    1  A    between atoms: C_8  and  C_9 
REMARK    2  A    between atoms: C_10  and  O_11 
REMARK    3  A    between atoms: C_24  and  N_25 
ROOT
HETATM    1  C   UNL     1      -0.178   2.204  -0.555  1.00  0.00     0.073 C 
HETATM    2  C   UNL     1       1.006   1.349  -0.819  1.00  0.00     0.062 A 
HETATM    3  N   UNL     1       0.874   0.207  -1.515  1.00  0.00    -0.177 NA
HETATM    4  N   UNL     1       2.125  -0.293  -1.576  1.00  0.00    -0.256 N 
HETATM    5  H   UNL     1       2.279  -1.169  -2.061  1.00  0.00     0.191 HD
HETATM    6  C   UNL     1       3.036   0.500  -0.958  1.00  0.00     0.175 A 
HETATM    7  C   UNL     1       2.349   1.563  -0.431  1.00  0.00     0.034 A 
HETATM    8  C   UNL     1       3.092   2.635   0.288  1.00  0.00     0.109 A 
HETATM    9  C   UNL     1       4.582   2.299   0.384  1.00  0.00     0.081 A 
HETATM   10  C   UNL     1       5.411   3.248   1.051  1.00  0.00     0.100 C 
HETATM   11  N   UNL     1       6.105   4.028   1.558  1.00  0.00    -0.191 NA
HETATM   12  C   UNL     1       5.123   1.186  -0.186  1.00  0.00     0.140 A 
HETATM   13  O   UNL     1       4.339   0.251  -0.891  1.00  0.00    -0.279 OA
ENDROOT
BRANCH   8  14
HETATM   14  C   UNL     1       2.384   2.892   1.625  1.00  0.00     0.000 A 
HETATM   15  C   UNL     1       1.819   4.182   1.821  1.00  0.00     0.076 A 
HETATM   16  C   UNL     1       1.152   4.492   3.005  1.00  0.00     0.038 A 
HETATM   17  C   UNL     1       1.059   3.551   4.023  1.00  0.00     0.015 A 
HETATM   18  C   UNL     1       1.623   2.281   3.886  1.00  0.00    -0.025 A 
HETATM   19  C   UNL     1       2.298   1.922   2.688  1.00  0.00    -0.016 A 
HETATM   20  C   UNL     1       1.508   1.374   4.953  1.00  0.00     0.012 A 
HETATM   21  C   UNL     1       2.837   0.610   2.655  1.00  0.00     0.013 A 
HETATM   22  C   UNL     1       2.719  -0.285   3.724  1.00  0.00     0.001 A 
HETATM   23  C   UNL     1       2.052   0.097   4.875  1.00  0.00     0.001 A 
BRANCH  15  24
HETATM   24  O   UNL     1       1.936   5.073   0.782  1.00  0.00    -0.355 OA
HETATM   25  C   UNL     1       1.784   6.455   1.090  1.00  0.00     0.210 C 
ENDBRANCH  15  24
ENDBRANCH   8  14
BRANCH  12  26
HETATM   26  N   UNL     1       6.455   0.838  -0.155  1.00  0.00    -0.282 NA
HETATM   27  H   UNL     1       7.106   1.605  -0.004  1.00  0.00     0.126 HD
HETATM   28  H   UNL     1       6.713   0.243  -0.939  1.00  0.00     0.126 HD
ENDBRANCH  12  26
TORSDOF 3
