REMARK  5 active torsions:
REMARK  status: ('A' for Active; 'I' for Inactive)
REMARK    1  A    between atoms: C_2  and  N_3 
REMARK    2  A    between atoms: C_6  and  N_7 
REMARK       I    between atoms: N_7  and  C_8 
REMARK       I    between atoms: C_8  and  N_9 
REMARK    3  A    between atoms: N_9  and  C_10 
REMARK    4  A    between atoms: C_10  and  C_11 
REMARK    5  A    between atoms: C_12  and  C_13 
ROOT
HETATM    1  N   UNL     1       4.325  -0.820  -4.359  1.00  0.00    -0.306 N 
HETATM    2  C   UNL     1       4.641  -0.453  -5.627  1.00  0.00     0.321 C 
HETATM    3  N   UNL     1       4.311   0.801  -6.043  1.00  0.00    -0.339 N 
HETATM    4  O   UNL     1       5.198  -1.274  -6.354  1.00  0.00    -0.247 OA
HETATM    5  H   UNL     1       4.538  -1.794  -4.185  1.00  0.00     0.171 HD
HETATM    6  H   UNL     1       3.463   1.165  -5.635  1.00  0.00     0.164 HD
ENDROOT
BRANCH   3   7
HETATM    7  C   UNL     1       4.543   1.178  -7.424  1.00  0.00     0.163 C 
BRANCH   7   8
HETATM    8  C   UNL     1       4.948   2.627  -7.625  1.00  0.00    -0.022 A 
HETATM    9  C   UNL     1       5.035   3.168  -8.937  1.00  0.00     0.056 A 
HETATM   10  C   UNL     1       5.476   4.496  -9.115  1.00  0.00     0.020 A 
HETATM   11  C   UNL     1       5.828   5.283  -8.021  1.00  0.00     0.043 A 
HETATM   12  C   UNL     1       5.748   4.748  -6.745  1.00  0.00     0.117 A 
HETATM   13  F   UNL     1       6.099   5.499  -5.693  1.00  0.00    -0.206 F 
HETATM   14  C   UNL     1       5.322   3.439  -6.539  1.00  0.00     0.052 A 
BRANCH   9  15
HETATM   15  C   UNL     1       4.699   2.338 -10.163  1.00  0.00     0.418 C 
HETATM   16  F   UNL     1       3.442   1.817 -10.115  1.00  0.00    -0.166 F 
HETATM   17  F   UNL     1       4.760   3.039 -11.330  1.00  0.00    -0.166 F 
HETATM   18  F   UNL     1       5.541   1.281 -10.320  1.00  0.00    -0.166 F 
ENDBRANCH   9  15
ENDBRANCH   7   8
ENDBRANCH   3   7
BRANCH   1  19
HETATM   19  C   UNL     1       3.839  -0.103  -3.286  1.00  0.00     0.072 A 
HETATM   20  C   UNL     1       3.576   1.263  -3.061  1.00  0.00     0.169 A 
HETATM   21  N   UNL     1       3.083   1.498  -1.840  1.00  0.00    -0.183 NA
HETATM   22  N   UNL     1       3.059   0.281  -1.264  1.00  0.00    -0.275 N 
HETATM   23  C   UNL     1       3.521  -0.706  -2.090  1.00  0.00     0.143 A 
BRANCH  22  24
HETATM   24  C   UNL     1       2.583   0.138   0.108  1.00  0.00     0.101 C 
HETATM   25  C   UNL     1       3.727  -0.225   1.054  1.00  0.00     0.034 C 
HETATM   26  C   UNL     1       1.438  -0.871   0.210  1.00  0.00     0.034 C 
ENDBRANCH  22  24
ENDBRANCH   1  19
TORSDOF 5
