REMARK  5 active torsions:
REMARK  status: ('A' for Active; 'I' for Inactive)
REMARK    1  A    between atoms: O_2  and  C_3 
REMARK    2  A    between atoms: C_6  and  C_7 
REMARK    3  A    between atoms: C_12  and  C_13 
REMARK    4  A    between atoms: N_14  and  N_15 
REMARK       I    between atoms: N_15  and  C_16 
REMARK    5  A    between atoms: C_16  and  C_17 
ROOT
HETATM    1  C   UNL     1       3.640  -6.376   0.340  1.00  0.00     0.154 C 
HETATM    2  N   UNL     1       3.098  -5.700   1.305  1.00  0.00    -0.183 NA
ENDROOT
BRANCH   1   3
HETATM    3  C   UNL     1       4.799  -6.023  -0.449  1.00  0.00     0.031 A 
HETATM    4  C   UNL     1       5.204  -4.814  -1.104  1.00  0.00     0.100 A 
HETATM    5  N   UNL     1       6.406  -4.979  -1.686  1.00  0.00    -0.174 NA
HETATM    6  N   UNL     1       6.709  -6.267  -1.502  1.00  0.00    -0.288 N 
HETATM    7  H   UNL     1       7.574  -6.619  -1.901  1.00  0.00     0.188 HD
HETATM    8  C   UNL     1       5.781  -6.939  -0.774  1.00  0.00     0.124 A 
BRANCH   4   9
HETATM    9  C   UNL     1       4.528  -3.514  -1.203  1.00  0.00    -0.005 A 
HETATM   10  C   UNL     1       3.134  -3.405  -1.217  1.00  0.00     0.016 A 
HETATM   11  C   UNL     1       2.521  -2.148  -1.272  1.00  0.00     0.037 A 
HETATM   12  C   UNL     1       3.284  -0.981  -1.327  1.00  0.00     0.068 A 
HETATM   13  C   UNL     1       4.673  -1.079  -1.343  1.00  0.00     0.037 A 
HETATM   14  C   UNL     1       5.288  -2.336  -1.284  1.00  0.00     0.016 A 
BRANCH  12  15
HETATM   15  O   UNL     1       2.560   0.177  -1.371  1.00  0.00    -0.356 OA
HETATM   16  C   UNL     1       3.291   1.395  -1.303  1.00  0.00     0.210 C 
ENDBRANCH  12  15
ENDBRANCH   4   9
ENDBRANCH   1   3
BRANCH   2  17
HETATM   17  N   UNL     1       3.659  -4.538   1.745  1.00  0.00    -0.243 N 
HETATM   18  C   UNL     1       2.974  -3.769   2.677  1.00  0.00     0.271 C 
HETATM   19  O   UNL     1       1.907  -4.106   3.187  1.00  0.00    -0.266 OA
HETATM   20  H   UNL     1       4.546  -4.251   1.361  1.00  0.00     0.192 HD
BRANCH  18  21
HETATM   21  C   UNL     1       3.576  -2.451   3.062  1.00  0.00     0.036 A 
HETATM   22  C   UNL     1       2.852  -1.660   3.974  1.00  0.00     0.057 A 
HETATM   23  C   UNL     1       3.366  -0.432   4.332  1.00  0.00     0.106 A 
HETATM   24  C   UNL     1       4.555   0.030   3.826  1.00  0.00     0.105 A 
HETATM   25  O   UNL     1       2.791   0.450   5.193  1.00  0.00    -0.323 OA
HETATM   26  O   UNL     1       4.880   1.262   4.301  1.00  0.00    -0.323 OA
HETATM   27  C   UNL     1       5.298  -0.713   2.937  1.00  0.00     0.041 A 
HETATM   28  C   UNL     1       3.753   1.524   5.165  1.00  0.00     0.352 A 
HETATM   29  C   UNL     1       4.804  -1.967   2.553  1.00  0.00     0.020 A 
ENDBRANCH  18  21
ENDBRANCH   2  17
TORSDOF 5
