REMARK  3 active torsions:
REMARK  status: ('A' for Active; 'I' for Inactive)
REMARK    1  A    between atoms: C_3  and  N_4 
REMARK       I    between atoms: N_4  and  C_5 
REMARK    2  A    between atoms: C_5  and  C_6 
REMARK    3  A    between atoms: C_6  and  C_7 
ROOT
HETATM    1  C   UNL     1       5.350   2.619  -0.066  1.00  0.00     0.286 C 
HETATM    2  N   UNL     1       4.603   1.340   0.310  1.00  0.00    -0.056 N 
HETATM    3  H   UNL     1       5.277   0.690   0.731  1.00  0.00     0.278 HD
HETATM    4  H   UNL     1       3.950   1.590   1.083  1.00  0.00     0.278 HD
HETATM    5  C   UNL     1       3.870   0.687  -0.833  1.00  0.00     0.209 C 
HETATM    6  C   UNL     1       4.866   0.432  -1.996  1.00  0.00     0.115 C 
HETATM    7  N   UNL     1       5.665   1.615  -2.315  1.00  0.00    -0.353 N 
HETATM    8  C   UNL     1       6.147   2.487  -1.371  1.00  0.00     0.249 C 
HETATM    9  O   UNL     1       7.097   3.217  -1.628  1.00  0.00    -0.271 OA
HETATM   10  C   UNL     1       3.192  -0.593  -0.339  1.00  0.00     0.035 C 
HETATM   11  C   UNL     1       4.162  -1.748  -0.097  1.00  0.00     0.002 C 
HETATM   12  C   UNL     1       5.042  -2.003  -1.315  1.00  0.00     0.002 C 
HETATM   13  C   UNL     1       5.807  -0.748  -1.715  1.00  0.00     0.027 C 
HETATM   14  H   UNL     1       6.224   1.597  -3.167  1.00  0.00     0.163 HD
ENDROOT
BRANCH   1  15
HETATM   15  C   UNL     1       4.404   3.815  -0.224  1.00  0.00     0.146 C 
BRANCH  15  16
HETATM   16  C   UNL     1       3.626   4.081   1.041  1.00  0.00     0.224 C 
HETATM   17  N   UNL     1       3.091   5.348   1.066  1.00  0.00    -0.327 N 
HETATM   18  H   UNL     1       3.070   5.842   0.179  1.00  0.00     0.169 HD
HETATM   19  O   UNL     1       3.459   3.162   1.838  1.00  0.00    -0.273 OA
BRANCH  17  20
HETATM   20  C   UNL     1       2.324   5.969   2.080  1.00  0.00     0.040 A 
HETATM   21  C   UNL     1       2.401   5.721   3.461  1.00  0.00    -0.035 A 
HETATM   22  C   UNL     1       3.397   4.810   4.120  1.00  0.00     0.050 C 
HETATM   23  C   UNL     1       1.520   6.412   4.322  1.00  0.00     0.009 A 
HETATM   24  C   UNL     1       0.627   7.367   3.841  1.00  0.00     0.001 A 
HETATM   25  C   UNL     1       0.600   7.658   2.486  1.00  0.00     0.002 A 
HETATM   26  C   UNL     1       1.446   6.969   1.617  1.00  0.00     0.030 A 
ENDBRANCH  17  20
ENDBRANCH  15  16
ENDBRANCH   1  15
TORSDOF 3
