REMARK  6 active torsions:
REMARK  status: ('A' for Active; 'I' for Inactive)
REMARK    1  A    between atoms: C_9  and  C_10 
REMARK       I    between atoms: C_10  and  N_11 
REMARK    2  A    between atoms: N_11  and  C_12 
REMARK    3  A    between atoms: C_12  and  C_13 
REMARK    4  A    between atoms: C_13  and  O_14 
REMARK    5  A    between atoms: C_13  and  C_15 
REMARK    6  A    between atoms: C_18  and  O_19 
ROOT
HETATM    1  C   UNL     1       1.930  -0.879  -2.999  1.00  0.00     0.258 C 
HETATM    2  N   UNL     1       2.658  -1.764  -3.762  1.00  0.00    -0.350 N 
HETATM    3  O   UNL     1       1.839  -0.978  -1.780  1.00  0.00    -0.267 OA
HETATM    4  H   UNL     1       2.592  -1.678  -4.776  1.00  0.00     0.163 HD
ENDROOT
BRANCH   2   5
HETATM    5  C   UNL     1       3.303  -2.947  -3.190  1.00  0.00     0.114 C 
HETATM    6  C   UNL     1       2.262  -4.058  -3.025  1.00  0.00     0.035 C 
BRANCH   5   7
HETATM    7  C   UNL     1       4.529  -3.365  -4.051  1.00  0.00     0.173 C 
BRANCH   7   8
HETATM    8  O   UNL     1       4.128  -4.089  -5.218  1.00  0.00    -0.389 OA
HETATM    9  H   UNL     1       4.924  -4.532  -5.560  1.00  0.00     0.210 HD
ENDBRANCH   7   8
BRANCH   7  10
HETATM   10  C   UNL     1       5.573  -4.141  -3.268  1.00  0.00    -0.028 A 
HETATM   11  C   UNL     1       6.675  -3.464  -2.728  1.00  0.00     0.012 A 
HETATM   12  C   UNL     1       7.631  -4.150  -1.975  1.00  0.00     0.037 A 
HETATM   13  C   UNL     1       7.501  -5.518  -1.734  1.00  0.00     0.068 A 
HETATM   14  C   UNL     1       6.413  -6.202  -2.274  1.00  0.00     0.037 A 
HETATM   15  C   UNL     1       5.458  -5.519  -3.037  1.00  0.00     0.012 A 
BRANCH  13  16
HETATM   16  O   UNL     1       8.497  -6.061  -0.970  1.00  0.00    -0.356 OA
HETATM   17  C   UNL     1       8.311  -7.401  -0.535  1.00  0.00     0.210 C 
ENDBRANCH  13  16
ENDBRANCH   7  10
ENDBRANCH   5   7
ENDBRANCH   2   5
BRANCH   1  18
HETATM   18  C   UNL     1       1.273   0.188  -3.738  1.00  0.00     0.105 A 
HETATM   19  C   UNL     1       1.345   0.461  -5.092  1.00  0.00     0.169 A 
HETATM   20  N   UNL     1       2.022  -0.160  -6.112  1.00  0.00    -0.233 NA
HETATM   21  N   UNL     1       0.547   1.592  -5.310  1.00  0.00    -0.219 N 
HETATM   22  C   UNL     1       1.882   0.351  -7.299  1.00  0.00     0.035 A 
HETATM   23  C   UNL     1       2.616  -0.285  -8.451  1.00  0.00     0.070 C 
HETATM   24  C   UNL     1       1.032   1.538  -7.627  1.00  0.00     0.053 A 
HETATM   25  C   UNL     1       0.398   2.126  -6.599  1.00  0.00     0.036 A 
HETATM   26  C   UNL     1      -0.481   3.326  -6.787  1.00  0.00     0.070 C 
HETATM   27  N   UNL     1      -0.016   2.033  -4.160  1.00  0.00    -0.170 NA
HETATM   28  C   UNL     1       0.410   1.187  -3.217  1.00  0.00     0.071 A 
HETATM   29  C   UNL     1      -0.035   1.364  -1.810  1.00  0.00     0.073 C 
ENDBRANCH   1  18
TORSDOF 6
