REMARK  9 active torsions:
REMARK  status: ('A' for Active; 'I' for Inactive)
REMARK    1  A    between atoms: N_2  and  C_4 
REMARK    2  A    between atoms: N_2  and  C_10 
REMARK    3  A    between atoms: C_10  and  C_11 
REMARK    4  A    between atoms: N_12  and  C_13 
REMARK    5  A    between atoms: C_17  and  N_18 
REMARK    6  A    between atoms: C_21  and  C_22 
REMARK       I    between atoms: C_22  and  N_23 
REMARK    7  A    between atoms: N_23  and  N_24 
REMARK    8  A    between atoms: C_25  and  C_26 
REMARK    9  A    between atoms: C_27  and  O_28 
ROOT
HETATM    1  C   UNL     1       4.525   1.104  -1.099  1.00  0.00     0.102 A 
HETATM    2  N   UNL     1       5.433   1.912  -0.397  1.00  0.00    -0.191 N 
HETATM    3  N   UNL     1       6.695   1.583  -0.783  1.00  0.00    -0.058 NA
HETATM    4  N   UNL     1       6.638   0.717  -1.776  1.00  0.00    -0.124 NA
HETATM    5  C   UNL     1       5.327   0.423  -2.011  1.00  0.00     0.176 A 
ENDROOT
BRANCH   5   6
HETATM    6  C   UNL     1       4.917  -0.497  -3.061  1.00  0.00     0.294 C 
HETATM    7  N   UNL     1       5.960  -1.043  -3.786  1.00  0.00    -0.242 N 
HETATM    8  H   UNL     1       6.922  -0.777  -3.583  1.00  0.00     0.192 HD
HETATM    9  O   UNL     1       3.728  -0.761  -3.233  1.00  0.00    -0.264 OA
BRANCH   7  10
HETATM   10  N   UNL     1       5.687  -1.990  -4.723  1.00  0.00    -0.183 NA
HETATM   11  C   UNL     1       6.705  -2.479  -5.360  1.00  0.00     0.153 C 
BRANCH  11  12
HETATM   12  C   UNL     1       6.516  -3.533  -6.380  1.00  0.00     0.018 A 
HETATM   13  C   UNL     1       5.251  -4.052  -6.689  1.00  0.00     0.077 A 
HETATM   14  C   UNL     1       5.116  -5.056  -7.644  1.00  0.00     0.039 A 
HETATM   15  C   UNL     1       6.246  -5.547  -8.299  1.00  0.00     0.026 A 
HETATM   16  C   UNL     1       7.504  -5.028  -7.993  1.00  0.00     0.035 A 
HETATM   17 CL   UNL     1       8.896  -5.636  -8.801  1.00  0.00    -0.084 Cl
HETATM   18  C   UNL     1       7.649  -4.023  -7.036  1.00  0.00     0.039 A 
BRANCH  13  19
HETATM   19  O   UNL     1       4.097  -3.625  -6.090  1.00  0.00    -0.360 OA
HETATM   20  H   UNL     1       4.332  -2.905  -5.465  1.00  0.00     0.217 HD
ENDBRANCH  13  19
ENDBRANCH  11  12
ENDBRANCH   7  10
ENDBRANCH   5   6
BRANCH   1  21
HETATM   21  C   UNL     1       3.051   1.154  -0.871  1.00  0.00     0.296 C 
BRANCH  21  22
HETATM   22  N   UNL     1       2.246  -0.077  -1.263  1.00  0.00    -0.065 N 
HETATM   23  C   UNL     1       2.598  -1.245  -0.365  1.00  0.00     0.270 C 
HETATM   24  H   UNL     1       2.554  -0.352  -2.217  1.00  0.00     0.280 HD
BRANCH  22  25
HETATM   25  C   UNL     1       0.727   0.171  -1.333  1.00  0.00     0.188 C 
HETATM   26  C   UNL     1       0.357   1.233  -2.386  1.00  0.00     0.033 C 
HETATM   27  C   UNL     1       0.622   0.782  -3.822  1.00  0.00     0.002 C 
HETATM   28  C   UNL     1      -0.071  -0.541  -4.135  1.00  0.00     0.000 C 
HETATM   29  C   UNL     1       0.225  -1.618  -3.095  1.00  0.00     0.002 C 
HETATM   30  C   UNL     1      -0.044  -1.120  -1.675  1.00  0.00     0.033 C 
ENDBRANCH  22  25
ENDBRANCH  21  22
ENDBRANCH   1  21
BRANCH   2  31
HETATM   31  C   UNL     1       5.185   2.935   0.552  1.00  0.00     0.229 A 
HETATM   32  N   UNL     1       3.933   3.303   0.832  1.00  0.00    -0.081 NA
HETATM   33  O   UNL     1       4.088   4.323   1.775  1.00  0.00    -0.103 OA
HETATM   34  N   UNL     1       5.429   4.553   2.048  1.00  0.00    -0.083 NA
HETATM   35  C   UNL     1       6.109   3.698   1.287  1.00  0.00     0.201 A 
BRANCH  35  36
HETATM   36  N   UNL     1       7.449   3.602   1.263  1.00  0.00    -0.379 N 
HETATM   37  H   UNL     1       8.011   4.294   1.751  1.00  0.00     0.158 HD
HETATM   38  H   UNL     1       7.958   3.058   0.570  1.00  0.00     0.158 HD
ENDBRANCH  35  36
ENDBRANCH   2  31
TORSDOF 9
