REMARK  8 active torsions:
REMARK  status: ('A' for Active; 'I' for Inactive)
REMARK    1  A    between atoms: C_4  and  O_5 
REMARK    2  A    between atoms: O_5  and  C_6 
REMARK    3  A    between atoms: C_6  and  C_7 
REMARK    4  A    between atoms: C_7  and  N_8 
REMARK    5  A    between atoms: N_8  and  C_9 
REMARK    6  A    between atoms: C_10  and  C_11 
REMARK       I    between atoms: C_11  and  N_12 
REMARK    7  A    between atoms: N_12  and  C_13 
REMARK    8  A    between atoms: C_13  and  C_14 
ROOT
HETATM    1  C   UNL     1       7.224  -1.361  -0.733  1.00  0.00     0.024 A 
HETATM    2  C   UNL     1       8.058  -0.230  -0.587  1.00  0.00     0.053 A 
HETATM    3  C   UNL     1       9.457  -0.385  -0.581  1.00  0.00     0.019 A 
HETATM    4  C   UNL     1      10.037  -1.647  -0.688  1.00  0.00     0.001 A 
HETATM    5  C   UNL     1       9.225  -2.770  -0.799  1.00  0.00     0.002 A 
HETATM    6  C   UNL     1       7.835  -2.627  -0.824  1.00  0.00     0.024 A 
ENDROOT
BRANCH   1   7
HETATM    7  N   UNL     1       5.817  -1.302  -0.869  1.00  0.00    -0.290 NA
HETATM    8  H   UNL     1       5.399  -2.228  -0.781  1.00  0.00     0.127 HD
BRANCH   7   9
HETATM    9  C   UNL     1       5.326  -0.629  -2.091  1.00  0.00     0.119 C 
BRANCH   9  10
HETATM   10  C   UNL     1       5.797  -1.292  -3.393  1.00  0.00     0.190 C 
BRANCH  10  11
HETATM   11  O   UNL     1       5.143  -0.718  -4.527  1.00  0.00    -0.350 OA
BRANCH  11  12
HETATM   12  C   UNL     1       5.755   0.330  -5.159  1.00  0.00     0.068 A 
HETATM   13  C   UNL     1       6.807   1.097  -4.658  1.00  0.00     0.037 A 
HETATM   14  C   UNL     1       7.327   2.154  -5.412  1.00  0.00     0.003 A 
HETATM   15  C   UNL     1       6.801   2.448  -6.669  1.00  0.00     0.000 A 
HETATM   16  C   UNL     1       5.748   1.690  -7.171  1.00  0.00     0.003 A 
HETATM   17  C   UNL     1       5.225   0.639  -6.415  1.00  0.00     0.037 A 
ENDBRANCH  11  12
ENDBRANCH  10  11
ENDBRANCH   9  10
ENDBRANCH   7   9
ENDBRANCH   1   7
BRANCH   2  18
HETATM   18  C   UNL     1       7.561   1.160  -0.366  1.00  0.00     0.253 C 
HETATM   19  N   UNL     1       6.357   1.278   0.279  1.00  0.00    -0.351 N 
HETATM   20  H   UNL     1       5.866   0.429   0.549  1.00  0.00     0.163 HD
HETATM   21  O   UNL     1       8.232   2.124  -0.718  1.00  0.00    -0.268 OA
BRANCH  19  22
HETATM   22  C   UNL     1       5.824   2.558   0.668  1.00  0.00     0.187 C 
BRANCH  22  23
HETATM   23  C   UNL     1       4.400   2.391   1.043  1.00  0.00     0.070 A 
HETATM   24  O   UNL     1       4.147   1.786   2.241  1.00  0.00    -0.325 OA
HETATM   25  C   UNL     1       2.798   1.736   2.383  1.00  0.00     0.142 A 
HETATM   26  C   UNL     1       2.178   2.296   1.291  1.00  0.00     0.027 A 
HETATM   27  C   UNL     1       3.212   2.718   0.422  1.00  0.00     0.036 A 
ENDBRANCH  22  23
ENDBRANCH  19  22
ENDBRANCH   2  18
TORSDOF 8
