REMARK  6 active torsions:
REMARK  status: ('A' for Active; 'I' for Inactive)
REMARK    1  A    between atoms: O_2  and  C_3 
REMARK    2  A    between atoms: C_6  and  C_7 
REMARK    3  A    between atoms: C_11  and  C_12 
REMARK       I    between atoms: C_12  and  N_13 
REMARK    4  A    between atoms: N_13  and  N_14 
REMARK       I    between atoms: N_14  and  C_15 
REMARK    5  A    between atoms: C_15  and  C_16 
REMARK    6  A    between atoms: C_17  and  C_18 
ROOT
HETATM    1  C   UNL     1       7.991   7.001  -1.740  1.00  0.00     0.288 C 
HETATM    2  N   UNL     1       9.087   6.227  -2.050  1.00  0.00    -0.262 N 
HETATM    3  O   UNL     1       7.992   8.223  -1.881  1.00  0.00    -0.264 OA
HETATM    4  H   UNL     1       9.142   5.228  -1.867  1.00  0.00     0.190 HD
ENDROOT
BRANCH   1   5
HETATM    5  C   UNL     1       6.852   6.281  -1.240  1.00  0.00     0.121 A 
HETATM    6  N   UNL     1       5.683   6.910  -0.920  1.00  0.00    -0.272 N 
HETATM    7  N   UNL     1       4.716   6.089  -0.484  1.00  0.00    -0.174 NA
HETATM    8  H   UNL     1       5.487   7.905  -0.988  1.00  0.00     0.189 HD
HETATM    9  C   UNL     1       5.277   4.869  -0.491  1.00  0.00     0.089 A 
HETATM   10  C   UNL     1       6.617   4.948  -0.966  1.00  0.00     0.071 A 
BRANCH   9  11
HETATM   11  C   UNL     1       4.539   3.675  -0.069  1.00  0.00    -0.005 A 
HETATM   12  C   UNL     1       3.137   3.672  -0.056  1.00  0.00     0.016 A 
HETATM   13  C   UNL     1       2.420   2.528   0.320  1.00  0.00     0.037 A 
HETATM   14  C   UNL     1       3.097   1.369   0.693  1.00  0.00     0.068 A 
HETATM   15  C   UNL     1       4.493   1.370   0.701  1.00  0.00     0.037 A 
HETATM   16  C   UNL     1       5.210   2.510   0.322  1.00  0.00     0.016 A 
BRANCH  14  17
HETATM   17  O   UNL     1       2.524   0.187   1.074  1.00  0.00    -0.356 OA
HETATM   18  C   UNL     1       1.109   0.096   0.960  1.00  0.00     0.210 C 
ENDBRANCH  14  17
ENDBRANCH   9  11
ENDBRANCH   1   5
BRANCH   2  19
HETATM   19  N   UNL     1      10.284   6.851  -2.411  1.00  0.00    -0.267 N 
HETATM   20  C   UNL     1      11.434   6.094  -2.423  1.00  0.00     0.240 C 
HETATM   21  O   UNL     1      11.437   4.898  -2.145  1.00  0.00    -0.271 OA
HETATM   22  H   UNL     1      10.241   7.837  -2.651  1.00  0.00     0.190 HD
BRANCH  20  23
HETATM   23  C   UNL     1      12.715   6.778  -2.748  1.00  0.00     0.089 A 
HETATM   24  C   UNL     1      12.914   7.731  -3.914  1.00  0.00     0.034 A 
HETATM   25  C   UNL     1      12.941   8.245  -2.493  1.00  0.00     0.025 A 
BRANCH  24  26
HETATM   26  C   UNL     1      11.794   8.091  -4.871  1.00  0.00    -0.031 A 
HETATM   27  C   UNL     1      11.297   7.187  -5.833  1.00  0.00     0.040 A 
HETATM   28 CL   UNL     1      11.957   5.594  -5.978  1.00  0.00    -0.084 Cl
HETATM   29  C   UNL     1      10.267   7.542  -6.711  1.00  0.00     0.024 A 
HETATM   30  C   UNL     1       9.714   8.818  -6.658  1.00  0.00     0.002 A 
HETATM   31  C   UNL     1      10.198   9.740  -5.737  1.00  0.00     0.001 A 
HETATM   32  C   UNL     1      11.229   9.382  -4.863  1.00  0.00     0.009 A 
ENDBRANCH  24  26
ENDBRANCH  20  23
ENDBRANCH   2  19
TORSDOF 6
