REMARK  7 active torsions:
REMARK  status: ('A' for Active; 'I' for Inactive)
REMARK    1  A    between atoms: C_2  and  O_3 
REMARK    2  A    between atoms: O_3  and  C_4 
REMARK    3  A    between atoms: C_7  and  N_8 
REMARK    4  A    between atoms: C_9  and  C_11 
REMARK    5  A    between atoms: C_9  and  O_10 
REMARK       I    between atoms: C_11  and  N_12 
REMARK    6  A    between atoms: N_12  and  C_13 
REMARK    7  A    between atoms: C_13  and  C_14 
ROOT
HETATM    1  N   UNL     1       8.084   1.035  -3.312  1.00  0.00    -0.254 N 
HETATM    2  C   UNL     1       8.958   2.211  -3.496  1.00  0.00     0.256 C 
HETATM    3  C   UNL     1       9.879   2.089  -4.696  1.00  0.00     0.034 A 
HETATM    4  C   UNL     1      10.178   0.814  -5.165  1.00  0.00     0.048 A 
HETATM    5  N   UNL     1       9.572  -0.282  -4.566  1.00  0.00    -0.308 N 
HETATM    6  C   UNL     1       8.550  -0.224  -3.665  1.00  0.00     0.330 C 
HETATM    7  O   UNL     1       8.068  -1.291  -3.283  1.00  0.00    -0.246 OA
HETATM    8  C   UNL     1      10.522   3.185  -5.299  1.00  0.00     0.015 A 
HETATM    9  C   UNL     1      11.406   2.997  -6.365  1.00  0.00     0.001 A 
HETATM   10  C   UNL     1      11.682   1.712  -6.824  1.00  0.00     0.002 A 
HETATM   11  C   UNL     1      11.075   0.615  -6.217  1.00  0.00     0.030 A 
HETATM   12  H   UNL     1       9.811  -1.218  -4.865  1.00  0.00     0.170 HD
ENDROOT
BRANCH   2  13
HETATM   13  C   UNL     1       8.181   3.595  -3.556  1.00  0.00     0.279 C 
HETATM   14  N   UNL     1       8.405   4.405  -2.453  1.00  0.00    -0.352 N 
HETATM   15  H   UNL     1       9.216   4.177  -1.885  1.00  0.00     0.162 HD
HETATM   16  O   UNL     1       7.430   3.932  -4.470  1.00  0.00    -0.268 OA
BRANCH  14  17
HETATM   17  C   UNL     1       7.835   5.725  -2.365  1.00  0.00     0.161 C 
BRANCH  17  18
HETATM   18  C   UNL     1       8.069   6.313  -1.000  1.00  0.00    -0.040 A 
HETATM   19  C   UNL     1       9.132   7.202  -0.776  1.00  0.00     0.012 A 
HETATM   20  C   UNL     1       9.358   7.725   0.499  1.00  0.00     0.043 A 
HETATM   21  C   UNL     1       8.526   7.355   1.549  1.00  0.00     0.116 A 
HETATM   22  F   UNL     1       8.744   7.858   2.771  1.00  0.00    -0.206 F 
HETATM   23  C   UNL     1       7.475   6.468   1.351  1.00  0.00     0.043 A 
HETATM   24  C   UNL     1       7.247   5.942   0.079  1.00  0.00     0.012 A 
ENDBRANCH  17  18
ENDBRANCH  14  17
ENDBRANCH   2  13
BRANCH   2  25
HETATM   25  O   UNL     1       9.834   2.244  -2.351  1.00  0.00    -0.359 OA
HETATM   26  H   UNL     1       9.289   1.889  -1.630  1.00  0.00     0.213 HD
ENDBRANCH   2  25
BRANCH   1  27
HETATM   27  C   UNL     1       6.988   1.123  -2.396  1.00  0.00     0.043 A 
HETATM   28  C   UNL     1       6.995   0.413  -1.188  1.00  0.00     0.032 A 
HETATM   29  C   UNL     1       5.912   0.490  -0.302  1.00  0.00     0.039 A 
HETATM   30  C   UNL     1       4.797   1.261  -0.624  1.00  0.00     0.068 A 
HETATM   31  C   UNL     1       4.780   1.957  -1.833  1.00  0.00     0.039 A 
HETATM   32  C   UNL     1       5.858   1.879  -2.718  1.00  0.00     0.032 A 
BRANCH  30  33
HETATM   33  O   UNL     1       3.673   1.413   0.138  1.00  0.00    -0.352 OA
BRANCH  33  34
HETATM   34  C   UNL     1       3.533   0.551   1.265  1.00  0.00     0.171 C 
HETATM   35  C   UNL     1       2.148   0.768   1.847  1.00  0.00     0.034 C 
ENDBRANCH  33  34
ENDBRANCH  30  33
ENDBRANCH   1  27
TORSDOF 7
