REMARK  4 active torsions:
REMARK  status: ('A' for Active; 'I' for Inactive)
REMARK    1  A    between atoms: C_4  and  C_5 
REMARK    2  A    between atoms: C_5  and  N_6 
REMARK    3  A    between atoms: C_10  and  C_11 
REMARK    4  A    between atoms: C_15  and  N_16 
ROOT
HETATM    1  N   UNL     1       3.476  -0.987  -0.324  1.00  0.00    -0.064 N 
HETATM    2  H   UNL     1       4.389  -1.068   0.137  1.00  0.00     0.280 HD
HETATM    3  C   UNL     1       2.595  -2.037   0.307  1.00  0.00     0.263 C 
HETATM    4  C   UNL     1       2.820  -3.412  -0.228  1.00  0.00     0.008 C 
HETATM    5  C   UNL     1       3.599  -3.699  -1.286  1.00  0.00    -0.046 C 
HETATM    6  C   UNL     1       4.333  -2.605  -2.021  1.00  0.00     0.067 C 
HETATM    7  C   UNL     1       3.684  -1.239  -1.798  1.00  0.00     0.240 C 
ENDROOT
BRANCH   5   8
HETATM    8  C   UNL     1       3.748  -5.016  -1.825  1.00  0.00    -0.002 A 
HETATM    9  C   UNL     1       4.073  -6.229  -1.137  1.00  0.00     0.003 A 
HETATM   10  C   UNL     1       4.045  -7.256  -2.085  1.00  0.00     0.045 A 
HETATM   11  C   UNL     1       4.389  -6.561   0.200  1.00  0.00     0.017 A 
HETATM   12  C   UNL     1       4.301  -8.598  -1.771  1.00  0.00     0.066 A 
HETATM   13  N   UNL     1       3.727  -6.687  -3.297  1.00  0.00    -0.364 N 
HETATM   14  C   UNL     1       4.601  -8.897  -0.433  1.00  0.00     0.105 A 
HETATM   15  C   UNL     1       4.650  -7.896   0.544  1.00  0.00     0.037 A 
HETATM   16  H   UNL     1       3.632  -7.200  -4.165  1.00  0.00     0.165 HD
HETATM   17  C   UNL     1       3.538  -5.338  -3.150  1.00  0.00     0.101 A 
BRANCH  14  18
HETATM   18  N   UNL     1       4.868 -10.293  -0.055  1.00  0.00    -0.116 N 
HETATM   19  O   UNL     1       4.830 -11.148  -0.950  1.00  0.00    -0.532 OA
HETATM   20  O   UNL     1       5.112 -10.528   1.137  1.00  0.00    -0.532 OA
ENDBRANCH  14  18
ENDBRANCH   5   8
BRANCH   1  21
HETATM   21  C   UNL     1       2.981   0.418  -0.073  1.00  0.00     0.273 C 
BRANCH  21  22
HETATM   22  C   UNL     1       3.025   0.823   1.374  1.00  0.00    -0.033 A 
HETATM   23  C   UNL     1       4.237   1.211   1.965  1.00  0.00     0.009 A 
HETATM   24  C   UNL     1       4.278   1.588   3.308  1.00  0.00     0.001 A 
HETATM   25  C   UNL     1       3.114   1.575   4.073  1.00  0.00     0.000 A 
HETATM   26  C   UNL     1       1.906   1.187   3.499  1.00  0.00     0.001 A 
HETATM   27  C   UNL     1       1.859   0.813   2.155  1.00  0.00     0.009 A 
ENDBRANCH  21  22
ENDBRANCH   1  21
TORSDOF 4
