REMARK  10 active torsions:
REMARK  status: ('A' for Active; 'I' for Inactive)
REMARK    1  A    between atoms: C_2  and  O_3 
REMARK    2  A    between atoms: O_3  and  C_4 
REMARK    3  A    between atoms: C_4  and  C_5 
REMARK    4  A    between atoms: C_6  and  C_7 
REMARK    5  A    between atoms: C_14  and  C_15 
REMARK    6  A    between atoms: C_15  and  C_16 
REMARK       I    between atoms: C_16  and  N_17 
REMARK    7  A    between atoms: N_17  and  C_18 
REMARK    8  A    between atoms: C_18  and  C_19 
REMARK    9  A    between atoms: C_19  and  N_20 
REMARK   10  A    between atoms: C_31  and  C_32 
ROOT
HETATM    1  C   UNL     1       5.230  -0.120   0.185  1.00  0.00     0.071 C 
HETATM    2  C   UNL     1       6.704  -0.471   0.507  1.00  0.00     0.150 C 
HETATM    3  N   UNL     1       7.703   0.510   0.191  1.00  0.00    -0.321 N 
HETATM    4  C   UNL     1       8.934   0.535  -0.201  1.00  0.00     0.011 C 
HETATM    5  C   UNL     1       7.273   1.789   0.874  1.00  0.00     0.170 C 
HETATM    6  S   UNL     1       8.573   2.915   1.024  1.00  0.00    -0.086 SA
HETATM    7  C   UNL     1       9.614   1.881  -0.059  1.00  0.00     0.135 C 
HETATM    8  N   UNL     1       6.099   1.938   1.356  1.00  0.00    -0.223 NA
HETATM    9  C   UNL     1       5.047   1.085   0.964  1.00  0.00     0.084 C 
ENDROOT
BRANCH   4  10
HETATM   10  C   UNL     1       9.663  -0.723  -0.577  1.00  0.00     0.156 C 
BRANCH  10  11
HETATM   11  C   UNL     1      10.675  -0.603  -1.704  1.00  0.00     0.223 C 
HETATM   12  N   UNL     1      11.360  -1.767  -1.944  1.00  0.00    -0.359 N 
HETATM   13  H   UNL     1      11.186  -2.554  -1.322  1.00  0.00     0.162 HD
HETATM   14  O   UNL     1      10.866   0.434  -2.329  1.00  0.00    -0.273 OA
BRANCH  12  15
HETATM   15  C   UNL     1      12.243  -2.092  -3.069  1.00  0.00     0.150 C 
BRANCH  15  16
HETATM   16  C   UNL     1      12.480  -1.072  -4.200  1.00  0.00     0.254 C 
BRANCH  16  17
HETATM   17  N   UNL     1      13.177   0.183  -3.738  1.00  0.00    -0.070 N 
HETATM   18  H   UNL     1      12.512   0.629  -3.079  1.00  0.00     0.279 HD
HETATM   19  C   UNL     1      13.411   1.183  -4.863  1.00  0.00     0.235 C 
HETATM   20  C   UNL     1      14.919   1.319  -4.948  1.00  0.00     0.029 C 
HETATM   21  C   UNL     1      15.360   1.141  -3.511  1.00  0.00     0.029 C 
HETATM   22  C   UNL     1      14.507  -0.021  -3.044  1.00  0.00     0.235 C 
ENDBRANCH  16  17
ENDBRANCH  15  16
ENDBRANCH  12  15
ENDBRANCH  10  11
ENDBRANCH   4  10
BRANCH   2  23
HETATM   23  C   UNL     1       6.300  -1.408  -0.486  1.00  0.00     0.037 C 
HETATM   24  C   UNL     1       5.808  -0.206  -1.797  1.00  0.00    -0.009 C 
HETATM   25  C   UNL     1       4.198   0.500  -1.640  1.00  0.00    -0.003 C 
HETATM   26  C   UNL     1       3.103  -0.002  -0.315  1.00  0.00    -0.001 C 
HETATM   27  C   UNL     1       3.541  -1.311   0.847  1.00  0.00    -0.003 C 
HETATM   28  C   UNL     1       5.107  -2.122   0.733  1.00  0.00    -0.009 C 
ENDBRANCH   2  23
BRANCH   1  29
HETATM   29  C   UNL     1       4.376  -1.583  -1.124  1.00  0.00     0.293 C 
HETATM   30  O   UNL     1       5.009  -2.438  -1.814  1.00  0.00    -0.259 OA
BRANCH  29  31
HETATM   31  O   UNL     1       2.972  -1.801  -1.375  1.00  0.00    -0.318 OA
BRANCH  31  32
HETATM   32  C   UNL     1       2.539  -2.811  -2.313  1.00  0.00     0.174 C 
HETATM   33  C   UNL     1       2.548  -2.247  -3.720  1.00  0.00     0.034 C 
ENDBRANCH  31  32
ENDBRANCH  29  31
ENDBRANCH   1  29
BRANCH   9  34
HETATM   34  C   UNL     1       3.805   1.827   1.383  1.00  0.00    -0.006 A 
HETATM   35  C   UNL     1       3.122   1.458   2.552  1.00  0.00     0.014 A 
HETATM   36  C   UNL     1       2.000   2.176   2.970  1.00  0.00     0.001 A 
HETATM   37  C   UNL     1       1.567   3.284   2.243  1.00  0.00     0.000 A 
HETATM   38  C   UNL     1       2.260   3.685   1.103  1.00  0.00     0.001 A 
HETATM   39  C   UNL     1       3.382   2.969   0.680  1.00  0.00     0.014 A 
ENDBRANCH   9  34
TORSDOF 10
