REMARK  7 active torsions:
REMARK  status: ('A' for Active; 'I' for Inactive)
REMARK    1  A    between atoms: O_2  and  C_3 
REMARK    2  A    between atoms: C_6  and  C_7 
REMARK       I    between atoms: C_7  and  N_8 
REMARK    3  A    between atoms: C_14  and  C_15 
REMARK       I    between atoms: C_15  and  N_16 
REMARK    4  A    between atoms: N_16  and  C_17 
REMARK    5  A    between atoms: C_17  and  C_18 
REMARK       I    between atoms: N_25  and  C_26 
REMARK    6  A    between atoms: C_26  and  C_27 
REMARK    7  A    between atoms: C_30  and  O_31 
ROOT
HETATM    1  C   UNL     1       5.330  -5.076  -0.714  1.00  0.00     0.253 C 
HETATM    2  N   UNL     1       6.731  -5.113  -0.790  1.00  0.00    -0.348 N 
HETATM    3  C   UNL     1       7.577  -3.956  -0.515  1.00  0.00     0.131 C 
HETATM    4  C   UNL     1       8.979  -4.342  -0.081  1.00  0.00     0.081 C 
HETATM    5  C   UNL     1       9.674  -5.339  -1.021  1.00  0.00     0.142 C 
HETATM    6  O   UNL     1      10.740  -5.927  -0.225  1.00  0.00    -0.358 OA
HETATM    7  C   UNL     1      11.990  -5.316  -0.552  1.00  0.00     0.206 C 
HETATM    8  C   UNL     1      11.741  -4.374  -1.712  1.00  0.00     0.206 C 
HETATM    9  N   UNL     1      10.387  -4.713  -2.141  1.00  0.00    -0.300 N 
HETATM   10  C   UNL     1       9.717  -4.102  -3.190  1.00  0.00     0.257 C 
HETATM   11  O   UNL     1       8.515  -4.211  -3.399  1.00  0.00    -0.267 OA
HETATM   12  C   UNL     1       8.749  -6.515  -1.353  1.00  0.00     0.081 C 
HETATM   13  C   UNL     1       7.292  -6.168  -1.630  1.00  0.00     0.131 C 
HETATM   14  O   UNL     1       4.617  -6.055  -0.938  1.00  0.00    -0.267 OA
ENDROOT
BRANCH   8  15
HETATM   15  C   UNL     1      12.913  -4.517  -2.686  1.00  0.00     0.243 C 
HETATM   16  N   UNL     1      12.847  -5.551  -3.590  1.00  0.00    -0.355 N 
HETATM   17  H   UNL     1      11.956  -6.009  -3.740  1.00  0.00     0.162 HD
HETATM   18  O   UNL     1      13.914  -3.811  -2.558  1.00  0.00    -0.271 OA
BRANCH  16  19
HETATM   19  C   UNL     1      13.848  -5.642  -4.631  1.00  0.00     0.161 C 
BRANCH  19  20
HETATM   20  C   UNL     1      13.913  -7.008  -5.254  1.00  0.00    -0.041 A 
HETATM   21  C   UNL     1      13.750  -7.169  -6.637  1.00  0.00     0.009 A 
HETATM   22  C   UNL     1      13.884  -8.429  -7.224  1.00  0.00     0.001 A 
HETATM   23  C   UNL     1      14.183  -9.539  -6.435  1.00  0.00     0.000 A 
HETATM   24  C   UNL     1      14.346  -9.391  -5.059  1.00  0.00     0.001 A 
HETATM   25  C   UNL     1      14.213  -8.133  -4.471  1.00  0.00     0.009 A 
ENDBRANCH  19  20
ENDBRANCH  16  19
ENDBRANCH   8  15
BRANCH  10  26
HETATM   26  C   UNL     1      10.462  -3.335  -4.207  1.00  0.00     0.032 A 
HETATM   27  C   UNL     1      10.448  -3.818  -5.519  1.00  0.00     0.020 A 
HETATM   28  C   UNL     1      11.100  -3.105  -6.524  1.00  0.00     0.038 A 
HETATM   29  C   UNL     1      11.755  -1.905  -6.233  1.00  0.00     0.068 A 
HETATM   30  C   UNL     1      11.745  -1.417  -4.924  1.00  0.00     0.038 A 
HETATM   31  C   UNL     1      11.085  -2.122  -3.911  1.00  0.00     0.020 A 
BRANCH  29  32
HETATM   32  O   UNL     1      12.350  -1.311  -7.310  1.00  0.00    -0.356 OA
HETATM   33  C   UNL     1      12.954  -0.042  -7.094  1.00  0.00     0.210 C 
ENDBRANCH  29  32
ENDBRANCH  10  26
BRANCH   1  34
HETATM   34  C   UNL     1       4.635  -3.817  -0.356  1.00  0.00     0.032 A 
HETATM   35  C   UNL     1       4.792  -2.663  -1.128  1.00  0.00     0.020 A 
HETATM   36  C   UNL     1       4.074  -1.509  -0.804  1.00  0.00     0.038 A 
HETATM   37  C   UNL     1       3.163  -1.512   0.256  1.00  0.00     0.068 A 
HETATM   38  C   UNL     1       2.993  -2.672   1.014  1.00  0.00     0.038 A 
HETATM   39  C   UNL     1       3.722  -3.827   0.703  1.00  0.00     0.020 A 
BRANCH  37  40
HETATM   40  O   UNL     1       2.510  -0.327   0.456  1.00  0.00    -0.356 OA
HETATM   41  C   UNL     1       1.295  -0.397   1.194  1.00  0.00     0.210 C 
ENDBRANCH  37  40
ENDBRANCH   1  34
TORSDOF 7
