REMARK  6 active torsions:
REMARK  status: ('A' for Active; 'I' for Inactive)
REMARK    1  A    between atoms: C_2  and  N_3 
REMARK    2  A    between atoms: C_2  and  C_16 
REMARK    3  A    between atoms: N_3  and  C_6 
REMARK    4  A    between atoms: C_16  and  C_17 
REMARK       I    between atoms: C_17  and  N_18 
REMARK    5  A    between atoms: N_18  and  C_19 
REMARK    6  A    between atoms: C_22  and  O_23 
ROOT
HETATM    1  C   UNL     1       1.868   2.367  -2.779  1.00  0.00     0.040 C 
HETATM    2  C   UNL     1       0.755   2.276  -1.746  1.00  0.00     0.191 C 
ENDROOT
BRANCH   2   3
HETATM    3  N   UNL     1       1.315   2.081  -0.348  1.00  0.00    -0.063 N 
HETATM    4  H   UNL     1       0.468   2.032   0.253  1.00  0.00     0.278 HD
HETATM    5  H   UNL     1       1.747   1.154  -0.261  1.00  0.00     0.278 HD
BRANCH   3   6
HETATM    6  C   UNL     1       2.210   3.113   0.311  1.00  0.00     0.221 C 
HETATM    7  C   UNL     1       1.791   4.551   0.106  1.00  0.00    -0.011 A 
HETATM    8  C   UNL     1       2.701   5.555  -0.267  1.00  0.00     0.009 A 
HETATM    9  C   UNL     1       0.456   4.927   0.376  1.00  0.00     0.011 A 
HETATM   10  C   UNL     1       2.259   6.875  -0.434  1.00  0.00     0.019 A 
HETATM   11  S   UNL     1       4.438   5.255  -0.523  1.00  0.00    -0.129 SA
HETATM   12  C   UNL     1       0.930   7.219  -0.197  1.00  0.00     0.001 A 
HETATM   13  C   UNL     1       0.030   6.246   0.217  1.00  0.00     0.001 A 
HETATM   14  C   UNL     1       4.647   3.781   0.502  1.00  0.00     0.082 C 
HETATM   15  C   UNL     1       3.669   2.726   0.023  1.00  0.00     0.048 C 
ENDBRANCH   3   6
ENDBRANCH   2   3
BRANCH   2  16
HETATM   16  C   UNL     1      -0.179   1.090  -2.079  1.00  0.00     0.135 C 
BRANCH  16  17
HETATM   17  C   UNL     1      -1.307   0.982  -1.083  1.00  0.00     0.224 C 
HETATM   18  N   UNL     1      -2.312   0.079  -1.204  1.00  0.00    -0.327 N 
HETATM   19  H   UNL     1      -2.986   0.181  -0.448  1.00  0.00     0.169 HD
HETATM   20  O   UNL     1      -1.277   1.701  -0.074  1.00  0.00    -0.273 OA
BRANCH  18  21
HETATM   21  C   UNL     1      -2.564  -1.005  -2.068  1.00  0.00     0.034 A 
HETATM   22  C   UNL     1      -1.774  -1.400  -3.143  1.00  0.00     0.032 A 
HETATM   23  C   UNL     1      -2.099  -2.549  -3.878  1.00  0.00     0.039 A 
HETATM   24  C   UNL     1      -3.213  -3.323  -3.555  1.00  0.00     0.068 A 
HETATM   25  C   UNL     1      -4.027  -2.919  -2.505  1.00  0.00     0.039 A 
HETATM   26  C   UNL     1      -3.704  -1.769  -1.771  1.00  0.00     0.032 A 
BRANCH  24  27
HETATM   27  O   UNL     1      -3.391  -4.429  -4.335  1.00  0.00    -0.356 OA
HETATM   28  C   UNL     1      -4.392  -5.353  -3.923  1.00  0.00     0.210 C 
ENDBRANCH  24  27
ENDBRANCH  18  21
ENDBRANCH  16  17
ENDBRANCH   2  16
TORSDOF 6
