REMARK  5 active torsions:
REMARK  status: ('A' for Active; 'I' for Inactive)
REMARK    1  A    between atoms: C_7  and  C_8 
REMARK    2  A    between atoms: C_11  and  N_12 
REMARK       I    between atoms: N_12  and  C_13 
REMARK    3  A    between atoms: C_13  and  C_14 
REMARK    4  A    between atoms: C_16  and  O_17 
REMARK    5  A    between atoms: C_20  and  O_21 
ROOT
HETATM    1  C   UNL     1       8.269  -2.009  -0.230  1.00  0.00     0.017 A 
HETATM    2  C   UNL     1       9.487  -1.394  -0.545  1.00  0.00     0.018 A 
HETATM    3  C   UNL     1      10.650  -2.152  -0.736  1.00  0.00     0.030 A 
HETATM    4  C   UNL     1      10.618  -3.541  -0.617  1.00  0.00     0.035 A 
HETATM    5  C   UNL     1       9.415  -4.158  -0.256  1.00  0.00     0.030 A 
HETATM    6  C   UNL     1       8.253  -3.400  -0.068  1.00  0.00     0.018 A 
ENDROOT
BRANCH   4   7
HETATM    7  N   UNL     1      11.718  -4.383  -0.880  1.00  0.00    -0.323 N 
HETATM    8  C   UNL     1      12.949  -4.011  -1.389  1.00  0.00     0.256 C 
HETATM    9  O   UNL     1      13.346  -2.879  -1.629  1.00  0.00    -0.267 OA
HETATM   10  H   UNL     1      11.531  -5.376  -0.818  1.00  0.00     0.169 HD
BRANCH   8  11
HETATM   11  C   UNL     1      13.832  -5.154  -1.733  1.00  0.00     0.037 A 
HETATM   12  C   UNL     1      14.454  -5.149  -2.985  1.00  0.00     0.054 A 
HETATM   13  C   UNL     1      15.239  -6.230  -3.381  1.00  0.00     0.071 A 
HETATM   14  C   UNL     1      15.418  -7.300  -2.503  1.00  0.00     0.073 A 
HETATM   15  C   UNL     1      14.820  -7.298  -1.235  1.00  0.00     0.071 A 
HETATM   16  C   UNL     1      14.022  -6.223  -0.847  1.00  0.00     0.054 A 
BRANCH  13  17
HETATM   17  O   UNL     1      15.765  -6.123  -4.639  1.00  0.00    -0.356 OA
HETATM   18  C   UNL     1      16.474  -7.249  -5.139  1.00  0.00     0.210 C 
ENDBRANCH  13  17
BRANCH  15  19
HETATM   19  O   UNL     1      15.090  -8.409  -0.482  1.00  0.00    -0.356 OA
HETATM   20  C   UNL     1      14.582  -8.434   0.847  1.00  0.00     0.210 C 
ENDBRANCH  15  19
ENDBRANCH   8  11
ENDBRANCH   4   7
BRANCH   1  21
HETATM   21  C   UNL     1       7.022  -1.256  -0.114  1.00  0.00     0.180 A 
HETATM   22  N   UNL     1       5.796  -1.712   0.078  1.00  0.00    -0.221 NA
HETATM   23  C   UNL     1       5.016  -0.586   0.011  1.00  0.00     0.093 A 
HETATM   24  C   UNL     1       5.811   0.527  -0.200  1.00  0.00     0.107 A 
HETATM   25  C   UNL     1       3.630  -0.418   0.104  1.00  0.00     0.035 A 
HETATM   26  C   UNL     1       5.340   1.828  -0.324  1.00  0.00     0.046 A 
HETATM   27  O   UNL     1       7.106   0.106  -0.277  1.00  0.00    -0.289 OA
HETATM   28  C   UNL     1       3.948   1.994  -0.221  1.00  0.00    -0.059 A 
HETATM   29  C   UNL     1       3.343   3.360  -0.388  1.00  0.00     0.048 C 
HETATM   30  C   UNL     1       3.110   0.881  -0.022  1.00  0.00     0.009 A 
ENDBRANCH   1  21
TORSDOF 5
