REMARK  4 active torsions:
REMARK  status: ('A' for Active; 'I' for Inactive)
REMARK    1  A    between atoms: C_6  and  N_7 
REMARK       I    between atoms: N_7  and  C_8 
REMARK    2  A    between atoms: C_8  and  C_9 
REMARK    3  A    between atoms: C_10  and  C_11 
REMARK    4  A    between atoms: C_14  and  O_15 
ROOT
HETATM    1  C   UNL     1       6.798  -2.458  -0.363  1.00  0.00     0.131 C 
HETATM    2  C   UNL     1       5.706  -2.094  -1.404  1.00  0.00     0.177 C 
HETATM    3  N   UNL     1       5.017  -3.282  -1.917  1.00  0.00    -0.088 N 
HETATM    4  C   UNL     1       5.479  -4.565  -1.760  1.00  0.00     0.721 A 
HETATM    5  N   UNL     1       6.556  -4.833  -0.990  1.00  0.00    -0.218 N 
HETATM    6  C   UNL     1       7.524  -3.752  -0.783  1.00  0.00     0.111 C 
HETATM    7  C   UNL     1       8.598  -4.196   0.207  1.00  0.00     0.034 C 
HETATM    8  N   UNL     1       3.996  -3.249  -2.795  1.00  0.00    -0.149 NA
HETATM    9  C   UNL     1       3.826  -4.552  -3.041  1.00  0.00     0.275 A 
HETATM   10  N   UNL     1       4.713  -5.390  -2.421  1.00  0.00    -0.055 NA
HETATM   11  H   UNL     1       6.964  -5.756  -1.148  1.00  0.00     0.178 HD
ENDROOT
BRANCH   1  12
HETATM   12  C   UNL     1       6.273  -2.488   1.075  1.00  0.00     0.230 C 
HETATM   13  N   UNL     1       5.524  -3.594   1.409  1.00  0.00    -0.326 N 
HETATM   14  H   UNL     1       5.325  -4.244   0.654  1.00  0.00     0.169 HD
HETATM   15  O   UNL     1       6.496  -1.518   1.796  1.00  0.00    -0.273 OA
BRANCH  13  16
HETATM   16  C   UNL     1       4.828  -3.864   2.609  1.00  0.00     0.040 A 
HETATM   17  C   UNL     1       5.181  -3.440   3.900  1.00  0.00    -0.035 A 
HETATM   18  C   UNL     1       4.310  -3.732   4.972  1.00  0.00     0.015 A 
HETATM   19  C   UNL     1       6.462  -2.739   4.254  1.00  0.00     0.050 C 
HETATM   20  C   UNL     1       3.150  -4.495   4.798  1.00  0.00    -0.061 A 
HETATM   21  C   UNL     1       2.227  -4.755   5.951  1.00  0.00     0.048 C 
HETATM   22  C   UNL     1       2.845  -4.966   3.524  1.00  0.00     0.009 A 
HETATM   23  C   UNL     1       3.684  -4.666   2.448  1.00  0.00     0.030 A 
ENDBRANCH  13  16
ENDBRANCH   1  12
BRANCH   2  24
HETATM   24  C   UNL     1       4.783  -0.962  -0.969  1.00  0.00    -0.032 A 
HETATM   25  C   UNL     1       5.249   0.361  -1.049  1.00  0.00     0.012 A 
HETATM   26  C   UNL     1       4.438   1.431  -0.663  1.00  0.00     0.037 A 
HETATM   27  C   UNL     1       3.142   1.206  -0.205  1.00  0.00     0.068 A 
HETATM   28  C   UNL     1       2.680  -0.102  -0.077  1.00  0.00     0.037 A 
HETATM   29  C   UNL     1       3.496  -1.177  -0.449  1.00  0.00     0.012 A 
BRANCH  27  30
HETATM   30  O   UNL     1       2.431   2.329   0.117  1.00  0.00    -0.356 OA
HETATM   31  C   UNL     1       1.019   2.213  -0.024  1.00  0.00     0.210 C 
ENDBRANCH  27  30
ENDBRANCH   2  24
TORSDOF 4
