REMARK  7 active torsions:
REMARK  status: ('A' for Active; 'I' for Inactive)
REMARK    1  A    between atoms: C_3  and  N_4 
REMARK    2  A    between atoms: N_7  and  C_9 
REMARK    3  A    between atoms: N_12  and  C_13 
REMARK    4  A    between atoms: C_16  and  C_17 
REMARK       I    between atoms: C_17  and  N_18 
REMARK    5  A    between atoms: C_20  and  C_21 
REMARK    6  A    between atoms: C_21  and  O_22 
REMARK    7  A    between atoms: C_33  and  O_34 
ROOT
HETATM    1  C   UNL     1       2.023   5.980   1.894  1.00  0.00     0.191 C 
HETATM    2  C   UNL     1       3.248   6.852   2.221  1.00  0.00     0.053 C 
HETATM    3  C   UNL     1       3.523   7.911   1.156  1.00  0.00     0.125 C 
HETATM    4  N   UNL     1       2.296   8.673   0.933  1.00  0.00    -0.381 N 
HETATM    5  C   UNL     1       1.125   7.919   0.504  1.00  0.00     0.125 C 
HETATM    6  C   UNL     1       0.818   6.881   1.581  1.00  0.00     0.053 C 
ENDROOT
BRANCH   4   7
HETATM    7  C   UNL     1       2.467   9.980   0.468  1.00  0.00     0.030 A 
HETATM    8  C   UNL     1       1.930  10.445  -0.743  1.00  0.00     0.030 A 
HETATM    9  C   UNL     1       2.089  11.777  -1.149  1.00  0.00     0.019 A 
HETATM   10  C   UNL     1       2.762  12.679  -0.324  1.00  0.00     0.032 A 
HETATM   11  C   UNL     1       3.329  12.237   0.870  1.00  0.00     0.019 A 
HETATM   12  C   UNL     1       3.176  10.903   1.258  1.00  0.00     0.030 A 
BRANCH  10  13
HETATM   13  C   UNL     1       2.967  14.090  -0.713  1.00  0.00     0.253 C 
HETATM   14  N   UNL     1       1.866  14.940  -0.862  1.00  0.00    -0.348 N 
HETATM   15  C   UNL     1       0.467  14.494  -0.849  1.00  0.00     0.132 C 
HETATM   16  C   UNL     1       2.122  16.257  -1.445  1.00  0.00     0.126 C 
HETATM   17  C   UNL     1      -0.500  15.566  -0.324  1.00  0.00     0.027 C 
HETATM   18  C   UNL     1      -0.275  16.897  -1.051  1.00  0.00     0.010 C 
HETATM   19  C   UNL     1       1.180  17.327  -0.907  1.00  0.00     0.020 C 
HETATM   20  O   UNL     1       4.134  14.453  -0.853  1.00  0.00    -0.267 OA
BRANCH  17  21
HETATM   21  C   UNL     1      -1.952  15.093  -0.436  1.00  0.00     0.170 C 
BRANCH  21  22
HETATM   22  O   UNL     1      -2.303  14.792  -1.780  1.00  0.00    -0.400 OA
HETATM   23  H   UNL     1      -2.509  15.634  -2.225  1.00  0.00     0.209 HD
ENDBRANCH  21  22
ENDBRANCH  17  21
ENDBRANCH  10  13
ENDBRANCH   4   7
BRANCH   1  24
HETATM   24  N   UNL     1       2.328   4.966   0.767  1.00  0.00    -0.064 N 
HETATM   25  C   UNL     1       3.369   3.911   1.218  1.00  0.00     0.255 C 
HETATM   26  C   UNL     1       3.711   2.939   0.073  1.00  0.00     0.150 C 
HETATM   27  N   UNL     1       2.501   2.266  -0.452  1.00  0.00    -0.375 N 
HETATM   28  C   UNL     1       1.419   3.183  -0.839  1.00  0.00     0.150 C 
HETATM   29  C   UNL     1       1.079   4.224   0.252  1.00  0.00     0.255 C 
HETATM   30  H   UNL     1       2.731   5.467  -0.036  1.00  0.00     0.280 HD
BRANCH  27  31
HETATM   31  C   UNL     1       2.191   1.047   0.174  1.00  0.00     0.063 A 
HETATM   32  C   UNL     1       1.027   0.816   0.916  1.00  0.00     0.032 A 
HETATM   33  C   UNL     1       0.804  -0.413   1.556  1.00  0.00     0.002 A 
HETATM   34  C   UNL     1       1.735  -1.444   1.454  1.00  0.00     0.003 A 
HETATM   35  C   UNL     1       2.882  -1.261   0.692  1.00  0.00     0.039 A 
HETATM   36  C   UNL     1       3.083  -0.041   0.054  1.00  0.00     0.092 A 
BRANCH  36  37
HETATM   37  O   UNL     1       4.168   0.061  -0.780  1.00  0.00    -0.358 OA
HETATM   38  H   UNL     1       3.918   0.760  -1.412  1.00  0.00     0.218 HD
ENDBRANCH  36  37
ENDBRANCH  27  31
ENDBRANCH   1  24
TORSDOF 7
