REMARK  5 active torsions:
REMARK  status: ('A' for Active; 'I' for Inactive)
REMARK    1  A    between atoms: C_2  and  C_3 
REMARK    2  A    between atoms: C_3  and  C_4 
REMARK    3  A    between atoms: C_10  and  C_11 
REMARK    4  A    between atoms: C_12  and  O_13 
REMARK    5  A    between atoms: C_22  and  N_23 
ROOT
HETATM    1  C   UNL     1       4.479  -1.546  -0.342  1.00  0.00     0.066 A 
HETATM    2  N   UNL     1       5.310  -1.577  -1.398  1.00  0.00    -0.177 NA
HETATM    3  N   UNL     1       6.542  -1.506  -0.862  1.00  0.00    -0.256 N 
HETATM    4  H   UNL     1       7.347  -1.520  -1.478  1.00  0.00     0.191 HD
HETATM    5  C   UNL     1       6.518  -1.411   0.490  1.00  0.00     0.175 A 
HETATM    6  C   UNL     1       5.200  -1.428   0.876  1.00  0.00     0.035 A 
HETATM    7  C   UNL     1       4.860  -1.354   2.329  1.00  0.00     0.107 A 
HETATM    8  C   UNL     1       6.130  -1.139   3.159  1.00  0.00     0.067 A 
HETATM    9  C   UNL     1       5.942  -0.843   4.639  1.00  0.00     0.020 C 
HETATM   10  N   UNL     1       5.787  -0.599   5.866  1.00  0.00    -0.096 N 
HETATM   11  C   UNL     1       7.382  -1.133   2.629  1.00  0.00     0.139 A 
HETATM   12  O   UNL     1       7.601  -1.311   1.252  1.00  0.00    -0.279 OA
ENDROOT
BRANCH   7  13
HETATM   13  C   UNL     1       3.840  -0.238   2.490  1.00  0.00    -0.010 A 
HETATM   14  C   UNL     1       2.581  -0.477   3.064  1.00  0.00     0.073 A 
HETATM   15  C   UNL     1       1.682   0.560   3.314  1.00  0.00     0.038 A 
HETATM   16  C   UNL     1       2.014   1.867   2.968  1.00  0.00     0.022 A 
HETATM   17  C   UNL     1       3.248   2.128   2.382  1.00  0.00     0.011 A 
HETATM   18 BR   UNL     1       3.708   3.901   1.915  1.00  0.00    -0.051 Br
HETATM   19  C   UNL     1       4.158   1.094   2.149  1.00  0.00     0.030 A 
BRANCH  14  20
HETATM   20  O   UNL     1       2.165  -1.726   3.423  1.00  0.00    -0.360 OA
HETATM   21  H   UNL     1       2.314  -2.331   2.677  1.00  0.00     0.217 HD
ENDBRANCH  14  20
ENDBRANCH   7  13
BRANCH  11  22
HETATM   22  N   UNL     1       8.548  -0.936   3.331  1.00  0.00    -0.282 NA
HETATM   23  H   UNL     1       8.460  -0.429   4.209  1.00  0.00     0.126 HD
HETATM   24  H   UNL     1       9.298  -0.584   2.742  1.00  0.00     0.126 HD
ENDBRANCH  11  22
BRANCH   1  25
HETATM   25  C   UNL     1       3.003  -1.603  -0.575  1.00  0.00     0.061 C 
BRANCH  25  26
HETATM   26  C   UNL     1       2.530  -2.881  -1.273  1.00  0.00     0.002 C 
HETATM   27  C   UNL     1       2.715  -4.127  -0.418  1.00  0.00     0.005 C 
ENDBRANCH  25  26
ENDBRANCH   1  25
TORSDOF 5
