REMARK  9 active torsions:
REMARK  status: ('A' for Active; 'I' for Inactive)
REMARK    1  A    between atoms: N_2  and  C_4 
REMARK    2  A    between atoms: C_4  and  C_5 
REMARK    3  A    between atoms: N_6  and  C_7 
REMARK    4  A    between atoms: C_11  and  N_12 
REMARK    5  A    between atoms: C_15  and  C_16 
REMARK       I    between atoms: C_16  and  N_17 
REMARK    6  A    between atoms: N_17  and  N_18 
REMARK    7  A    between atoms: C_19  and  C_20 
REMARK    8  A    between atoms: C_21  and  C_22 
REMARK    9  A    between atoms: N_29  and  C_30 
ROOT
HETATM    1  C   UNL     1       2.932   0.767   3.141  1.00  0.00     0.293 C 
HETATM    2  N   UNL     1       2.034   1.267   4.066  1.00  0.00    -0.242 N 
HETATM    3  O   UNL     1       3.466  -0.338   3.175  1.00  0.00    -0.264 OA
HETATM    4  H   UNL     1       1.664   2.210   3.962  1.00  0.00     0.192 HD
ENDROOT
BRANCH   2   5
HETATM    5  N   UNL     1       1.685   0.504   5.142  1.00  0.00    -0.183 NA
HETATM    6  C   UNL     1       1.024   1.108   6.077  1.00  0.00     0.154 C 
BRANCH   6   7
HETATM    7  C   UNL     1       0.635   0.359   7.246  1.00  0.00     0.032 A 
HETATM    8  C   UNL     1       0.262   0.834   8.533  1.00  0.00     0.101 A 
HETATM    9  N   UNL     1      -0.087  -0.181   9.335  1.00  0.00    -0.166 NA
HETATM   10  N   UNL     1       0.103  -1.310   8.611  1.00  0.00    -0.244 N 
HETATM   11  C   UNL     1       0.542  -1.015   7.342  1.00  0.00     0.134 A 
BRANCH   8  12
HETATM   12  C   UNL     1       0.241   2.210   9.030  1.00  0.00    -0.005 A 
HETATM   13  C   UNL     1      -0.830   2.657   9.816  1.00  0.00     0.014 A 
HETATM   14  C   UNL     1      -0.855   3.966  10.300  1.00  0.00     0.001 A 
HETATM   15  C   UNL     1       0.192   4.839  10.008  1.00  0.00     0.000 A 
HETATM   16  C   UNL     1       1.270   4.401   9.241  1.00  0.00     0.001 A 
HETATM   17  C   UNL     1       1.298   3.091   8.758  1.00  0.00     0.014 A 
ENDBRANCH   8  12
BRANCH  10  18
HETATM   18  C   UNL     1      -0.151  -2.592   9.175  1.00  0.00     0.058 A 
HETATM   19  C   UNL     1      -0.574  -2.685  10.510  1.00  0.00     0.031 A 
HETATM   20  C   UNL     1      -0.826  -3.933  11.084  1.00  0.00     0.002 A 
HETATM   21  C   UNL     1      -0.660  -5.094  10.332  1.00  0.00     0.000 A 
HETATM   22  C   UNL     1      -0.242  -5.010   9.005  1.00  0.00     0.002 A 
HETATM   23  C   UNL     1       0.014  -3.764   8.423  1.00  0.00     0.031 A 
ENDBRANCH  10  18
ENDBRANCH   6   7
ENDBRANCH   2   5
BRANCH   1  24
HETATM   24  C   UNL     1       3.239   1.692   2.059  1.00  0.00     0.170 A 
HETATM   25  C   UNL     1       4.274   1.586   1.141  1.00  0.00     0.096 A 
HETATM   26  N   UNL     1       4.082   2.664   0.280  1.00  0.00    -0.215 N 
HETATM   27  N   UNL     1       3.060   3.423   0.756  1.00  0.00     0.012 NA
HETATM   28  N   UNL     1       2.530   2.830   1.812  1.00  0.00    -0.152 NA
BRANCH  25  29
HETATM   29  C   UNL     1       5.417   0.643   1.098  1.00  0.00     0.295 C 
BRANCH  29  30
HETATM   30  N   UNL     1       5.310  -0.452   0.067  1.00  0.00    -0.073 N 
HETATM   31  C   UNL     1       4.195  -1.425   0.337  1.00  0.00     0.269 C 
HETATM   32  H   UNL     1       5.134   0.005  -0.839  1.00  0.00     0.279 HD
HETATM   33  C   UNL     1       6.621  -1.176  -0.089  1.00  0.00     0.269 C 
ENDBRANCH  29  30
ENDBRANCH  25  29
BRANCH  26  34
HETATM   34  C   UNL     1       4.753   2.959  -0.930  1.00  0.00     0.225 A 
HETATM   35  N   UNL     1       5.633   2.088  -1.433  1.00  0.00    -0.081 NA
HETATM   36  O   UNL     1       6.063   2.701  -2.615  1.00  0.00    -0.103 OA
HETATM   37  N   UNL     1       5.414   3.909  -2.818  1.00  0.00    -0.083 NA
HETATM   38  C   UNL     1       4.599   4.070  -1.776  1.00  0.00     0.201 A 
BRANCH  38  39
HETATM   39  N   UNL     1       3.790   5.125  -1.597  1.00  0.00    -0.379 N 
HETATM   40  H   UNL     1       3.703   5.831  -2.323  1.00  0.00     0.158 HD
HETATM   41  H   UNL     1       3.088   5.184  -0.862  1.00  0.00     0.158 HD
ENDBRANCH  38  39
ENDBRANCH  26  34
ENDBRANCH   1  24
TORSDOF 9
