REMARK  6 active torsions:
REMARK  status: ('A' for Active; 'I' for Inactive)
REMARK    1  A    between atoms: C_5  and  C_6 
REMARK    2  A    between atoms: C_12  and  C_13 
REMARK       I    between atoms: C_13  and  N_14 
REMARK    3  A    between atoms: N_14  and  C_15 
REMARK    4  A    between atoms: C_18  and  C_19 
REMARK    5  A    between atoms: C_19  and  O_20 
REMARK    6  A    between atoms: C_25  and  C_26 
ROOT
HETATM    1  C   UNL     1       7.178   0.403  -0.808  1.00  0.00     0.118 C 
HETATM    2  N   UNL     1       7.501  -0.891  -1.435  1.00  0.00    -0.365 N 
HETATM    3  C   UNL     1       8.667  -1.045  -2.130  1.00  0.00     0.138 A 
HETATM    4  N   UNL     1       9.479   0.032  -2.408  1.00  0.00    -0.240 N 
HETATM    5  N   UNL     1      10.526  -0.266  -3.192  1.00  0.00    -0.181 NA
HETATM    6  C   UNL     1      10.421  -1.586  -3.355  1.00  0.00     0.160 A 
HETATM    7  C   UNL     1       9.276  -2.137  -2.726  1.00  0.00     0.096 A 
HETATM    8  C   UNL     1       9.158   1.415  -2.109  1.00  0.00     0.221 C 
HETATM    9  C   UNL     1       7.679   1.547  -1.705  1.00  0.00     0.066 C 
HETATM   10  H   UNL     1       6.666  -1.338  -1.818  1.00  0.00     0.161 HD
ENDROOT
BRANCH   7  11
HETATM   11  C   UNL     1       8.885  -3.540  -2.774  1.00  0.00     0.261 C 
HETATM   12  N   UNL     1       7.788  -3.852  -1.993  1.00  0.00    -0.323 N 
HETATM   13  H   UNL     1       7.459  -3.107  -1.391  1.00  0.00     0.169 HD
HETATM   14  O   UNL     1       9.502  -4.324  -3.487  1.00  0.00    -0.267 OA
BRANCH  12  15
HETATM   15  C   UNL     1       7.047  -5.051  -1.995  1.00  0.00     0.035 A 
HETATM   16  C   UNL     1       7.416  -6.193  -2.705  1.00  0.00     0.030 A 
HETATM   17  C   UNL     1       6.594  -7.326  -2.715  1.00  0.00     0.012 A 
HETATM   18  C   UNL     1       5.379  -7.338  -2.021  1.00  0.00    -0.030 A 
HETATM   19  C   UNL     1       5.013  -6.192  -1.301  1.00  0.00     0.012 A 
HETATM   20  C   UNL     1       5.847  -5.067  -1.275  1.00  0.00     0.030 A 
BRANCH  18  21
HETATM   21  C   UNL     1       4.474  -8.548  -2.107  1.00  0.00     0.147 C 
HETATM   22  C   UNL     1       3.436  -8.401  -3.211  1.00  0.00     0.044 C 
BRANCH  21  23
HETATM   23  O   UNL     1       3.802  -8.767  -0.869  1.00  0.00    -0.391 OA
HETATM   24  H   UNL     1       4.472  -8.674  -0.169  1.00  0.00     0.210 HD
ENDBRANCH  21  23
ENDBRANCH  18  21
ENDBRANCH  12  15
ENDBRANCH   7  11
BRANCH   1  25
HETATM   25  C   UNL     1       7.626   0.501   0.641  1.00  0.00    -0.035 A 
HETATM   26  C   UNL     1       8.395  -0.487   1.275  1.00  0.00     0.010 A 
HETATM   27  C   UNL     1       8.838  -0.323   2.593  1.00  0.00     0.007 A 
HETATM   28  C   UNL     1       8.511   0.826   3.316  1.00  0.00    -0.062 A 
HETATM   29  C   UNL     1       9.008   1.026   4.717  1.00  0.00     0.048 C 
HETATM   30  C   UNL     1       7.703   1.793   2.714  1.00  0.00     0.007 A 
HETATM   31  C   UNL     1       7.264   1.631   1.397  1.00  0.00     0.010 A 
ENDBRANCH   1  25
BRANCH   8  32
HETATM   32  C   UNL     1      10.142   1.985  -1.110  1.00  0.00     0.409 C 
HETATM   33  F   UNL     1      10.337   1.215  -0.026  1.00  0.00    -0.169 F 
HETATM   34  F   UNL     1      11.354   2.208  -1.670  1.00  0.00    -0.169 F 
HETATM   35  F   UNL     1       9.706   3.196  -0.671  1.00  0.00    -0.169 F 
ENDBRANCH   8  32
TORSDOF 6
