REMARK  3 active torsions:
REMARK  status: ('A' for Active; 'I' for Inactive)
REMARK    1  A    between atoms: C_6  and  N_7 
REMARK       I    between atoms: N_7  and  C_8 
REMARK    2  A    between atoms: C_8  and  C_9 
REMARK    3  A    between atoms: C_9  and  C_10 
ROOT
HETATM    1  C   UNL     1      -2.683  -0.070  -0.316  1.00  0.00     0.286 C 
HETATM    2  N   UNL     1      -2.215  -0.426   1.090  1.00  0.00    -0.056 N 
HETATM    3  H   UNL     1      -1.504   0.298   1.332  1.00  0.00     0.278 HD
HETATM    4  H   UNL     1      -2.971  -0.314   1.775  1.00  0.00     0.278 HD
HETATM    5  C   UNL     1      -1.557  -1.773   1.217  1.00  0.00     0.209 C 
HETATM    6  C   UNL     1      -0.428  -1.903   0.164  1.00  0.00     0.115 C 
HETATM    7  N   UNL     1      -0.845  -1.500  -1.178  1.00  0.00    -0.353 N 
HETATM    8  C   UNL     1      -1.651  -0.410  -1.409  1.00  0.00     0.249 C 
HETATM    9  O   UNL     1      -1.604   0.171  -2.487  1.00  0.00    -0.271 OA
HETATM   10  C   UNL     1      -2.613  -2.877   1.124  1.00  0.00     0.035 C 
HETATM   11  C   UNL     1      -1.965  -4.259   1.149  1.00  0.00     0.002 C 
HETATM   12  C   UNL     1      -0.920  -4.401   0.047  1.00  0.00     0.002 C 
HETATM   13  C   UNL     1       0.156  -3.320   0.151  1.00  0.00     0.027 C 
HETATM   14  H   UNL     1      -0.178  -1.641  -1.936  1.00  0.00     0.163 HD
ENDROOT
BRANCH   1  15
HETATM   15  C   UNL     1      -3.144   1.394  -0.411  1.00  0.00     0.146 C 
BRANCH  15  16
HETATM   16  C   UNL     1      -2.106   2.345   0.121  1.00  0.00     0.224 C 
HETATM   17  N   UNL     1      -2.227   3.694   0.034  1.00  0.00    -0.327 N 
HETATM   18  H   UNL     1      -1.426   4.159   0.455  1.00  0.00     0.169 HD
HETATM   19  O   UNL     1      -1.138   1.876   0.738  1.00  0.00    -0.273 OA
BRANCH  17  20
HETATM   20  C   UNL     1      -3.199   4.571  -0.494  1.00  0.00     0.036 A 
HETATM   21  C   UNL     1      -4.384   4.200  -1.126  1.00  0.00     0.053 A 
HETATM   22  C   UNL     1      -5.262   5.177  -1.615  1.00  0.00     0.036 A 
HETATM   23  C   UNL     1      -4.982   6.531  -1.470  1.00  0.00     0.024 A 
HETATM   24 CL   UNL     1      -6.712   4.687  -2.405  1.00  0.00    -0.084 Cl
HETATM   25  C   UNL     1      -3.810   6.915  -0.830  1.00  0.00     0.004 A 
HETATM   26  C   UNL     1      -2.928   5.942  -0.349  1.00  0.00     0.029 A 
ENDBRANCH  17  20
ENDBRANCH  15  16
ENDBRANCH   1  15
TORSDOF 3
