REMARK  5 active torsions:
REMARK  status: ('A' for Active; 'I' for Inactive)
REMARK    1  A    between atoms: C_3  and  N_4 
REMARK       I    between atoms: N_4  and  C_5 
REMARK       I    between atoms: C_5  and  N_6 
REMARK    2  A    between atoms: N_6  and  C_7 
REMARK    3  A    between atoms: C_7  and  C_8 
REMARK    4  A    between atoms: C_8  and  C_9 
REMARK    5  A    between atoms: N_15  and  C_16 
ROOT
HETATM    1  C   UNL     1       0.725  -0.013   0.179  1.00  0.00     0.054 C 
HETATM    2  C   UNL     1       2.201  -0.115   0.093  1.00  0.00     0.003 A 
HETATM    3  C   UNL     1       3.168   0.916   0.007  1.00  0.00     0.159 A 
HETATM    4  N   UNL     1       4.405   0.422  -0.086  1.00  0.00    -0.149 NA
HETATM    5  N   UNL     1       4.268  -0.933  -0.034  1.00  0.00    -0.241 N 
HETATM    6  C   UNL     1       2.940  -1.278   0.044  1.00  0.00     0.129 A 
ENDROOT
BRANCH   3   7
HETATM    7  N   UNL     1       2.872   2.262  -0.016  1.00  0.00    -0.291 N 
HETATM    8  C   UNL     1       3.719   3.326  -0.039  1.00  0.00     0.321 C 
HETATM    9  N   UNL     1       5.047   3.070   0.108  1.00  0.00    -0.343 N 
HETATM   10  O   UNL     1       3.265   4.463  -0.149  1.00  0.00    -0.247 OA
HETATM   11  H   UNL     1       5.300   2.085   0.027  1.00  0.00     0.164 HD
HETATM   12  H   UNL     1       1.900   2.526  -0.045  1.00  0.00     0.172 HD
BRANCH   9  13
HETATM   13  C   UNL     1       6.069   4.091   0.011  1.00  0.00     0.133 C 
BRANCH  13  14
HETATM   14  C   UNL     1       6.057   5.042   1.199  1.00  0.00     0.137 C 
BRANCH  14  15
HETATM   15  C   UNL     1       7.187   6.031   1.086  1.00  0.00     0.389 C 
HETATM   16  F   UNL     1       7.106   6.756  -0.050  1.00  0.00    -0.171 F 
HETATM   17  F   UNL     1       7.176   6.894   2.125  1.00  0.00    -0.171 F 
HETATM   18  F   UNL     1       8.385   5.406   1.090  1.00  0.00    -0.171 F 
ENDBRANCH  14  15
ENDBRANCH  13  14
ENDBRANCH   9  13
ENDBRANCH   3   7
BRANCH   5  19
HETATM   19  C   UNL     1       5.418  -1.769  -0.147  1.00  0.00     0.079 A 
HETATM   20  C   UNL     1       5.469  -3.111   0.261  1.00  0.00     0.062 A 
HETATM   21 CL   UNL     1       4.244  -3.928   1.169  1.00  0.00    -0.082 Cl
HETATM   22  C   UNL     1       6.634  -3.863   0.037  1.00  0.00     0.026 A 
HETATM   23  C   UNL     1       7.752  -3.294  -0.572  1.00  0.00     0.002 A 
HETATM   24  C   UNL     1       7.723  -1.958  -0.946  1.00  0.00     0.002 A 
HETATM   25  C   UNL     1       6.572  -1.199  -0.730  1.00  0.00     0.033 A 
ENDBRANCH   5  19
TORSDOF 5
