REMARK  7 active torsions:
REMARK  status: ('A' for Active; 'I' for Inactive)
REMARK    1  A    between atoms: C_8  and  C_9 
REMARK    2  A    between atoms: C_9  and  N_10 
REMARK    3  A    between atoms: C_9  and  C_14 
REMARK       I    between atoms: C_14  and  N_15 
REMARK    4  A    between atoms: N_15  and  C_16 
REMARK    5  A    between atoms: C_16  and  C_17 
REMARK    6  A    between atoms: C_17  and  C_18 
REMARK    7  A    between atoms: C_20  and  C_21 
ROOT
HETATM    1  C   UNL     1       1.201  -2.414  -0.505  1.00  0.00     0.253 C 
HETATM    2  N   UNL     1       0.655  -1.163  -0.662  1.00  0.00    -0.359 N 
HETATM    3  O   UNL     1       0.639  -3.455  -0.851  1.00  0.00    -0.271 OA
HETATM    4  H   UNL     1       1.036  -0.375  -0.144  1.00  0.00     0.162 HD
ENDROOT
BRANCH   1   5
HETATM    5  C   UNL     1       2.636  -2.490   0.065  1.00  0.00     0.311 C 
BRANCH   5   6
HETATM    6  C   UNL     1       2.757  -1.840   1.399  1.00  0.00     0.031 A 
HETATM    7  C   UNL     1       2.175  -2.191   2.611  1.00  0.00     0.035 A 
HETATM    8  C   UNL     1       1.263  -3.288   3.022  1.00  0.00     0.070 C 
HETATM    9  N   UNL     1       2.586  -1.244   3.514  1.00  0.00    -0.282 N 
HETATM   10  H   UNL     1       2.326  -1.144   4.494  1.00  0.00     0.189 HD
HETATM   11  N   UNL     1       3.415  -0.340   2.984  1.00  0.00    -0.179 NA
HETATM   12  C   UNL     1       3.524  -0.678   1.701  1.00  0.00     0.061 A 
HETATM   13  C   UNL     1       4.375   0.144   0.799  1.00  0.00     0.073 C 
ENDBRANCH   5   6
BRANCH   5  14
HETATM   14  N   UNL     1       3.064  -3.924   0.135  1.00  0.00    -0.062 N 
HETATM   15  H   UNL     1       2.405  -4.438   0.731  1.00  0.00     0.275 HD
HETATM   16  H   UNL     1       2.984  -4.352  -0.796  1.00  0.00     0.275 HD
HETATM   17  H   UNL     1       4.013  -4.031   0.504  1.00  0.00     0.275 HD
ENDBRANCH   5  14
ENDBRANCH   1   5
BRANCH   2  18
HETATM   18  C   UNL     1      -0.686  -0.968  -1.201  1.00  0.00     0.127 C 
BRANCH  18  19
HETATM   19  C   UNL     1      -1.790  -1.138  -0.149  1.00  0.00     0.058 C 
BRANCH  19  20
HETATM   20  C   UNL     1      -1.666  -0.175   1.010  1.00  0.00    -0.056 A 
HETATM   21  C   UNL     1      -1.444  -0.655   2.308  1.00  0.00     0.023 A 
HETATM   22  C   UNL     1      -1.321   0.225   3.398  1.00  0.00     0.048 A 
HETATM   23  C   UNL     1      -1.417   1.603   3.170  1.00  0.00     0.016 A 
HETATM   24  C   UNL     1      -1.657   2.090   1.885  1.00  0.00     0.001 A 
HETATM   25  C   UNL     1      -1.784   1.207   0.812  1.00  0.00     0.007 A 
BRANCH  22  26
HETATM   26  C   UNL     1      -1.049  -0.312   4.781  1.00  0.00     0.417 C 
HETATM   27  F   UNL     1      -1.603  -1.539   4.991  1.00  0.00    -0.166 F 
HETATM   28  F   UNL     1       0.289  -0.484   5.005  1.00  0.00    -0.166 F 
HETATM   29  F   UNL     1      -1.500   0.487   5.783  1.00  0.00    -0.166 F 
ENDBRANCH  22  26
ENDBRANCH  19  20
ENDBRANCH  18  19
ENDBRANCH   2  18
TORSDOF 7
