REMARK  3 active torsions:
REMARK  status: ('A' for Active; 'I' for Inactive)
REMARK    1  A    between atoms: C_3  and  N_4 
REMARK       I    between atoms: N_4  and  C_5 
REMARK    2  A    between atoms: C_5  and  C_6 
REMARK    3  A    between atoms: C_6  and  C_7 
ROOT
HETATM    1  C   UNL     1      -0.980   2.581   0.010  1.00  0.00     0.286 C 
HETATM    2  N   UNL     1      -1.854   3.148   1.125  1.00  0.00    -0.056 N 
HETATM    3  H   UNL     1      -2.682   2.515   1.166  1.00  0.00     0.278 HD
HETATM    4  H   UNL     1      -1.393   3.072   2.038  1.00  0.00     0.278 HD
HETATM    5  C   UNL     1      -2.365   4.539   0.880  1.00  0.00     0.209 C 
HETATM    6  C   UNL     1      -3.077   4.589  -0.493  1.00  0.00     0.115 C 
HETATM    7  N   UNL     1      -2.279   4.000  -1.569  1.00  0.00    -0.353 N 
HETATM    8  C   UNL     1      -1.533   2.857  -1.404  1.00  0.00     0.249 C 
HETATM    9  O   UNL     1      -1.243   2.165  -2.374  1.00  0.00    -0.271 OA
HETATM   10  C   UNL     1      -1.221   5.549   1.005  1.00  0.00     0.035 C 
HETATM   11  C   UNL     1      -1.699   6.960   0.674  1.00  0.00     0.002 C 
HETATM   12  C   UNL     1      -2.345   7.020  -0.707  1.00  0.00     0.002 C 
HETATM   13  C   UNL     1      -3.496   6.022  -0.838  1.00  0.00     0.027 C 
HETATM   14  H   UNL     1      -2.636   4.087  -2.519  1.00  0.00     0.163 HD
ENDROOT
BRANCH   1  15
HETATM   15  C   UNL     1      -0.711   1.084   0.229  1.00  0.00     0.146 C 
BRANCH  15  16
HETATM   16  C   UNL     1      -2.002   0.312   0.294  1.00  0.00     0.224 C 
HETATM   17  N   UNL     1      -2.053  -1.039   0.198  1.00  0.00    -0.326 N 
HETATM   18  H   UNL     1      -3.012  -1.385   0.147  1.00  0.00     0.169 HD
HETATM   19  O   UNL     1      -3.051   0.942   0.490  1.00  0.00    -0.273 OA
BRANCH  17  20
HETATM   20  C   UNL     1      -1.087  -2.073   0.155  1.00  0.00     0.056 A 
HETATM   21  C   UNL     1       0.280  -1.898   0.385  1.00  0.00     0.031 A 
HETATM   22  C   UNL     1       1.156  -2.993   0.354  1.00  0.00     0.002 A 
HETATM   23  C   UNL     1       0.680  -4.276   0.098  1.00  0.00     0.002 A 
HETATM   24  C   UNL     1      -0.678  -4.474  -0.124  1.00  0.00     0.026 A 
HETATM   25  C   UNL     1      -1.552  -3.385  -0.091  1.00  0.00     0.060 A 
HETATM   26 CL   UNL     1      -3.236  -3.692  -0.362  1.00  0.00    -0.082 Cl
ENDBRANCH  17  20
ENDBRANCH  15  16
ENDBRANCH   1  15
TORSDOF 3
