REMARK  8 active torsions:
REMARK  status: ('A' for Active; 'I' for Inactive)
REMARK    1  A    between atoms: O_2  and  C_3 
REMARK    2  A    between atoms: C_6  and  C_7 
REMARK    3  A    between atoms: C_7  and  N_8 
REMARK    4  A    between atoms: C_7  and  C_27 
REMARK    5  A    between atoms: N_8  and  C_11 
REMARK    6  A    between atoms: C_11  and  C_12 
REMARK       I    between atoms: C_12  and  N_13 
REMARK    7  A    between atoms: N_13  and  C_14 
REMARK    8  A    between atoms: C_17  and  N_18 
ROOT
HETATM    1  N   UNL     1       4.820   6.104  -1.566  1.00  0.00    -0.055 N 
HETATM    2  H   UNL     1       5.754   5.760  -1.283  1.00  0.00     0.278 HD
HETATM    3  H   UNL     1       5.028   6.981  -2.054  1.00  0.00     0.278 HD
ENDROOT
BRANCH   1   4
HETATM    4  C   UNL     1       4.233   5.121  -2.525  1.00  0.00     0.252 C 
BRANCH   4   5
HETATM    5  C   UNL     1       2.808   5.444  -2.955  1.00  0.00    -0.023 A 
HETATM    6  C   UNL     1       2.360   6.755  -3.206  1.00  0.00     0.012 A 
HETATM    7  C   UNL     1       1.039   7.004  -3.602  1.00  0.00     0.037 A 
HETATM    8  C   UNL     1       0.145   5.950  -3.767  1.00  0.00     0.068 A 
HETATM    9  C   UNL     1       0.581   4.647  -3.529  1.00  0.00     0.037 A 
HETATM   10  C   UNL     1       1.897   4.392  -3.135  1.00  0.00     0.012 A 
BRANCH   8  11
HETATM   11  O   UNL     1      -1.162   6.055  -4.147  1.00  0.00    -0.356 OA
HETATM   12  C   UNL     1      -1.620   7.336  -4.563  1.00  0.00     0.210 C 
ENDBRANCH   8  11
ENDBRANCH   4   5
BRANCH   4  13
HETATM   13  C   UNL     1       5.207   4.917  -3.674  1.00  0.00    -0.023 A 
HETATM   14  C   UNL     1       6.128   3.855  -3.620  1.00  0.00     0.009 A 
HETATM   15  C   UNL     1       7.081   3.684  -4.626  1.00  0.00     0.001 A 
HETATM   16  C   UNL     1       7.133   4.570  -5.698  1.00  0.00     0.000 A 
HETATM   17  C   UNL     1       6.233   5.629  -5.767  1.00  0.00     0.001 A 
HETATM   18  C   UNL     1       5.280   5.806  -4.762  1.00  0.00     0.009 A 
ENDBRANCH   4  13
ENDBRANCH   1   4
BRANCH   1  19
HETATM   19  C   UNL     1       4.063   6.359  -0.292  1.00  0.00     0.336 C 
BRANCH  19  20
HETATM   20  C   UNL     1       4.944   7.193   0.636  1.00  0.00     0.248 C 
HETATM   21  N   UNL     1       4.362   8.361   1.083  1.00  0.00    -0.326 N 
HETATM   22  H   UNL     1       3.441   8.616   0.744  1.00  0.00     0.169 HD
HETATM   23  O   UNL     1       6.105   6.825   0.800  1.00  0.00    -0.271 OA
BRANCH  21  24
HETATM   24  C   UNL     1       4.945   9.311   1.949  1.00  0.00     0.034 A 
HETATM   25  C   UNL     1       6.108   9.090   2.680  1.00  0.00     0.032 A 
HETATM   26  C   UNL     1       6.591  10.071   3.561  1.00  0.00     0.032 A 
HETATM   27  C   UNL     1       5.937  11.297   3.724  1.00  0.00     0.037 A 
HETATM   28  C   UNL     1       4.786  11.519   2.957  1.00  0.00     0.032 A 
HETATM   29  C   UNL     1       4.287  10.535   2.094  1.00  0.00     0.032 A 
BRANCH  27  30
HETATM   30  N   UNL     1       6.401  12.282   4.636  1.00  0.00    -0.318 N 
HETATM   31  C   UNL     1       7.343  12.084   5.660  1.00  0.00     0.224 C 
HETATM   32  O   UNL     1       7.982  11.081   5.937  1.00  0.00    -0.273 OA
HETATM   33  C   UNL     1       7.395  13.347   6.488  1.00  0.00     0.105 C 
HETATM   34  C   UNL     1       6.802  14.390   5.563  1.00  0.00     0.029 C 
HETATM   35  C   UNL     1       5.811  13.598   4.736  1.00  0.00     0.133 C 
ENDBRANCH  27  30
ENDBRANCH  21  24
ENDBRANCH  19  20
ENDBRANCH   1  19
TORSDOF 8
