REMARK  6 active torsions:
REMARK  status: ('A' for Active; 'I' for Inactive)
REMARK    1  A    between atoms: C_2  and  C_3 
REMARK    2  A    between atoms: C_3  and  N_4 
REMARK    3  A    between atoms: C_3  and  C_11 
REMARK    4  A    between atoms: N_4  and  C_5 
REMARK       I    between atoms: C_11  and  N_12 
REMARK    5  A    between atoms: N_12  and  N_13 
REMARK    6  A    between atoms: C_14  and  C_15 
ROOT
HETATM    1  C   UNL     1       4.358   1.439   0.636  1.00  0.00     0.255 C 
HETATM    2  N   UNL     1       5.112   0.791   1.610  1.00  0.00    -0.246 N 
HETATM    3  O   UNL     1       4.794   2.059  -0.331  1.00  0.00    -0.270 OA
HETATM    4  H   UNL     1       4.593   0.251   2.302  1.00  0.00     0.192 HD
ENDROOT
BRANCH   2   5
HETATM    5  N   UNL     1       6.473   0.741   1.745  1.00  0.00    -0.184 NA
HETATM    6  C   UNL     1       7.222   1.548   1.067  1.00  0.00     0.152 C 
BRANCH   6   7
HETATM    7  C   UNL     1       8.663   1.481   1.231  1.00  0.00     0.011 A 
HETATM    8  C   UNL     1       9.641   2.310   0.592  1.00  0.00     0.004 A 
HETATM    9  C   UNL     1      10.896   1.910   1.054  1.00  0.00     0.043 A 
HETATM   10  C   UNL     1       9.576   3.372  -0.337  1.00  0.00     0.014 A 
HETATM   11  C   UNL     1      12.087   2.518   0.639  1.00  0.00     0.030 A 
HETATM   12  N   UNL     1      10.691   0.873   1.934  1.00  0.00    -0.364 N 
HETATM   13  C   UNL     1      11.993   3.567  -0.280  1.00  0.00     0.002 A 
HETATM   14  C   UNL     1      10.758   3.989  -0.763  1.00  0.00     0.001 A 
HETATM   15  H   UNL     1      11.427   0.384   2.425  1.00  0.00     0.165 HD
HETATM   16  C   UNL     1       9.354   0.607   2.049  1.00  0.00     0.102 A 
ENDBRANCH   6   7
ENDBRANCH   2   5
BRANCH   1  17
HETATM   17  C   UNL     1       2.837   1.277   0.873  1.00  0.00     0.154 C 
BRANCH  17  18
HETATM   18  C   UNL     1       2.354  -0.066   0.302  1.00  0.00     0.025 C 
HETATM   19  C   UNL     1       2.409  -0.111  -1.219  1.00  0.00     0.007 C 
ENDBRANCH  17  18
BRANCH  17  20
HETATM   20  N   UNL     1       2.578   1.322   2.344  1.00  0.00    -0.280 NA
HETATM   21  H   UNL     1       3.125   2.086   2.754  1.00  0.00     0.128 HD
BRANCH  20  22
HETATM   22  C   UNL     1       1.240   1.569   2.717  1.00  0.00     0.009 A 
HETATM   23  C   UNL     1       0.656   0.740   3.680  1.00  0.00     0.023 A 
HETATM   24  C   UNL     1      -0.639   0.982   4.143  1.00  0.00     0.002 A 
HETATM   25  C   UNL     1      -1.356   2.075   3.663  1.00  0.00     0.000 A 
HETATM   26  C   UNL     1      -0.774   2.928   2.727  1.00  0.00     0.002 A 
HETATM   27  C   UNL     1       0.521   2.681   2.264  1.00  0.00     0.023 A 
ENDBRANCH  20  22
ENDBRANCH  17  20
ENDBRANCH   1  17
TORSDOF 6
