REMARK  1 active torsions:
REMARK  status: ('A' for Active; 'I' for Inactive)
REMARK    1  A    between atoms: C_8  and  C_9 
ROOT
HETATM    1  C   UNL     1       1.081  -0.551  -0.664  1.00  0.00     0.073 C 
HETATM    2  C   UNL     1       2.519  -0.344  -0.337  1.00  0.00     0.062 A 
HETATM    3  N   UNL     1       3.302  -1.413  -0.182  1.00  0.00    -0.178 NA
HETATM    4  N   UNL     1       4.514  -0.895   0.007  1.00  0.00    -0.262 N 
HETATM    5  H   UNL     1       5.291  -1.536   0.116  1.00  0.00     0.191 HD
HETATM    6  C   UNL     1       4.548   0.475   0.048  1.00  0.00     0.134 A 
HETATM    7  C   UNL     1       3.242   0.894  -0.163  1.00  0.00     0.032 A 
HETATM    8  C   UNL     1       2.649   2.258  -0.370  1.00  0.00     0.121 C 
HETATM    9  S   UNL     1       3.760   3.684  -0.426  1.00  0.00    -0.140 SA
HETATM   10  C   UNL     1       4.967   3.383   0.893  1.00  0.00     0.136 C 
HETATM   11  C   UNL     1       4.448   3.088   2.290  1.00  0.00     0.031 C 
HETATM   12  C   UNL     1       6.040   2.398   0.470  1.00  0.00     0.236 C 
HETATM   13  O   UNL     1       7.230   2.736   0.455  1.00  0.00    -0.272 OA
HETATM   14  N   UNL     1       5.765   1.090   0.219  1.00  0.00    -0.311 N 
HETATM   15  H   UNL     1       6.613   0.542   0.112  1.00  0.00     0.170 HD
ENDROOT
BRANCH   8  16
HETATM   16  C   UNL     1       1.431   2.473   0.532  1.00  0.00    -0.018 A 
HETATM   17  C   UNL     1       0.329   3.237   0.085  1.00  0.00     0.041 A 
HETATM   18 CL   UNL     1       0.259   3.941  -1.497  1.00  0.00    -0.084 Cl
HETATM   19  C   UNL     1      -0.792   3.448   0.900  1.00  0.00     0.024 A 
HETATM   20  C   UNL     1      -0.843   2.907   2.180  1.00  0.00     0.002 A 
HETATM   21  C   UNL     1       0.224   2.150   2.646  1.00  0.00     0.001 A 
HETATM   22  C   UNL     1       1.342   1.937   1.834  1.00  0.00     0.010 A 
ENDBRANCH   8  16
TORSDOF 1
