REMARK  3 active torsions:
REMARK  status: ('A' for Active; 'I' for Inactive)
REMARK    1  A    between atoms: C_5  and  C_6 
REMARK       I    between atoms: C_6  and  N_7 
REMARK    2  A    between atoms: N_7  and  C_8 
REMARK    3  A    between atoms: C_15  and  C_16 
REMARK       I    between atoms: C_16  and  N_17 
ROOT
HETATM    1  C   UNL     1      -1.024   3.692  -3.036  1.00  0.00     0.035 A 
HETATM    2  C   UNL     1      -0.223   3.467  -4.167  1.00  0.00     0.046 A 
HETATM    3  C   UNL     1      -0.110   4.472  -5.152  1.00  0.00     0.030 A 
HETATM    4  C   UNL     1      -0.837   5.644  -4.997  1.00  0.00     0.063 A 
HETATM    5  N   UNL     1      -0.541   6.403  -6.095  1.00  0.00    -0.277 N 
HETATM    6  H   UNL     1      -0.903   7.322  -6.320  1.00  0.00     0.189 HD
HETATM    7  N   UNL     1       0.345   5.842  -6.935  1.00  0.00    -0.168 NA
HETATM    8  C   UNL     1       0.622   4.648  -6.363  1.00  0.00     0.156 A 
HETATM    9  C   UNL     1      -1.667   5.885  -3.901  1.00  0.00     0.034 A 
HETATM   10  C   UNL     1      -1.735   4.889  -2.918  1.00  0.00     0.032 A 
ENDROOT
BRANCH   1  11
HETATM   11  N   UNL     1      -1.075   2.665  -2.071  1.00  0.00    -0.326 N 
HETATM   12  C   UNL     1      -1.494   2.782  -0.751  1.00  0.00     0.240 C 
HETATM   13  O   UNL     1      -1.843   3.833  -0.211  1.00  0.00    -0.272 OA
HETATM   14  H   UNL     1      -0.655   1.781  -2.339  1.00  0.00     0.169 HD
BRANCH  12  15
HETATM   15  C   UNL     1      -1.506   1.457   0.048  1.00  0.00     0.172 C 
HETATM   16  C   UNL     1      -0.284   0.561  -0.169  1.00  0.00    -0.029 A 
HETATM   17  C   UNL     1      -0.357  -0.844  -0.289  1.00  0.00    -0.050 A 
HETATM   18  C   UNL     1       0.994   1.163  -0.181  1.00  0.00     0.009 A 
HETATM   19  C   UNL     1       0.819  -1.584  -0.514  1.00  0.00     0.007 A 
HETATM   20  C   UNL     1      -1.657  -1.616  -0.230  1.00  0.00     0.049 C 
HETATM   21  C   UNL     1       2.062  -0.961  -0.570  1.00  0.00     0.001 A 
HETATM   22  C   UNL     1       2.151   0.413  -0.392  1.00  0.00     0.001 A 
HETATM   23  C   UNL     1      -2.780  -0.912   0.513  1.00  0.00     0.080 C 
HETATM   24  S   UNL     1      -3.123   0.665  -0.292  1.00  0.00    -0.149 SA
ENDBRANCH  12  15
ENDBRANCH   1  11
BRANCH   8  25
HETATM   25  C   UNL     1       1.588   3.718  -6.963  1.00  0.00     0.270 C 
HETATM   26  N   UNL     1       2.176   4.184  -8.107  1.00  0.00    -0.365 N 
HETATM   27  H   UNL     1       1.928   5.110  -8.436  1.00  0.00     0.159 HD
HETATM   28  H   UNL     1       2.882   3.634  -8.569  1.00  0.00     0.159 HD
HETATM   29  O   UNL     1       1.876   2.620  -6.497  1.00  0.00    -0.266 OA
ENDBRANCH   8  25
TORSDOF 3
