REMARK  3 active torsions:
REMARK  status: ('A' for Active; 'I' for Inactive)
REMARK    1  A    between atoms: C_3  and  C_4 
REMARK       I    between atoms: C_4  and  N_5 
REMARK    2  A    between atoms: N_5  and  C_6 
REMARK    3  A    between atoms: C_13  and  C_14 
REMARK       I    between atoms: C_14  and  N_15 
ROOT
HETATM    1  C   UNL     1       5.576   3.155  -0.954  1.00  0.00     0.035 A 
HETATM    2  C   UNL     1       5.055   3.810  -2.078  1.00  0.00     0.046 A 
HETATM    3  C   UNL     1       5.908   4.594  -2.884  1.00  0.00     0.030 A 
HETATM    4  C   UNL     1       7.245   4.713  -2.529  1.00  0.00     0.063 A 
HETATM    5  N   UNL     1       7.802   5.521  -3.480  1.00  0.00    -0.277 N 
HETATM    6  H   UNL     1       8.767   5.826  -3.537  1.00  0.00     0.189 HD
HETATM    7  N   UNL     1       6.950   5.925  -4.436  1.00  0.00    -0.168 NA
HETATM    8  C   UNL     1       5.773   5.357  -4.083  1.00  0.00     0.156 A 
HETATM    9  C   UNL     1       7.795   4.084  -1.410  1.00  0.00     0.034 A 
HETATM   10  C   UNL     1       6.934   3.295  -0.637  1.00  0.00     0.032 A 
ENDROOT
BRANCH   1  11
HETATM   11  N   UNL     1       4.815   2.304  -0.133  1.00  0.00    -0.325 N 
HETATM   12  C   UNL     1       3.451   2.074  -0.180  1.00  0.00     0.252 C 
HETATM   13  O   UNL     1       2.627   2.691  -0.848  1.00  0.00    -0.270 OA
HETATM   14  H   UNL     1       5.308   1.788   0.591  1.00  0.00     0.169 HD
BRANCH  12  15
HETATM   15  C   UNL     1       3.028   0.870   0.665  1.00  0.00     0.229 C 
HETATM   16  C   UNL     1       2.656  -0.354  -0.202  1.00  0.00     0.056 C 
HETATM   17  C   UNL     1       3.428  -0.500  -1.512  1.00  0.00     0.018 C 
HETATM   18  C   UNL     1       3.052  -1.420   0.760  1.00  0.00    -0.018 A 
HETATM   19  C   UNL     1       3.862  -0.875   1.745  1.00  0.00     0.076 A 
HETATM   20  C   UNL     1       2.772  -2.775   0.740  1.00  0.00     0.010 A 
HETATM   21  O   UNL     1       4.057   0.475   1.612  1.00  0.00    -0.335 OA
HETATM   22  C   UNL     1       4.430  -1.650   2.735  1.00  0.00     0.037 A 
HETATM   23  C   UNL     1       4.151  -3.018   2.732  1.00  0.00     0.003 A 
HETATM   24  C   UNL     1       3.326  -3.577   1.741  1.00  0.00     0.001 A 
ENDBRANCH  12  15
ENDBRANCH   1  11
BRANCH   8  25
HETATM   25  C   UNL     1       4.563   5.541  -4.897  1.00  0.00     0.270 C 
HETATM   26  N   UNL     1       4.748   6.328  -6.001  1.00  0.00    -0.365 N 
HETATM   27  H   UNL     1       5.672   6.703  -6.181  1.00  0.00     0.159 HD
HETATM   28  H   UNL     1       3.978   6.494  -6.630  1.00  0.00     0.159 HD
HETATM   29  O   UNL     1       3.470   5.043  -4.650  1.00  0.00    -0.266 OA
ENDBRANCH   8  25
TORSDOF 3
