REMARK  5 active torsions:
REMARK  status: ('A' for Active; 'I' for Inactive)
REMARK    1  A    between atoms: C_7  and  C_8 
REMARK    2  A    between atoms: C_8  and  N_9 
REMARK    3  A    between atoms: C_12  and  C_13 
REMARK    4  A    between atoms: C_13  and  C_14 
REMARK    5  A    between atoms: C_14  and  O_15 
ROOT
HETATM    1  C   UNL     1       3.986   0.439   2.942  1.00  0.00     0.020 A 
HETATM    2  C   UNL     1       3.985  -0.889   2.579  1.00  0.00     0.117 A 
HETATM    3  N   UNL     1       3.108  -1.427   1.698  1.00  0.00    -0.260 NA
HETATM    4  C   UNL     1       2.159  -0.622   1.169  1.00  0.00     0.076 A 
HETATM    5  C   UNL     1       2.079   0.760   1.461  1.00  0.00     0.011 A 
HETATM    6  C   UNL     1       3.029   1.269   2.372  1.00  0.00     0.016 A 
HETATM    7  C   UNL     1       1.240  -1.188   0.280  1.00  0.00    -0.003 A 
HETATM    8  C   UNL     1       0.244  -0.406  -0.325  1.00  0.00     0.012 A 
HETATM    9  C   UNL     1       0.166   0.953  -0.053  1.00  0.00     0.020 A 
HETATM   10  C   UNL     1       1.071   1.536   0.833  1.00  0.00     0.023 A 
HETATM   11 BR   UNL     1       0.880   3.405   1.137  1.00  0.00    -0.050 Br
ENDROOT
BRANCH   7  12
HETATM   12  C   UNL     1       1.291  -2.670  -0.004  1.00  0.00     0.275 C 
BRANCH  12  13
HETATM   13  N   UNL     1       2.661  -3.179  -0.372  1.00  0.00    -0.067 N 
HETATM   14  H   UNL     1       3.248  -2.827   0.410  1.00  0.00     0.280 HD
HETATM   15  C   UNL     1       3.240  -2.625  -1.650  1.00  0.00     0.240 C 
HETATM   16  C   UNL     1       3.277  -3.811  -2.610  1.00  0.00     0.015 C 
HETATM   17  C   UNL     1       3.610  -4.959  -1.658  1.00  0.00     0.034 C 
HETATM   18  C   UNL     1       2.772  -4.680  -0.420  1.00  0.00     0.235 C 
BRANCH  16  19
HETATM   19  C   UNL     1       1.953  -4.054  -3.352  1.00  0.00     0.032 C 
BRANCH  19  20
HETATM   20  C   UNL     1       1.589  -2.949  -4.339  1.00  0.00     0.164 C 
BRANCH  20  21
HETATM   21  O   UNL     1       0.233  -3.117  -4.719  1.00  0.00    -0.401 OA
HETATM   22  H   UNL     1       0.198  -3.781  -5.432  1.00  0.00     0.209 HD
ENDBRANCH  20  21
ENDBRANCH  19  20
ENDBRANCH  16  19
ENDBRANCH  12  13
ENDBRANCH   7  12
TORSDOF 5
