REMARK  6 active torsions:
REMARK  status: ('A' for Active; 'I' for Inactive)
REMARK    1  A    between atoms: C_2  and  O_3 
REMARK    2  A    between atoms: O_3  and  C_4 
REMARK    3  A    between atoms: C_5  and  O_6 
REMARK    4  A    between atoms: C_10  and  C_11 
REMARK    5  A    between atoms: C_20  and  C_21 
REMARK       I    between atoms: C_21  and  N_22 
REMARK    6  A    between atoms: N_22  and  C_23 
ROOT
HETATM    1  C   UNL     1       7.952  -1.096  -1.440  1.00  0.00     0.202 C 
HETATM    2  N   UNL     1       7.891  -2.538  -1.179  1.00  0.00    -0.084 N 
HETATM    3  C   UNL     1       8.122  -3.498  -2.126  1.00  0.00     0.725 A 
HETATM    4  N   UNL     1       8.000  -4.682  -1.585  1.00  0.00    -0.054 NA
HETATM    5  C   UNL     1       7.655  -4.390  -0.290  1.00  0.00     0.275 A 
HETATM    6  N   UNL     1       7.561  -3.088   0.008  1.00  0.00    -0.149 NA
HETATM    7  N   UNL     1       8.381  -3.126  -3.395  1.00  0.00    -0.192 N 
HETATM    8  C   UNL     1       8.257  -1.812  -3.838  1.00  0.00     0.037 C 
HETATM    9  C   UNL     1       8.248  -1.636  -5.337  1.00  0.00     0.070 C 
HETATM   10  C   UNL     1       8.078  -0.813  -2.936  1.00  0.00     0.062 C 
HETATM   11  H   UNL     1       8.410  -3.858  -4.101  1.00  0.00     0.184 HD
ENDROOT
BRANCH   1  12
HETATM   12  C   UNL     1       9.088  -0.480  -0.621  1.00  0.00    -0.024 A 
HETATM   13  C   UNL     1       8.781   0.403   0.430  1.00  0.00     0.031 A 
HETATM   14  C   UNL     1       9.795   0.940   1.226  1.00  0.00     0.047 A 
HETATM   15  C   UNL     1      11.123   0.603   0.972  1.00  0.00     0.116 A 
HETATM   16 BR   UNL     1       9.317   2.104   2.643  1.00  0.00    -0.048 Br
HETATM   17  C   UNL     1      11.455  -0.265  -0.077  1.00  0.00     0.103 A 
HETATM   18  C   UNL     1      10.438  -0.807  -0.866  1.00  0.00     0.049 A 
BRANCH  15  19
HETATM   19  O   UNL     1      12.131   1.113   1.751  1.00  0.00    -0.357 OA
HETATM   20  H   UNL     1      12.953   0.715   1.406  1.00  0.00     0.218 HD
ENDBRANCH  15  19
BRANCH  17  21
HETATM   21  O   UNL     1      12.799  -0.509  -0.215  1.00  0.00    -0.349 OA
BRANCH  21  22
HETATM   22  C   UNL     1      13.203  -1.335  -1.306  1.00  0.00     0.171 C 
HETATM   23  C   UNL     1      14.719  -1.417  -1.292  1.00  0.00     0.034 C 
ENDBRANCH  21  22
ENDBRANCH  17  21
ENDBRANCH   1  12
BRANCH  10  24
HETATM   24  C   UNL     1       7.847   0.614  -3.296  1.00  0.00     0.256 C 
HETATM   25  N   UNL     1       8.797   1.132  -4.148  1.00  0.00    -0.323 N 
HETATM   26  H   UNL     1       9.561   0.525  -4.415  1.00  0.00     0.169 HD
HETATM   27  O   UNL     1       6.894   1.196  -2.795  1.00  0.00    -0.267 OA
BRANCH  25  28
HETATM   28  C   UNL     1       8.797   2.409  -4.749  1.00  0.00     0.035 A 
HETATM   29  C   UNL     1       7.857   3.403  -4.473  1.00  0.00     0.029 A 
HETATM   30  C   UNL     1       7.909   4.633  -5.136  1.00  0.00     0.002 A 
HETATM   31  C   UNL     1       8.898   4.879  -6.085  1.00  0.00     0.000 A 
HETATM   32  C   UNL     1       9.843   3.896  -6.367  1.00  0.00     0.002 A 
HETATM   33  C   UNL     1       9.796   2.669  -5.698  1.00  0.00     0.029 A 
ENDBRANCH  25  28
ENDBRANCH  10  24
TORSDOF 6
