REMARK  5 active torsions:
REMARK  status: ('A' for Active; 'I' for Inactive)
REMARK    1  A    between atoms: C_3  and  C_4 
REMARK    2  A    between atoms: C_8  and  C_9 
REMARK       I    between atoms: C_9  and  N_10 
REMARK    3  A    between atoms: N_10  and  C_11 
REMARK    4  A    between atoms: C_11  and  C_12 
REMARK    5  A    between atoms: C_24  and  O_25 
ROOT
HETATM    1  C   UNL     1       3.653   4.794  -1.537  1.00  0.00     0.270 C 
HETATM    2  N   UNL     1       4.709   4.042  -2.012  1.00  0.00    -0.342 N 
HETATM    3  O   UNL     1       3.650   6.021  -1.528  1.00  0.00    -0.266 OA
HETATM    4  H   UNL     1       4.655   3.036  -1.935  1.00  0.00     0.164 HD
ENDROOT
BRANCH   1   5
HETATM    5  C   UNL     1       2.560   4.035  -0.990  1.00  0.00     0.120 A 
HETATM    6  N   UNL     1       1.452   4.652  -0.481  1.00  0.00    -0.272 N 
HETATM    7  N   UNL     1       0.577   3.818   0.105  1.00  0.00    -0.174 NA
HETATM    8  H   UNL     1       1.268   5.652  -0.471  1.00  0.00     0.189 HD
HETATM    9  C   UNL     1       1.117   2.595  -0.056  1.00  0.00     0.092 A 
HETATM   10  C   UNL     1       2.347   2.689  -0.766  1.00  0.00     0.071 A 
BRANCH   9  11
HETATM   11  C   UNL     1       0.483   1.400   0.519  1.00  0.00     0.028 A 
HETATM   12  C   UNL     1       0.883   0.116   0.114  1.00  0.00     0.017 A 
HETATM   13  C   UNL     1       0.322  -1.027   0.695  1.00  0.00     0.001 A 
HETATM   14  C   UNL     1      -0.645  -0.904   1.690  1.00  0.00     0.003 A 
HETATM   15  C   UNL     1      -1.063   0.360   2.098  1.00  0.00     0.037 A 
HETATM   16  C   UNL     1      -0.508   1.497   1.513  1.00  0.00     0.078 A 
BRANCH  16  17
HETATM   17  O   UNL     1      -0.982   2.701   1.971  1.00  0.00    -0.360 OA
HETATM   18  H   UNL     1      -0.565   3.391   1.405  1.00  0.00     0.217 HD
ENDBRANCH  16  17
ENDBRANCH   9  11
ENDBRANCH   1   5
BRANCH   2  19
HETATM   19  C   UNL     1       6.036   4.586  -2.139  1.00  0.00     0.064 A 
HETATM   20  C   UNL     1       6.798   4.312  -3.424  1.00  0.00     0.039 A 
HETATM   21  C   UNL     1       6.318   5.696  -3.131  1.00  0.00     0.039 A 
BRANCH  19  22
HETATM   22  C   UNL     1       6.798   4.551  -0.823  1.00  0.00     0.011 A 
HETATM   23  C   UNL     1       7.501   3.407  -0.406  1.00  0.00     0.125 A 
HETATM   24  F   UNL     1       7.532   2.326  -1.202  1.00  0.00    -0.205 F 
HETATM   25  C   UNL     1       8.147   3.336   0.829  1.00  0.00     0.046 A 
HETATM   26  C   UNL     1       8.096   4.426   1.692  1.00  0.00     0.045 A 
HETATM   27  C   UNL     1       7.402   5.566   1.306  1.00  0.00     0.117 A 
HETATM   28  F   UNL     1       7.337   6.610   2.142  1.00  0.00    -0.206 F 
HETATM   29  C   UNL     1       6.761   5.635   0.071  1.00  0.00     0.055 A 
ENDBRANCH  19  22
ENDBRANCH   2  19
TORSDOF 5
