REMARK  8 active torsions:
REMARK  status: ('A' for Active; 'I' for Inactive)
REMARK    1  A    between atoms: C_2  and  C_3 
REMARK    2  A    between atoms: C_3  and  O_4 
REMARK    3  A    between atoms: O_4  and  C_5 
REMARK    4  A    between atoms: C_7  and  C_8 
REMARK    5  A    between atoms: N_9  and  C_10 
REMARK    6  A    between atoms: C_10  and  C_11 
REMARK    7  A    between atoms: C_24  and  C_25 
REMARK    8  A    between atoms: C_26  and  O_27 
ROOT
HETATM    1  C   UNL     1       8.438  -2.213  -3.303  1.00  0.00     0.159 A 
HETATM    2  N   UNL     1       9.672  -2.932  -2.876  1.00  0.00    -0.329 N 
HETATM    3  C   UNL     1      10.679  -2.097  -2.380  1.00  0.00     0.273 A 
HETATM    4  O   UNL     1      11.782  -2.400  -1.964  1.00  0.00    -0.266 OA
HETATM    5  C   UNL     1      10.089  -0.815  -2.424  1.00  0.00     0.129 A 
HETATM    6  C   UNL     1       8.811  -0.835  -2.901  1.00  0.00     0.034 A 
HETATM    7  N   UNL     1      10.392   0.449  -2.097  1.00  0.00    -0.272 N 
HETATM    8  H   UNL     1      11.255   0.825  -1.715  1.00  0.00     0.189 HD
HETATM    9  N   UNL     1       9.344   1.283  -2.321  1.00  0.00    -0.173 NA
HETATM   10  C   UNL     1       8.336   0.479  -2.754  1.00  0.00     0.101 A 
ENDROOT
BRANCH   1  11
HETATM   11  C   UNL     1       8.238  -2.186  -4.805  1.00  0.00    -0.028 A 
HETATM   12  C   UNL     1       9.322  -2.178  -5.711  1.00  0.00     0.046 A 
HETATM   13  C   UNL     1       9.113  -2.128  -7.091  1.00  0.00     0.069 A 
HETATM   14  C   UNL     1       7.808  -2.079  -7.580  1.00  0.00     0.037 A 
HETATM   15  C   UNL     1       6.723  -2.086  -6.706  1.00  0.00     0.003 A 
HETATM   16  C   UNL     1       6.936  -2.144  -5.329  1.00  0.00     0.010 A 
BRANCH  13  17
HETATM   17  O   UNL     1      10.085  -2.118  -8.054  1.00  0.00    -0.348 OA
BRANCH  17  18
HETATM   18  C   UNL     1      11.441  -2.149  -7.613  1.00  0.00     0.202 C 
BRANCH  18  19
HETATM   19  C   UNL     1      12.314  -2.126  -8.832  1.00  0.00    -0.011 C 
HETATM   20  C   UNL     1      13.282  -1.228  -9.059  1.00  0.00     0.009 C 
ENDBRANCH  18  19
ENDBRANCH  17  18
ENDBRANCH  13  17
ENDBRANCH   1  11
BRANCH   2  21
HETATM   21  C   UNL     1       9.753  -4.378  -2.837  1.00  0.00     0.167 C 
BRANCH  21  22
HETATM   22  C   UNL     1       9.000  -5.006  -1.694  1.00  0.00    -0.023 A 
HETATM   23  C   UNL     1       8.541  -6.316  -1.812  1.00  0.00     0.125 A 
HETATM   24  N   UNL     1       7.891  -6.991  -0.836  1.00  0.00    -0.273 NA
HETATM   25  C   UNL     1       7.702  -6.340   0.330  1.00  0.00     0.116 A 
HETATM   26  C   UNL     1       8.132  -5.046   0.563  1.00  0.00     0.020 A 
HETATM   27  C   UNL     1       8.798  -4.377  -0.460  1.00  0.00     0.012 A 
ENDBRANCH  21  22
ENDBRANCH   2  21
BRANCH  10  28
HETATM   28  C   UNL     1       7.001   1.029  -2.997  1.00  0.00     0.028 A 
HETATM   29  C   UNL     1       6.820   2.366  -3.392  1.00  0.00     0.078 A 
HETATM   30  C   UNL     1       5.549   2.883  -3.635  1.00  0.00     0.037 A 
HETATM   31  C   UNL     1       4.427   2.076  -3.460  1.00  0.00     0.003 A 
HETATM   32  C   UNL     1       4.580   0.757  -3.037  1.00  0.00     0.001 A 
HETATM   33  C   UNL     1       5.858   0.237  -2.804  1.00  0.00     0.017 A 
BRANCH  29  34
HETATM   34  O   UNL     1       7.870   3.235  -3.545  1.00  0.00    -0.360 OA
HETATM   35  H   UNL     1       8.652   2.788  -3.149  1.00  0.00     0.217 HD
ENDBRANCH  29  34
ENDBRANCH  10  28
TORSDOF 8
