REMARK  10 active torsions:
REMARK  status: ('A' for Active; 'I' for Inactive)
REMARK    1  A    between atoms: C_2  and  N_3 
REMARK    2  A    between atoms: N_3  and  N_4 
REMARK       I    between atoms: N_4  and  C_5 
REMARK    3  A    between atoms: C_5  and  C_6 
REMARK    4  A    between atoms: C_9  and  N_10 
REMARK    5  A    between atoms: C_14  and  C_15 
REMARK       I    between atoms: C_15  and  N_16 
REMARK    6  A    between atoms: N_16  and  C_17 
REMARK    7  A    between atoms: C_17  and  C_18 
REMARK    8  A    between atoms: C_18  and  C_19 
REMARK    9  A    between atoms: C_21  and  O_22 
REMARK   10  A    between atoms: C_24  and  O_25 
ROOT
HETATM    1  C   UNL     1       0.925   2.011  -0.229  1.00  0.00     0.063 C 
HETATM    2  C   UNL     1       2.180   1.912  -1.064  1.00  0.00     0.007 C 
HETATM    3  C   UNL     1       3.226   1.195  -0.603  1.00  0.00     0.094 C 
ENDROOT
BRANCH   2   4
HETATM    4  N   UNL     1       2.132   2.548  -2.299  1.00  0.00    -0.207 NA
HETATM    5  H   UNL     1       2.927   2.273  -2.910  1.00  0.00     0.152 HD
BRANCH   4   6
HETATM    6  N   UNL     1       1.950   3.948  -2.353  1.00  0.00    -0.283 N 
HETATM    7  C   UNL     1       2.541   4.603  -3.426  1.00  0.00     0.266 C 
HETATM    8  O   UNL     1       2.993   4.025  -4.411  1.00  0.00    -0.266 OA
HETATM    9  H   UNL     1       1.878   4.415  -1.457  1.00  0.00     0.184 HD
BRANCH   7  10
HETATM   10  C   UNL     1       2.680   6.080  -3.295  1.00  0.00     0.033 A 
HETATM   11  C   UNL     1       1.825   6.848  -2.497  1.00  0.00     0.019 A 
HETATM   12  C   UNL     1       2.029   8.228  -2.381  1.00  0.00     0.024 A 
HETATM   13  C   UNL     1       3.049   8.866  -3.093  1.00  0.00     0.005 A 
HETATM   14  C   UNL     1       3.921   8.088  -3.856  1.00  0.00     0.024 A 
HETATM   15  C   UNL     1       3.726   6.709  -3.980  1.00  0.00     0.019 A 
BRANCH  13  16
HETATM   16  N   UNL     1       3.329  10.217  -2.862  1.00  0.00    -0.303 NA
HETATM   17  H   UNL     1       2.520  10.767  -2.591  1.00  0.00     0.124 HD
HETATM   18  H   UNL     1       3.856  10.658  -3.611  1.00  0.00     0.124 HD
ENDBRANCH  13  16
ENDBRANCH   7  10
ENDBRANCH   4   6
ENDBRANCH   2   4
BRANCH   3  19
HETATM   19  C   UNL     1       4.483   1.058  -1.378  1.00  0.00     0.242 C 
HETATM   20  N   UNL     1       5.584   0.810  -0.593  1.00  0.00    -0.357 N 
HETATM   21  H   UNL     1       5.490   0.794   0.413  1.00  0.00     0.162 HD
HETATM   22  O   UNL     1       4.517   1.206  -2.592  1.00  0.00    -0.269 OA
BRANCH  20  23
HETATM   23  C   UNL     1       6.929   0.855  -1.153  1.00  0.00     0.127 C 
BRANCH  23  24
HETATM   24  C   UNL     1       7.493   2.289  -1.171  1.00  0.00     0.058 C 
BRANCH  24  25
HETATM   25  C   UNL     1       8.111   2.734  -2.478  1.00  0.00    -0.054 A 
HETATM   26  C   UNL     1       7.405   2.618  -3.684  1.00  0.00     0.046 A 
HETATM   27  C   UNL     1       7.936   3.087  -4.892  1.00  0.00     0.102 A 
HETATM   28  C   UNL     1       9.205   3.694  -4.901  1.00  0.00     0.101 A 
HETATM   29  C   UNL     1       9.906   3.832  -3.698  1.00  0.00     0.040 A 
HETATM   30  C   UNL     1       9.361   3.360  -2.498  1.00  0.00     0.010 A 
BRANCH  27  31
HETATM   31  O   UNL     1       7.295   2.989  -6.103  1.00  0.00    -0.353 OA
HETATM   32  C   UNL     1       5.919   2.626  -6.077  1.00  0.00     0.210 C 
ENDBRANCH  27  31
BRANCH  28  33
HETATM   33  O   UNL     1       9.656   4.130  -6.122  1.00  0.00    -0.353 OA
HETATM   34  C   UNL     1      10.939   4.733  -6.174  1.00  0.00     0.210 C 
ENDBRANCH  28  33
ENDBRANCH  24  25
ENDBRANCH  23  24
ENDBRANCH  20  23
ENDBRANCH   3  19
TORSDOF 10
