REMARK  3 active torsions:
REMARK  status: ('A' for Active; 'I' for Inactive)
REMARK       I    between atoms: C_2  and  N_3 
REMARK    1  A    between atoms: N_3  and  C_4 
REMARK    2  A    between atoms: C_7  and  N_8 
REMARK       I    between atoms: N_8  and  C_9 
REMARK    3  A    between atoms: C_9  and  C_10 
ROOT
HETATM    1  C   UNL     1       2.864   1.112  -2.289  1.00  0.00     0.034 A 
HETATM    2  C   UNL     1       2.313   0.478  -3.407  1.00  0.00     0.032 A 
HETATM    3  C   UNL     1       1.743   1.221  -4.449  1.00  0.00     0.032 A 
HETATM    4  C   UNL     1       1.709   2.613  -4.388  1.00  0.00     0.035 A 
HETATM    5  C   UNL     1       2.244   3.246  -3.261  1.00  0.00     0.032 A 
HETATM    6  C   UNL     1       2.816   2.503  -2.221  1.00  0.00     0.032 A 
ENDROOT
BRANCH   4   7
HETATM    7  N   UNL     1       1.196   3.439  -5.410  1.00  0.00    -0.323 N 
HETATM    8  C   UNL     1       0.595   3.035  -6.589  1.00  0.00     0.257 C 
HETATM    9  O   UNL     1       0.283   1.892  -6.900  1.00  0.00    -0.267 OA
HETATM   10  H   UNL     1       1.251   4.432  -5.229  1.00  0.00     0.169 HD
BRANCH   8  11
HETATM   11  C   UNL     1       0.285   4.124  -7.549  1.00  0.00     0.050 A 
HETATM   12  C   UNL     1      -0.794   3.969  -8.414  1.00  0.00     0.135 A 
HETATM   13  N   UNL     1      -1.161   4.890  -9.339  1.00  0.00    -0.248 NA
HETATM   14  C   UNL     1      -0.402   6.001  -9.414  1.00  0.00     0.125 A 
HETATM   15 CL   UNL     1      -0.893   7.132 -10.604  1.00  0.00    -0.063 Cl
HETATM   16  C   UNL     1       0.704   6.245  -8.615  1.00  0.00     0.045 A 
HETATM   17  C   UNL     1       1.056   5.285  -7.666  1.00  0.00     0.022 A 
ENDBRANCH   8  11
ENDBRANCH   4   7
BRANCH   1  18
HETATM   18  N   UNL     1       3.446   0.291  -1.302  1.00  0.00    -0.328 N 
HETATM   19  C   UNL     1       4.076   0.693  -0.137  1.00  0.00     0.218 C 
HETATM   20  C   UNL     1       4.607  -0.481   0.647  1.00  0.00     0.117 C 
HETATM   21  O   UNL     1       4.220   1.840   0.269  1.00  0.00    -0.274 OA
HETATM   22  H   UNL     1       3.414  -0.705  -1.479  1.00  0.00     0.169 HD
ENDBRANCH   1  18
TORSDOF 3
