REMARK  5 active torsions:
REMARK  status: ('A' for Active; 'I' for Inactive)
REMARK    1  A    between atoms: C_3  and  O_4 
REMARK    2  A    between atoms: C_5  and  C_6 
REMARK       I    between atoms: C_6  and  N_7 
REMARK    3  A    between atoms: N_7  and  C_8 
REMARK    4  A    between atoms: C_8  and  C_9 
REMARK    5  A    between atoms: C_9  and  C_10 
ROOT
HETATM    1  C   UNL     1       5.343  -2.199  -0.155  1.00  0.00     0.254 C 
HETATM    2  N   UNL     1       6.711  -2.304  -0.076  1.00  0.00    -0.356 N 
HETATM    3  O   UNL     1       4.762  -1.120  -0.074  1.00  0.00    -0.268 OA
HETATM    4  H   UNL     1       7.094  -3.245  -0.006  1.00  0.00     0.162 HD
ENDROOT
BRANCH   2   5
HETATM    5  C   UNL     1       7.559  -1.164   0.204  1.00  0.00     0.136 C 
BRANCH   5   6
HETATM    6  C   UNL     1       9.080  -1.483   0.103  1.00  0.00    -0.004 C 
HETATM    7  C   UNL     1       9.400  -1.835  -1.370  1.00  0.00     0.021 C 
HETATM    8  C   UNL     1       9.871  -0.198   0.440  1.00  0.00     0.021 C 
BRANCH   6   9
HETATM    9  C   UNL     1       9.481  -2.585   1.103  1.00  0.00    -0.046 A 
HETATM   10  C   UNL     1      10.139  -3.760   0.716  1.00  0.00     0.027 A 
HETATM   11  C   UNL     1      10.455  -4.714   1.676  1.00  0.00     0.116 A 
HETATM   12  N   UNL     1      10.165  -4.592   2.986  1.00  0.00    -0.273 NA
HETATM   13  C   UNL     1       9.543  -3.455   3.355  1.00  0.00     0.116 A 
HETATM   14  C   UNL     1       9.190  -2.446   2.470  1.00  0.00     0.027 A 
ENDBRANCH   6   9
ENDBRANCH   5   6
ENDBRANCH   2   5
BRANCH   1  15
HETATM   15  C   UNL     1       4.572  -3.470  -0.357  1.00  0.00     0.065 A 
HETATM   16  C   UNL     1       5.137  -4.761  -0.344  1.00  0.00     0.087 A 
HETATM   17  C   UNL     1       4.347  -5.897  -0.606  1.00  0.00    -0.028 A 
HETATM   18  C   UNL     1       4.917  -7.288  -0.654  1.00  0.00     0.051 C 
HETATM   19  C   UNL     1       2.969  -5.729  -0.812  1.00  0.00     0.009 A 
HETATM   20  C   UNL     1       2.394  -4.461  -0.792  1.00  0.00     0.002 A 
HETATM   21  C   UNL     1       3.192  -3.339  -0.575  1.00  0.00     0.020 A 
BRANCH  16  22
HETATM   22  O   UNL     1       6.474  -4.913  -0.069  1.00  0.00    -0.359 OA
HETATM   23  H   UNL     1       6.621  -5.807   0.286  1.00  0.00     0.218 HD
ENDBRANCH  16  22
ENDBRANCH   1  15
TORSDOF 5
