REMARK  7 active torsions:
REMARK  status: ('A' for Active; 'I' for Inactive)
REMARK    1  A    between atoms: O_2  and  C_3 
REMARK    2  A    between atoms: C_3  and  C_4 
REMARK    3  A    between atoms: C_8  and  C_9 
REMARK    4  A    between atoms: C_9  and  N_10 
REMARK    5  A    between atoms: C_13  and  C_14 
REMARK    6  A    between atoms: C_14  and  N_15 
REMARK       I    between atoms: N_15  and  C_16 
REMARK       I    between atoms: C_16  and  N_17 
REMARK    7  A    between atoms: N_17  and  C_18 
ROOT
HETATM    1  N   UNL     1       2.520   5.992  -1.600  1.00  0.00    -0.067 N 
HETATM    2  H   UNL     1       3.530   5.856  -1.733  1.00  0.00     0.280 HD
HETATM    3  C   UNL     1       2.274   7.485  -1.685  1.00  0.00     0.241 C 
HETATM    4  C   UNL     1       3.132   8.181  -0.628  1.00  0.00     0.029 C 
HETATM    5  C   UNL     1       2.788   7.649   0.772  1.00  0.00     0.009 C 
HETATM    6  C   UNL     1       2.948   6.133   0.833  1.00  0.00     0.028 C 
HETATM    7  C   UNL     1       2.149   5.430  -0.255  1.00  0.00     0.235 C 
ENDROOT
BRANCH   4   8
HETATM    8  C   UNL     1       2.995   9.713  -0.669  1.00  0.00     0.130 C 
BRANCH   8   9
HETATM    9  N   UNL     1       3.121  10.348  -1.973  1.00  0.00    -0.342 N 
HETATM   10  C   UNL     1       4.162  10.068  -2.842  1.00  0.00     0.320 C 
HETATM   11  N   UNL     1       4.174  10.948  -3.899  1.00  0.00    -0.309 N 
HETATM   12  O   UNL     1       4.904   9.110  -2.676  1.00  0.00    -0.247 OA
HETATM   13  H   UNL     1       3.396  11.588  -3.963  1.00  0.00     0.170 HD
HETATM   14  H   UNL     1       2.845  11.322  -1.984  1.00  0.00     0.164 HD
BRANCH  11  15
HETATM   15  C   UNL     1       5.111  11.013  -4.952  1.00  0.00     0.039 A 
HETATM   16  C   UNL     1       6.249  10.211  -5.034  1.00  0.00     0.071 A 
HETATM   17  C   UNL     1       7.125  10.361  -6.107  1.00  0.00     0.118 A 
HETATM   18  F   UNL     1       8.215   9.585  -6.176  1.00  0.00    -0.206 F 
HETATM   19  C   UNL     1       6.892  11.296  -7.106  1.00  0.00     0.042 A 
HETATM   20  C   UNL     1       5.762  12.103  -7.032  1.00  0.00     0.005 A 
HETATM   21  C   UNL     1       4.876  11.963  -5.959  1.00  0.00     0.030 A 
ENDBRANCH  11  15
ENDBRANCH   8   9
ENDBRANCH   4   8
BRANCH   1  22
HETATM   22  C   UNL     1       1.864   5.225  -2.723  1.00  0.00     0.274 C 
BRANCH  22  23
HETATM   23  C   UNL     1       2.413   5.515  -4.081  1.00  0.00    -0.015 A 
HETATM   24  C   UNL     1       1.690   5.571  -5.258  1.00  0.00     0.097 A 
HETATM   25  N   UNL     1       2.552   5.833  -6.292  1.00  0.00    -0.360 N 
HETATM   26  C   UNL     1       3.835   5.958  -5.814  1.00  0.00     0.108 A 
HETATM   27  H   UNL     1       2.304   5.917  -7.274  1.00  0.00     0.165 HD
HETATM   28  C   UNL     1       3.773   5.757  -4.446  1.00  0.00     0.046 A 
BRANCH  26  29
HETATM   29  C   UNL     1       4.952   6.238  -6.687  1.00  0.00     0.309 C 
HETATM   30  O   UNL     1       4.857   6.375  -7.899  1.00  0.00    -0.258 OA
BRANCH  29  31
HETATM   31  O   UNL     1       6.101   6.311  -5.965  1.00  0.00    -0.321 OA
HETATM   32  C   UNL     1       7.265   6.579  -6.749  1.00  0.00     0.213 C 
ENDBRANCH  29  31
ENDBRANCH  26  29
ENDBRANCH  22  23
ENDBRANCH   1  22
TORSDOF 7
