REMARK  3 active torsions:
REMARK  status: ('A' for Active; 'I' for Inactive)
REMARK    1  A    between atoms: C_7  and  C_8 
REMARK       I    between atoms: C_8  and  N_9 
REMARK    2  A    between atoms: N_9  and  C_10 
REMARK    3  A    between atoms: C_11  and  O_12 
ROOT
HETATM    1  C   UNL     1       4.097  -4.614   0.148  1.00  0.00     0.252 C 
HETATM    2  N   UNL     1       2.796  -5.014  -0.056  1.00  0.00    -0.346 N 
HETATM    3  O   UNL     1       5.026  -5.411   0.223  1.00  0.00    -0.268 OA
HETATM    4  H   UNL     1       2.033  -4.363   0.049  1.00  0.00     0.163 HD
ENDROOT
BRANCH   1   5
HETATM    5  C   UNL     1       4.351  -3.148   0.283  1.00  0.00     0.033 A 
HETATM    6  C   UNL     1       5.588  -2.745   0.800  1.00  0.00     0.019 A 
HETATM    7  C   UNL     1       5.924  -1.392   0.918  1.00  0.00     0.031 A 
HETATM    8  C   UNL     1       4.978  -0.453   0.496  1.00  0.00     0.043 A 
HETATM    9  C   UNL     1       3.735  -0.809  -0.023  1.00  0.00    -0.001 A 
HETATM   10  N   UNL     1       5.046   0.920   0.480  1.00  0.00    -0.359 N 
HETATM   11  C   UNL     1       3.041   0.404  -0.344  1.00  0.00    -0.027 A 
HETATM   12  C   UNL     1       3.420  -2.182  -0.137  1.00  0.00     0.031 A 
HETATM   13  C   UNL     1       1.671   0.528  -0.912  1.00  0.00     0.051 C 
HETATM   14  C   UNL     1       3.888   1.454  -0.027  1.00  0.00     0.012 A 
HETATM   15  C   UNL     1       3.703   2.921  -0.168  1.00  0.00     0.068 C 
HETATM   16  H   UNL     1       5.846   1.453   0.791  1.00  0.00     0.166 HD
ENDBRANCH   1   5
BRANCH   2  17
HETATM   17  C   UNL     1       2.464  -6.412  -0.249  1.00  0.00     0.147 C 
HETATM   18  C   UNL     1       2.234  -7.189   1.082  1.00  0.00     0.149 C 
HETATM   19  C   UNL     1       0.730  -7.080   1.405  1.00  0.00     0.073 C 
HETATM   20  C   UNL     1       0.135  -6.911   0.038  1.00  0.00    -0.047 A 
HETATM   21  C   UNL     1       1.109  -6.531  -0.893  1.00  0.00    -0.027 A 
HETATM   22  C   UNL     1      -1.192  -7.043  -0.334  1.00  0.00     0.008 A 
HETATM   23  C   UNL     1       0.775  -6.277  -2.215  1.00  0.00     0.010 A 
HETATM   24  C   UNL     1      -0.558  -6.419  -2.600  1.00  0.00     0.001 A 
HETATM   25  C   UNL     1      -1.535  -6.799  -1.667  1.00  0.00     0.001 A 
BRANCH  18  26
HETATM   26  O   UNL     1       2.584  -8.577   0.940  1.00  0.00    -0.393 OA
HETATM   27  H   UNL     1       2.089  -8.929   0.179  1.00  0.00     0.210 HD
ENDBRANCH  18  26
ENDBRANCH   2  17
TORSDOF 3
