REMARK  6 active torsions:
REMARK  status: ('A' for Active; 'I' for Inactive)
REMARK    1  A    between atoms: O_2  and  C_3 
REMARK    2  A    between atoms: C_6  and  C_7 
REMARK    3  A    between atoms: C_7  and  N_8 
REMARK       I    between atoms: N_8  and  C_9 
REMARK    4  A    between atoms: C_9  and  C_10 
REMARK    5  A    between atoms: C_10  and  O_11 
REMARK    6  A    between atoms: N_12  and  C_13 
ROOT
HETATM    1  C   UNL     1       5.263   6.930  -3.779  1.00  0.00     0.256 C 
HETATM    2  N   UNL     1       4.740   6.870  -5.148  1.00  0.00    -0.248 N 
HETATM    3  C   UNL     1       5.343   7.606  -6.153  1.00  0.00     0.330 C 
HETATM    4  O   UNL     1       5.259   7.344  -7.353  1.00  0.00    -0.246 OA
HETATM    5  N   UNL     1       6.110   8.669  -5.777  1.00  0.00    -0.308 N 
HETATM    6  C   UNL     1       6.267   9.111  -4.470  1.00  0.00     0.048 A 
HETATM    7  C   UNL     1       5.813   8.302  -3.434  1.00  0.00     0.034 A 
HETATM    8  C   UNL     1       6.870  10.343  -4.217  1.00  0.00     0.030 A 
HETATM    9  C   UNL     1       7.013  10.783  -2.902  1.00  0.00     0.002 A 
HETATM   10  C   UNL     1       6.564   9.989  -1.849  1.00  0.00     0.001 A 
HETATM   11  C   UNL     1       5.974   8.751  -2.112  1.00  0.00     0.015 A 
HETATM   12  H   UNL     1       6.456   9.228  -6.546  1.00  0.00     0.170 HD
ENDROOT
BRANCH   1  13
HETATM   13  C   UNL     1       6.399   5.859  -3.501  1.00  0.00     0.279 C 
HETATM   14  N   UNL     1       7.281   5.562  -4.522  1.00  0.00    -0.352 N 
HETATM   15  H   UNL     1       7.026   5.810  -5.469  1.00  0.00     0.162 HD
HETATM   16  O   UNL     1       6.511   5.361  -2.375  1.00  0.00    -0.268 OA
BRANCH  14  17
HETATM   17  C   UNL     1       8.207   4.467  -4.351  1.00  0.00     0.161 C 
BRANCH  17  18
HETATM   18  C   UNL     1       9.343   4.514  -5.336  1.00  0.00    -0.040 A 
HETATM   19  C   UNL     1      10.298   5.538  -5.269  1.00  0.00     0.011 A 
HETATM   20  C   UNL     1      11.407   5.540  -6.122  1.00  0.00     0.037 A 
HETATM   21  C   UNL     1      11.576   4.516  -7.053  1.00  0.00     0.068 A 
HETATM   22  C   UNL     1      10.608   3.516  -7.150  1.00  0.00     0.037 A 
HETATM   23  C   UNL     1       9.501   3.509  -6.297  1.00  0.00     0.011 A 
BRANCH  21  24
HETATM   24  O   UNL     1      12.627   4.386  -7.919  1.00  0.00    -0.356 OA
HETATM   25  C   UNL     1      13.777   5.176  -7.641  1.00  0.00     0.210 C 
ENDBRANCH  21  24
ENDBRANCH  17  18
ENDBRANCH  14  17
ENDBRANCH   1  13
BRANCH   1  26
HETATM   26  O   UNL     1       4.170   6.715  -2.873  1.00  0.00    -0.359 OA
HETATM   27  H   UNL     1       4.432   5.933  -2.349  1.00  0.00     0.213 HD
ENDBRANCH   1  26
BRANCH   2  28
HETATM   28  C   UNL     1       3.665   5.975  -5.486  1.00  0.00     0.120 A 
HETATM   29  C   UNL     1       3.528   4.697  -4.929  1.00  0.00     0.146 A 
HETATM   30  F   UNL     1       4.446   4.213  -4.081  1.00  0.00    -0.204 F 
HETATM   31  C   UNL     1       2.467   3.852  -5.266  1.00  0.00     0.045 A 
HETATM   32  C   UNL     1       1.494   4.278  -6.164  1.00  0.00     0.006 A 
HETATM   33  C   UNL     1       1.589   5.551  -6.718  1.00  0.00     0.045 A 
HETATM   34  C   UNL     1       2.660   6.382  -6.380  1.00  0.00     0.146 A 
HETATM   35  F   UNL     1       2.648   7.631  -6.872  1.00  0.00    -0.204 F 
ENDBRANCH   2  28
TORSDOF 6
