REMARK  5 active torsions:
REMARK  status: ('A' for Active; 'I' for Inactive)
REMARK    1  A    between atoms: C_8  and  C_9 
REMARK    2  A    between atoms: C_9  and  N_10 
REMARK    3  A    between atoms: N_10  and  C_13 
REMARK    4  A    between atoms: C_13  and  C_14 
REMARK    5  A    between atoms: C_13  and  C_19 
ROOT
HETATM    1  N   UNL     1       2.542  -5.224   1.047  1.00  0.00    -0.056 N 
HETATM    2  H   UNL     1       1.526  -5.080   0.955  1.00  0.00     0.278 HD
HETATM    3  H   UNL     1       2.803  -4.655   1.861  1.00  0.00     0.278 HD
ENDROOT
BRANCH   1   4
HETATM    4  C   UNL     1       2.793  -6.657   1.331  1.00  0.00     0.275 C 
BRANCH   4   5
HETATM    5  C   UNL     1       2.041  -7.129   2.535  1.00  0.00     0.004 A 
HETATM    6  C   UNL     1       0.684  -6.880   2.682  1.00  0.00     0.113 A 
HETATM    7  C   UNL     1      -0.036  -7.334   3.762  1.00  0.00     0.105 A 
HETATM    8  O   UNL     1      -0.085  -6.158   1.815  1.00  0.00    -0.322 OA
HETATM    9  C   UNL     1       0.553  -8.070   4.765  1.00  0.00     0.040 A 
HETATM   10  O   UNL     1      -1.343  -6.972   3.706  1.00  0.00    -0.323 OA
HETATM   11  C   UNL     1       1.917  -8.350   4.650  1.00  0.00     0.003 A 
HETATM   12  C   UNL     1       2.656  -7.889   3.543  1.00  0.00     0.012 A 
HETATM   13  C   UNL     1      -1.389  -6.275   2.448  1.00  0.00     0.352 A 
ENDBRANCH   4   5
ENDBRANCH   1   4
BRANCH   1  14
HETATM   14  C   UNL     1       3.212  -4.657  -0.168  1.00  0.00     0.292 C 
BRANCH  14  15
HETATM   15  C   UNL     1       3.026  -3.170  -0.308  1.00  0.00     0.190 A 
HETATM   16  N   UNL     1       2.007  -2.530   0.289  1.00  0.00    -0.109 NA
HETATM   17  O   UNL     1       2.235  -1.191  -0.052  1.00  0.00    -0.205 OA
HETATM   18  C   UNL     1       3.383  -1.170  -0.781  1.00  0.00     0.288 A 
HETATM   19  N   UNL     1       3.926  -2.353  -0.943  1.00  0.00    -0.215 NA
ENDBRANCH  14  15
BRANCH  14  20
HETATM   20  C   UNL     1       2.701  -5.264  -1.464  1.00  0.00    -0.020 A 
HETATM   21  C   UNL     1       3.603  -5.910  -2.330  1.00  0.00     0.011 A 
HETATM   22  C   UNL     1       3.156  -6.506  -3.513  1.00  0.00     0.024 A 
HETATM   23  C   UNL     1       1.805  -6.463  -3.847  1.00  0.00     0.034 A 
HETATM   24 CL   UNL     1       1.258  -7.198  -5.300  1.00  0.00    -0.084 Cl
HETATM   25  C   UNL     1       0.896  -5.825  -3.008  1.00  0.00     0.024 A 
HETATM   26  C   UNL     1       1.338  -5.230  -1.822  1.00  0.00     0.011 A 
ENDBRANCH  14  20
ENDBRANCH   1  14
TORSDOF 5
