REMARK  6 active torsions:
REMARK  status: ('A' for Active; 'I' for Inactive)
REMARK    1  A    between atoms: C_3  and  N_4 
REMARK       I    between atoms: N_4  and  C_5 
REMARK       I    between atoms: C_5  and  N_6 
REMARK    2  A    between atoms: N_6  and  C_7 
REMARK    3  A    between atoms: C_7  and  C_8 
REMARK    4  A    between atoms: C_8  and  N_9 
REMARK    5  A    between atoms: C_8  and  C_13 
REMARK    6  A    between atoms: C_20  and  C_21 
ROOT
HETATM    1  N   UNL     1       2.513   4.397  -0.560  1.00  0.00    -0.309 N 
HETATM    2  C   UNL     1       3.367   3.329  -0.473  1.00  0.00     0.320 C 
HETATM    3  N   UNL     1       4.653   3.719  -0.190  1.00  0.00    -0.340 N 
HETATM    4  O   UNL     1       3.097   2.142  -0.617  1.00  0.00    -0.247 OA
HETATM    5  H   UNL     1       2.949   5.245  -0.900  1.00  0.00     0.170 HD
HETATM    6  H   UNL     1       4.827   4.715  -0.140  1.00  0.00     0.164 HD
ENDROOT
BRANCH   1   7
HETATM    7  C   UNL     1       1.118   4.331  -0.793  1.00  0.00     0.043 A 
HETATM    8  C   UNL     1       0.238   3.394  -0.226  1.00  0.00    -0.035 A 
HETATM    9  C   UNL     1       0.631   2.367   0.798  1.00  0.00     0.050 C 
HETATM   10  C   UNL     1      -1.119   3.432  -0.600  1.00  0.00     0.010 A 
HETATM   11  C   UNL     1      -1.609   4.410  -1.470  1.00  0.00     0.016 A 
HETATM   12  C   UNL     1      -0.755   5.385  -1.987  1.00  0.00     0.019 A 
HETATM   13  C   UNL     1       0.601   5.336  -1.632  1.00  0.00     0.046 A 
BRANCH  12  14
HETATM   14  C   UNL     1      -1.221   6.437  -2.886  1.00  0.00     0.179 A 
HETATM   15  O   UNL     1      -2.560   6.463  -3.177  1.00  0.00    -0.302 OA
HETATM   16  C   UNL     1      -2.698   7.527  -4.016  1.00  0.00     0.163 A 
HETATM   17  C   UNL     1      -1.460   8.089  -4.195  1.00  0.00     0.144 A 
HETATM   18  N   UNL     1      -0.523   7.392  -3.474  1.00  0.00    -0.234 NA
ENDBRANCH  12  14
ENDBRANCH   1   7
BRANCH   3  19
HETATM   19  C   UNL     1       5.818   2.847  -0.353  1.00  0.00     0.164 C 
BRANCH  19  20
HETATM   20  C   UNL     1       5.880   1.586   0.570  1.00  0.00     0.261 C 
BRANCH  20  21
HETATM   21  N   UNL     1       4.886   0.507   0.141  1.00  0.00    -0.067 N 
HETATM   22  H   UNL     1       4.023   1.033  -0.112  1.00  0.00     0.280 HD
HETATM   23  C   UNL     1       5.239  -0.249  -1.104  1.00  0.00     0.270 C 
HETATM   24  C   UNL     1       4.492  -0.407   1.255  1.00  0.00     0.270 C 
ENDBRANCH  20  21
BRANCH  20  25
HETATM   25  C   UNL     1       7.285   1.079   0.680  1.00  0.00     0.085 A 
HETATM   26  O   UNL     1       7.963   0.897  -0.492  1.00  0.00    -0.325 OA
HETATM   27  C   UNL     1       9.203   0.448  -0.171  1.00  0.00     0.142 A 
HETATM   28  C   UNL     1       9.331   0.328   1.192  1.00  0.00     0.027 A 
HETATM   29  C   UNL     1       8.092   0.735   1.746  1.00  0.00     0.037 A 
ENDBRANCH  20  25
ENDBRANCH  19  20
ENDBRANCH   3  19
TORSDOF 6
