REMARK  6 active torsions:
REMARK  status: ('A' for Active; 'I' for Inactive)
REMARK    1  A    between atoms: C_3  and  N_4 
REMARK       I    between atoms: N_4  and  C_5 
REMARK       I    between atoms: C_5  and  N_6 
REMARK    2  A    between atoms: N_6  and  C_7 
REMARK    3  A    between atoms: C_7  and  C_8 
REMARK    4  A    between atoms: C_10  and  C_11 
REMARK       I    between atoms: C_11  and  N_12 
REMARK    5  A    between atoms: N_12  and  C_13 
REMARK    6  A    between atoms: C_13  and  C_14 
ROOT
HETATM    1  C   UNL     1       6.831   3.045  -0.299  1.00  0.00    -0.040 A 
HETATM    2  C   UNL     1       7.549   4.251  -0.322  1.00  0.00     0.026 A 
HETATM    3  C   UNL     1       8.927   4.260  -0.567  1.00  0.00     0.032 A 
HETATM    4  C   UNL     1       9.603   3.050  -0.748  1.00  0.00     0.017 A 
HETATM    5  C   UNL     1       8.898   1.845  -0.726  1.00  0.00     0.002 A 
HETATM    6  C   UNL     1       7.518   1.843  -0.515  1.00  0.00     0.009 A 
ENDROOT
BRANCH   1   7
HETATM    7  C   UNL     1       5.339   3.065  -0.082  1.00  0.00     0.162 C 
BRANCH   7   8
HETATM    8  N   UNL     1       4.599   3.047  -1.328  1.00  0.00    -0.339 N 
HETATM    9  C   UNL     1       4.470   4.198  -2.086  1.00  0.00     0.321 C 
HETATM   10  N   UNL     1       3.676   3.952  -3.182  1.00  0.00    -0.307 N 
HETATM   11  O   UNL     1       5.029   5.246  -1.802  1.00  0.00    -0.247 OA
HETATM   12  H   UNL     1       3.706   2.982  -3.463  1.00  0.00     0.170 HD
HETATM   13  H   UNL     1       3.788   2.448  -1.344  1.00  0.00     0.164 HD
BRANCH  10  14
HETATM   14  C   UNL     1       3.211   4.859  -4.164  1.00  0.00     0.059 A 
HETATM   15  C   UNL     1       2.987   6.236  -4.017  1.00  0.00    -0.032 A 
HETATM   16  C   UNL     1       3.158   7.015  -2.746  1.00  0.00     0.050 C 
HETATM   17  C   UNL     1       2.548   6.962  -5.143  1.00  0.00     0.028 A 
HETATM   18  C   UNL     1       2.293   6.304  -6.334  1.00  0.00     0.117 A 
HETATM   19  N   UNL     1       2.442   4.978  -6.493  1.00  0.00    -0.271 NA
HETATM   20  C   UNL     1       2.894   4.301  -5.412  1.00  0.00     0.146 A 
ENDBRANCH  10  14
ENDBRANCH   7   8
ENDBRANCH   1   7
BRANCH   3  21
HETATM   21  C   UNL     1       9.699   5.531  -0.625  1.00  0.00     0.252 C 
HETATM   22  N   UNL     1       9.016   6.638  -1.068  1.00  0.00    -0.351 N 
HETATM   23  H   UNL     1       8.048   6.578  -1.363  1.00  0.00     0.163 HD
HETATM   24  O   UNL     1      10.883   5.552  -0.306  1.00  0.00    -0.268 OA
BRANCH  22  25
HETATM   25  C   UNL     1       9.626   7.945  -1.070  1.00  0.00     0.187 C 
BRANCH  25  26
HETATM   26  C   UNL     1       8.749   8.898  -1.797  1.00  0.00     0.070 A 
HETATM   27  O   UNL     1       7.405   8.810  -1.564  1.00  0.00    -0.325 OA
HETATM   28  C   UNL     1       6.804   9.753  -2.332  1.00  0.00     0.142 A 
HETATM   29  C   UNL     1       7.741  10.460  -3.048  1.00  0.00     0.027 A 
HETATM   30  C   UNL     1       8.999   9.909  -2.703  1.00  0.00     0.036 A 
ENDBRANCH  25  26
ENDBRANCH  22  25
ENDBRANCH   3  21
TORSDOF 6
