REMARK  8 active torsions:
REMARK  status: ('A' for Active; 'I' for Inactive)
REMARK    1  A    between atoms: C_2  and  C_3 
REMARK    2  A    between atoms: C_3  and  O_4 
REMARK    3  A    between atoms: O_4  and  C_5 
REMARK    4  A    between atoms: C_8  and  C_9 
REMARK    5  A    between atoms: C_13  and  C_14 
REMARK       I    between atoms: C_14  and  N_15 
REMARK    6  A    between atoms: N_15  and  N_16 
REMARK    7  A    between atoms: C_17  and  C_18 
REMARK    8  A    between atoms: C_20  and  O_21 
ROOT
HETATM    1  C   UNL     1       6.478  -5.980  -3.029  1.00  0.00     0.089 A 
HETATM    2  N   UNL     1       7.239  -6.023  -4.134  1.00  0.00    -0.174 NA
HETATM    3  N   UNL     1       7.322  -7.328  -4.439  1.00  0.00    -0.272 N 
HETATM    4  H   UNL     1       7.843  -7.610  -5.265  1.00  0.00     0.189 HD
HETATM    5  C   UNL     1       6.676  -8.152  -3.560  1.00  0.00     0.121 A 
HETATM    6  C   UNL     1       6.117  -7.298  -2.631  1.00  0.00     0.071 A 
ENDROOT
BRANCH   5   7
HETATM    7  C   UNL     1       6.666  -9.586  -3.723  1.00  0.00     0.289 C 
HETATM    8  N   UNL     1       6.039 -10.267  -2.690  1.00  0.00    -0.242 N 
HETATM    9  H   UNL     1       5.672  -9.758  -1.898  1.00  0.00     0.192 HD
HETATM   10  O   UNL     1       7.178 -10.121  -4.702  1.00  0.00    -0.264 OA
BRANCH   8  11
HETATM   11  N   UNL     1       5.888 -11.622  -2.730  1.00  0.00    -0.184 NA
HETATM   12  C   UNL     1       5.300 -12.138  -1.698  1.00  0.00     0.150 C 
BRANCH  12  13
HETATM   13  C   UNL     1       5.029 -13.584  -1.590  1.00  0.00    -0.014 A 
HETATM   14  C   UNL     1       5.375 -14.456  -2.629  1.00  0.00     0.049 A 
HETATM   15  C   UNL     1       5.093 -15.817  -2.513  1.00  0.00     0.069 A 
HETATM   16  C   UNL     1       4.470 -16.292  -1.354  1.00  0.00     0.037 A 
HETATM   17  C   UNL     1       4.127 -15.422  -0.317  1.00  0.00     0.004 A 
HETATM   18  C   UNL     1       4.406 -14.062  -0.433  1.00  0.00     0.013 A 
BRANCH  15  19
HETATM   19  O   UNL     1       5.367 -16.778  -3.447  1.00  0.00    -0.356 OA
HETATM   20  C   UNL     1       5.982 -16.341  -4.653  1.00  0.00     0.210 C 
ENDBRANCH  15  19
ENDBRANCH  12  13
ENDBRANCH   8  11
ENDBRANCH   5   7
BRANCH   1  21
HETATM   21  C   UNL     1       6.120  -4.722  -2.370  1.00  0.00    -0.005 A 
HETATM   22  C   UNL     1       5.000  -4.648  -1.530  1.00  0.00     0.016 A 
HETATM   23  C   UNL     1       4.673  -3.459  -0.867  1.00  0.00     0.037 A 
HETATM   24  C   UNL     1       5.465  -2.324  -1.031  1.00  0.00     0.068 A 
HETATM   25  C   UNL     1       6.567  -2.382  -1.886  1.00  0.00     0.037 A 
HETATM   26  C   UNL     1       6.894  -3.570  -2.551  1.00  0.00     0.016 A 
BRANCH  24  27
HETATM   27  O   UNL     1       5.263  -1.114  -0.425  1.00  0.00    -0.351 OA
BRANCH  27  28
HETATM   28  C   UNL     1       4.248  -1.060   0.577  1.00  0.00     0.175 C 
BRANCH  28  29
HETATM   29  C   UNL     1       4.286   0.321   1.222  1.00  0.00     0.022 C 
HETATM   30  C   UNL     1       3.243   0.458   2.317  1.00  0.00     0.007 C 
ENDBRANCH  28  29
ENDBRANCH  27  28
ENDBRANCH  24  27
ENDBRANCH   1  21
TORSDOF 8
