REMARK  5 active torsions:
REMARK  status: ('A' for Active; 'I' for Inactive)
REMARK    1  A    between atoms: C_2  and  O_3 
REMARK    2  A    between atoms: C_4  and  C_5 
REMARK    3  A    between atoms: C_5  and  O_6 
REMARK    4  A    between atoms: C_9  and  C_10 
REMARK    5  A    between atoms: C_22  and  O_23 
ROOT
HETATM    1  C   UNL     1       1.097  -0.357  -0.201  1.00  0.00     0.047 C 
HETATM    2  C   UNL     1       2.496   0.051   0.288  1.00  0.00     0.073 C 
HETATM    3  C   UNL     1       2.926   1.435  -0.304  1.00  0.00     0.133 C 
HETATM    4  C   UNL     1       3.426   1.454  -1.781  1.00  0.00     0.074 C 
HETATM    5  C   UNL     1       4.041   0.156  -2.175  1.00  0.00     0.030 A 
HETATM    6  C   UNL     1       4.057  -0.966  -1.373  1.00  0.00     0.042 A 
HETATM    7  N   UNL     1       4.748  -1.929  -2.052  1.00  0.00    -0.279 N 
HETATM    8  H   UNL     1       4.966  -2.878  -1.762  1.00  0.00     0.189 HD
HETATM    9  N   UNL     1       5.204  -1.500  -3.248  1.00  0.00    -0.149 NA
HETATM   10  C   UNL     1       4.788  -0.241  -3.285  1.00  0.00     0.190 A 
HETATM   11  C   UNL     1       3.508  -1.092  -0.004  1.00  0.00     0.097 C 
ENDROOT
BRANCH   4  12
HETATM   12  C   UNL     1       2.328   1.817  -2.778  1.00  0.00    -0.048 A 
HETATM   13  C   UNL     1       2.064   3.186  -2.984  1.00  0.00     0.009 A 
HETATM   14  C   UNL     1       1.070   3.608  -3.872  1.00  0.00     0.019 A 
HETATM   15  C   UNL     1       0.318   2.665  -4.564  1.00  0.00     0.011 A 
HETATM   16 BR   UNL     1      -1.024   3.230  -5.767  1.00  0.00    -0.051 Br
HETATM   17  C   UNL     1       0.553   1.307  -4.376  1.00  0.00     0.019 A 
HETATM   18  C   UNL     1       1.551   0.888  -3.490  1.00  0.00     0.009 A 
ENDBRANCH   4  12
BRANCH   3  19
HETATM   19  C   UNL     1       3.969   2.084   0.587  1.00  0.00     0.266 C 
HETATM   20  O   UNL     1       3.687   2.957   1.402  1.00  0.00    -0.265 OA
BRANCH  19  21
HETATM   21  O   UNL     1       5.216   1.586   0.389  1.00  0.00    -0.326 OA
HETATM   22  C   UNL     1       6.229   2.182   1.200  1.00  0.00     0.213 C 
ENDBRANCH  19  21
ENDBRANCH   3  19
BRANCH   2  23
HETATM   23  O   UNL     1       2.371   0.144   1.721  1.00  0.00    -0.389 OA
HETATM   24  H   UNL     1       1.790   0.896   1.937  1.00  0.00     0.210 HD
ENDBRANCH   2  23
BRANCH  10  25
HETATM   25  O   UNL     1       5.149   0.448  -4.361  1.00  0.00    -0.343 OA
HETATM   26  H   UNL     1       5.659  -0.183  -4.896  1.00  0.00     0.219 HD
ENDBRANCH  10  25
TORSDOF 5
