REMARK  8 active torsions:
REMARK  status: ('A' for Active; 'I' for Inactive)
REMARK    1  A    between atoms: C_7  and  C_8 
REMARK       I    between atoms: C_8  and  N_9 
REMARK    2  A    between atoms: N_9  and  N_10 
REMARK    3  A    between atoms: N_10  and  C_11 
REMARK    4  A    between atoms: C_11  and  N_12 
REMARK    5  A    between atoms: N_12  and  C_13 
REMARK    6  A    between atoms: N_15  and  C_16 
REMARK    7  A    between atoms: C_16  and  C_17 
REMARK    8  A    between atoms: C_29  and  C_30 
ROOT
HETATM    1  C   UNL     1       6.224  -1.595  -4.061  1.00  0.00     0.290 C 
HETATM    2  N   UNL     1       7.206  -0.772  -4.576  1.00  0.00    -0.262 N 
HETATM    3  O   UNL     1       5.040  -1.291  -3.946  1.00  0.00    -0.264 OA
HETATM    4  H   UNL     1       8.125  -1.180  -4.746  1.00  0.00     0.190 HD
ENDROOT
BRANCH   2   5
HETATM    5  N   UNL     1       6.878   0.415  -5.227  1.00  0.00    -0.273 N 
HETATM    6  H   UNL     1       6.249   1.066  -4.746  1.00  0.00     0.189 HD
BRANCH   5   7
HETATM    7  C   UNL     1       7.601   0.877  -6.296  1.00  0.00     0.192 C 
HETATM    8  S   UNL     1       8.721  -0.032  -7.155  1.00  0.00    -0.039 SA
BRANCH   7   9
HETATM    9  N   UNL     1       7.402   2.175  -6.675  1.00  0.00    -0.315 N 
HETATM   10  H   UNL     1       7.961   2.494  -7.454  1.00  0.00     0.170 HD
BRANCH   9  11
HETATM   11  C   UNL     1       6.610   3.118  -6.053  1.00  0.00     0.151 A 
HETATM   12  N   UNL     1       5.813   2.862  -5.011  1.00  0.00    -0.154 NA
HETATM   13  N   UNL     1       5.271   4.059  -4.703  1.00  0.00    -0.275 N 
HETATM   14  C   UNL     1       5.682   5.062  -5.532  1.00  0.00     0.116 A 
HETATM   15  C   UNL     1       6.549   4.479  -6.426  1.00  0.00     0.071 A 
BRANCH  13  16
HETATM   16  C   UNL     1       4.298   4.163  -3.623  1.00  0.00     0.192 C 
BRANCH  16  17
HETATM   17  C   UNL     1       4.958   4.104  -2.275  1.00  0.00     0.000 A 
HETATM   18  C   UNL     1       5.510   5.255  -1.709  1.00  0.00     0.124 A 
HETATM   19  F   UNL     1       5.436   6.420  -2.368  1.00  0.00    -0.205 F 
HETATM   20  C   UNL     1       6.135   5.224  -0.466  1.00  0.00     0.043 A 
HETATM   21  C   UNL     1       6.219   4.021   0.233  1.00  0.00     0.003 A 
HETATM   22  C   UNL     1       5.682   2.857  -0.320  1.00  0.00     0.001 A 
HETATM   23  C   UNL     1       5.059   2.895  -1.570  1.00  0.00     0.012 A 
ENDBRANCH  16  17
ENDBRANCH  13  16
ENDBRANCH   9  11
ENDBRANCH   7   9
ENDBRANCH   5   7
ENDBRANCH   2   5
BRANCH   1  24
HETATM   24  C   UNL     1       6.762  -2.906  -3.663  1.00  0.00     0.150 A 
HETATM   25  N   UNL     1       8.091  -3.162  -3.690  1.00  0.00    -0.165 NA
HETATM   26  N   UNL     1       8.174  -4.429  -3.255  1.00  0.00    -0.240 N 
HETATM   27  C   UNL     1       6.966  -5.033  -3.052  1.00  0.00     0.123 A 
HETATM   28  C   UNL     1       9.449  -5.102  -3.098  1.00  0.00     0.221 C 
HETATM   29  N   UNL     1       6.877  -6.346  -2.749  1.00  0.00    -0.371 N 
HETATM   30  C   UNL     1       6.026  -4.053  -3.249  1.00  0.00     0.089 A 
HETATM   31  C   UNL     1       8.068  -7.165  -2.530  1.00  0.00     0.081 C 
HETATM   32  H   UNL     1       5.990  -6.745  -2.444  1.00  0.00     0.161 HD
HETATM   33  C   UNL     1       7.771  -8.602  -2.953  1.00  0.00     0.032 C 
HETATM   34  C   UNL     1       9.257  -6.608  -3.335  1.00  0.00     0.061 C 
BRANCH  28  35
HETATM   35  C   UNL     1      10.025  -4.794  -1.734  1.00  0.00     0.409 C 
HETATM   36  F   UNL     1      10.302  -3.482  -1.570  1.00  0.00    -0.169 F 
HETATM   37  F   UNL     1       9.226  -5.173  -0.713  1.00  0.00    -0.169 F 
HETATM   38  F   UNL     1      11.200  -5.457  -1.571  1.00  0.00    -0.169 F 
ENDBRANCH  28  35
ENDBRANCH   1  24
TORSDOF 8
