REMARK  6 active torsions:
REMARK  status: ('A' for Active; 'I' for Inactive)
REMARK    1  A    between atoms: C_10  and  C_11 
REMARK       I    between atoms: C_11  and  N_12 
REMARK    2  A    between atoms: N_12  and  C_13 
REMARK    3  A    between atoms: C_13  and  C_14 
REMARK    4  A    between atoms: C_14  and  N_15 
REMARK    5  A    between atoms: C_14  and  C_19 
REMARK    6  A    between atoms: C_20  and  O_21 
ROOT
HETATM    1  C   UNL     1       9.182  -8.486  -1.670  1.00  0.00     0.276 C 
HETATM    2  N   UNL     1       7.978  -7.862  -1.970  1.00  0.00    -0.353 N 
HETATM    3  O   UNL     1      10.003  -7.941  -0.937  1.00  0.00    -0.265 OA
HETATM    4  H   UNL     1       7.482  -8.251  -2.770  1.00  0.00     0.162 HD
ENDROOT
BRANCH   2   5
HETATM    5  C   UNL     1       7.778  -6.469  -1.580  1.00  0.00     0.161 C 
BRANCH   5   6
HETATM    6  C   UNL     1       7.471  -6.328  -0.054  1.00  0.00     0.240 C 
BRANCH   6   7
HETATM    7  N   UNL     1       6.269  -7.241   0.287  1.00  0.00    -0.069 N 
HETATM    8  H   UNL     1       6.497  -8.120  -0.198  1.00  0.00     0.279 HD
HETATM    9  C   UNL     1       6.210  -7.578   1.750  1.00  0.00     0.270 C 
HETATM   10  C   UNL     1       4.938  -6.782  -0.220  1.00  0.00     0.270 C 
ENDBRANCH   6   7
BRANCH   6  11
HETATM   11  C   UNL     1       7.357  -4.901   0.449  1.00  0.00     0.007 A 
HETATM   12  C   UNL     1       7.935  -4.546   1.688  1.00  0.00     0.076 A 
HETATM   13  C   UNL     1       7.831  -3.238   2.170  1.00  0.00     0.037 A 
HETATM   14  C   UNL     1       7.177  -2.265   1.418  1.00  0.00     0.003 A 
HETATM   15  C   UNL     1       6.615  -2.595   0.190  1.00  0.00     0.001 A 
HETATM   16  C   UNL     1       6.700  -3.902  -0.292  1.00  0.00     0.012 A 
BRANCH  12  17
HETATM   17  O   UNL     1       8.537  -5.555   2.396  1.00  0.00    -0.355 OA
HETATM   18  C   UNL     1       9.644  -5.165   3.210  1.00  0.00     0.210 C 
ENDBRANCH  12  17
ENDBRANCH   6  11
ENDBRANCH   5   6
ENDBRANCH   2   5
BRANCH   1  19
HETATM   19  C   UNL     1       9.348  -9.792  -2.261  1.00  0.00     0.150 A 
HETATM   20  O   UNL     1       8.227 -10.463  -2.676  1.00  0.00    -0.304 OA
HETATM   21  C   UNL     1       8.630 -11.692  -3.100  1.00  0.00     0.087 A 
HETATM   22  C   UNL     1       7.790 -12.703  -3.557  1.00  0.00     0.045 A 
HETATM   23  C   UNL     1      10.008 -11.808  -3.004  1.00  0.00     0.007 A 
HETATM   24  C   UNL     1       8.390 -13.917  -3.945  1.00  0.00    -0.053 A 
HETATM   25  C   UNL     1       9.791 -14.080  -3.859  1.00  0.00    -0.055 A 
HETATM   26  C   UNL     1       7.502 -15.043  -4.407  1.00  0.00     0.049 C 
HETATM   27  C   UNL     1      10.458 -15.364  -4.278  1.00  0.00     0.049 C 
HETATM   28  C   UNL     1      10.602 -13.019  -3.402  1.00  0.00     0.022 A 
HETATM   29  C   UNL     1      10.478 -10.569  -2.472  1.00  0.00    -0.009 A 
HETATM   30  C   UNL     1      11.888 -10.200  -2.185  1.00  0.00     0.052 C 
ENDBRANCH   1  19
TORSDOF 6
