REMARK  5 active torsions:
REMARK  status: ('A' for Active; 'I' for Inactive)
REMARK    1  A    between atoms: O_2  and  C_3 
REMARK    2  A    between atoms: C_6  and  C_7 
REMARK    3  A    between atoms: C_11  and  N_12 
REMARK       I    between atoms: N_15  and  C_16 
REMARK    4  A    between atoms: C_16  and  C_17 
REMARK    5  A    between atoms: C_17  and  C_18 
ROOT
HETATM    1  N   UNL     1       3.887  -6.817  -5.676  1.00  0.00    -0.363 N 
HETATM    2  C   UNL     1       5.018  -7.615  -6.207  1.00  0.00     0.144 C 
HETATM    3  C   UNL     1       5.376  -8.787  -5.264  1.00  0.00     0.145 C 
HETATM    4  N   UNL     1       4.179  -9.580  -4.939  1.00  0.00    -0.349 N 
HETATM    5  C   UNL     1       3.815 -10.751  -5.592  1.00  0.00     0.224 C 
HETATM    6  O   UNL     1       2.644 -11.144  -5.609  1.00  0.00    -0.273 OA
HETATM    7  C   UNL     1       3.107  -8.767  -4.350  1.00  0.00     0.145 C 
HETATM    8  C   UNL     1       2.700  -7.639  -5.320  1.00  0.00     0.144 C 
ENDROOT
BRANCH   1   9
HETATM    9  C   UNL     1       4.131  -5.657  -4.998  1.00  0.00     0.122 A 
HETATM   10  N   UNL     1       3.145  -4.733  -4.767  1.00  0.00    -0.262 N 
HETATM   11  N   UNL     1       3.559  -3.623  -4.137  1.00  0.00    -0.173 NA
HETATM   12  H   UNL     1       2.177  -4.787  -5.057  1.00  0.00     0.191 HD
HETATM   13  C   UNL     1       4.874  -3.819  -3.956  1.00  0.00     0.090 A 
HETATM   14  C   UNL     1       5.272  -5.078  -4.491  1.00  0.00     0.084 A 
BRANCH  13  15
HETATM   15  C   UNL     1       5.718  -2.812  -3.319  1.00  0.00    -0.005 A 
HETATM   16  C   UNL     1       6.786  -3.184  -2.495  1.00  0.00     0.016 A 
HETATM   17  C   UNL     1       7.602  -2.206  -1.916  1.00  0.00     0.037 A 
HETATM   18  C   UNL     1       7.376  -0.850  -2.160  1.00  0.00     0.068 A 
HETATM   19  C   UNL     1       6.301  -0.472  -2.964  1.00  0.00     0.037 A 
HETATM   20  C   UNL     1       5.475  -1.449  -3.536  1.00  0.00     0.016 A 
BRANCH  18  21
HETATM   21  O   UNL     1       8.259  -0.001  -1.552  1.00  0.00    -0.356 OA
HETATM   22  C   UNL     1       8.224   1.358  -1.971  1.00  0.00     0.210 C 
ENDBRANCH  18  21
ENDBRANCH  13  15
ENDBRANCH   1   9
BRANCH   5  23
HETATM   23  C   UNL     1       4.894 -11.567  -6.287  1.00  0.00     0.141 C 
BRANCH  23  24
HETATM   24  C   UNL     1       5.166 -11.190  -7.728  1.00  0.00    -0.049 A 
HETATM   25  C   UNL     1       4.185 -10.616  -8.552  1.00  0.00     0.009 A 
HETATM   26  C   UNL     1       4.463 -10.314  -9.888  1.00  0.00     0.019 A 
HETATM   27  C   UNL     1       5.715 -10.609 -10.418  1.00  0.00     0.011 A 
HETATM   28 BR   UNL     1       6.085 -10.213 -12.229  1.00  0.00    -0.051 Br
HETATM   29  C   UNL     1       6.692 -11.205  -9.626  1.00  0.00     0.019 A 
HETATM   30  C   UNL     1       6.416 -11.497  -8.288  1.00  0.00     0.009 A 
ENDBRANCH  23  24
ENDBRANCH   5  23
TORSDOF 5
