REMARK  5 active torsions:
REMARK  status: ('A' for Active; 'I' for Inactive)
REMARK    1  A    between atoms: C_3  and  C_4 
REMARK    2  A    between atoms: C_6  and  N_7 
REMARK       I    between atoms: N_7  and  C_8 
REMARK    3  A    between atoms: C_8  and  C_9 
REMARK    4  A    between atoms: C_14  and  O_15 
REMARK    5  A    between atoms: O_15  and  C_16 
ROOT
HETATM    1  N   UNL     1      -0.230   4.189  -1.123  1.00  0.00    -0.322 N 
HETATM    2  C   UNL     1      -1.014   3.255  -1.779  1.00  0.00     0.272 C 
HETATM    3  O   UNL     1      -0.657   2.110  -2.047  1.00  0.00    -0.266 OA
HETATM    4  H   UNL     1      -0.604   5.127  -1.066  1.00  0.00     0.169 HD
ENDROOT
BRANCH   2   5
HETATM    5  C   UNL     1      -2.321   3.737  -2.181  1.00  0.00     0.102 A 
HETATM    6  N   UNL     1      -3.170   2.954  -2.937  1.00  0.00    -0.351 N 
HETATM    7  H   UNL     1      -2.943   2.018  -3.247  1.00  0.00     0.166 HD
HETATM    8  C   UNL     1      -4.350   3.606  -3.201  1.00  0.00     0.045 A 
HETATM    9  C   UNL     1      -4.273   4.854  -2.590  1.00  0.00     0.026 A 
HETATM   10  C   UNL     1      -5.471   3.184  -3.921  1.00  0.00     0.030 A 
HETATM   11  C   UNL     1      -5.364   5.745  -2.700  1.00  0.00     0.087 A 
HETATM   12  C   UNL     1      -2.998   4.924  -1.952  1.00  0.00     0.052 A 
HETATM   13  C   UNL     1      -6.508   5.321  -3.393  1.00  0.00     0.038 A 
HETATM   14  C   UNL     1      -6.553   4.065  -4.000  1.00  0.00     0.005 A 
BRANCH  11  15
HETATM   15  O   UNL     1      -5.263   6.959  -2.073  1.00  0.00    -0.289 OA
BRANCH  15  16
HETATM   16  C   UNL     1      -5.836   8.036  -2.798  1.00  0.00     0.505 C 
HETATM   17  F   UNL     1      -7.156   8.112  -2.496  1.00  0.00    -0.184 F 
HETATM   18  F   UNL     1      -5.265   9.177  -2.335  1.00  0.00    -0.184 F 
ENDBRANCH  15  16
ENDBRANCH  11  15
ENDBRANCH   2   5
BRANCH   1  19
HETATM   19  C   UNL     1       1.075   4.007  -0.620  1.00  0.00     0.035 A 
HETATM   20  C   UNL     1       1.705   2.762  -0.546  1.00  0.00     0.044 A 
HETATM   21  C   UNL     1       3.020   2.641  -0.089  1.00  0.00     0.010 A 
HETATM   22  C   UNL     1       3.698   3.782   0.354  1.00  0.00     0.015 A 
HETATM   23  C   UNL     1       3.066   5.026   0.317  1.00  0.00     0.003 A 
HETATM   24  C   UNL     1       1.762   5.138  -0.170  1.00  0.00     0.029 A 
BRANCH  21  25
HETATM   25  C   UNL     1       3.712   1.296  -0.049  1.00  0.00     0.117 A 
HETATM   26  N   UNL     1       3.437   0.130  -0.689  1.00  0.00    -0.346 N 
HETATM   27  C   UNL     1       2.427  -0.092  -1.726  1.00  0.00     0.157 C 
HETATM   28  C   UNL     1       4.323  -0.860  -0.273  1.00  0.00     0.109 A 
HETATM   29  C   UNL     1       5.194  -0.278   0.592  1.00  0.00     0.107 A 
HETATM   30  N   UNL     1       4.810   1.032   0.688  1.00  0.00    -0.350 N 
HETATM   31  H   UNL     1       5.253   1.717   1.291  1.00  0.00     0.166 HD
ENDBRANCH  21  25
ENDBRANCH   1  19
TORSDOF 5
