REMARK  2 active torsions:
REMARK  status: ('A' for Active; 'I' for Inactive)
REMARK    1  A    between atoms: C_4  and  C_5 
REMARK    2  A    between atoms: N_11  and  C_12 
ROOT
HETATM    1  C   UNL     1       2.936   0.350  -0.163  1.00  0.00     0.069 A 
HETATM    2  N   UNL     1       3.754  -0.755  -0.325  1.00  0.00    -0.343 N 
HETATM    3  C   UNL     1       5.105  -0.633  -0.484  1.00  0.00     0.119 A 
HETATM    4  C   UNL     1       5.701   0.569  -0.413  1.00  0.00     0.125 A 
HETATM    5  C   UNL     1       7.149   0.334  -0.535  1.00  0.00     0.280 A 
HETATM    6  O   UNL     1       8.005   1.199  -0.494  1.00  0.00    -0.265 OA
HETATM    7  N   UNL     1       7.287  -1.055  -0.688  1.00  0.00    -0.236 N 
HETATM    8  N   UNL     1       6.010  -1.655  -0.692  1.00  0.00    -0.179 NA
HETATM    9  C   UNL     1       4.922   1.793  -0.187  1.00  0.00     0.215 A 
HETATM   10  O   UNL     1       5.452   2.893  -0.087  1.00  0.00    -0.285 OA
HETATM   11  C   UNL     1       3.429   1.606  -0.084  1.00  0.00     0.112 A 
HETATM   12 CL   UNL     1       2.467   3.021   0.123  1.00  0.00    -0.077 Cl
HETATM   13  H   UNL     1       3.319  -1.651  -0.525  1.00  0.00     0.167 HD
HETATM   14  H   UNL     1       5.915  -2.372   0.027  1.00  0.00     0.155 HD
ENDROOT
BRANCH   7  15
HETATM   15  C   UNL     1       8.450  -1.831  -0.880  1.00  0.00     0.055 A 
HETATM   16  C   UNL     1       9.729  -1.259  -0.792  1.00  0.00     0.034 A 
HETATM   17  C   UNL     1      10.878  -2.037  -0.972  1.00  0.00     0.044 A 
HETATM   18  C   UNL     1      10.755  -3.391  -1.245  1.00  0.00     0.116 A 
HETATM   19  F   UNL     1      11.854  -4.136  -1.417  1.00  0.00    -0.206 F 
HETATM   20  C   UNL     1       9.504  -3.983  -1.344  1.00  0.00     0.044 A 
HETATM   21  C   UNL     1       8.356  -3.205  -1.162  1.00  0.00     0.034 A 
ENDBRANCH   7  15
BRANCH   1  22
HETATM   22  C   UNL     1       1.494   0.062  -0.084  1.00  0.00    -0.008 A 
HETATM   23  C   UNL     1       0.725  -0.015  -1.252  1.00  0.00     0.014 A 
HETATM   24  C   UNL     1      -0.640  -0.298  -1.176  1.00  0.00     0.001 A 
HETATM   25  C   UNL     1      -1.241  -0.505   0.065  1.00  0.00     0.000 A 
HETATM   26  C   UNL     1      -0.481  -0.432   1.231  1.00  0.00     0.001 A 
HETATM   27  C   UNL     1       0.884  -0.150   1.158  1.00  0.00     0.014 A 
ENDBRANCH   1  22
TORSDOF 2
