REMARK  7 active torsions:
REMARK  status: ('A' for Active; 'I' for Inactive)
REMARK    1  A    between atoms: C_2  and  N_3 
REMARK    2  A    between atoms: C_4  and  C_5 
REMARK       I    between atoms: C_5  and  N_6 
REMARK    3  A    between atoms: N_6  and  C_7 
REMARK    4  A    between atoms: C_7  and  C_8 
REMARK    5  A    between atoms: C_19  and  N_20 
REMARK       I    between atoms: N_20  and  C_21 
REMARK    6  A    between atoms: C_21  and  C_22 
REMARK    7  A    between atoms: C_25  and  O_26 
ROOT
HETATM    1  N   UNL     1       2.994  -0.305  -1.464  1.00  0.00    -0.342 N 
HETATM    2  C   UNL     1       3.196   0.739  -2.358  1.00  0.00     0.104 A 
HETATM    3  C   UNL     1       3.458   0.139  -3.584  1.00  0.00     0.049 A 
HETATM    4  C   UNL     1       3.397  -1.270  -3.438  1.00  0.00    -0.005 A 
HETATM    5  C   UNL     1       3.110  -1.531  -2.101  1.00  0.00     0.045 A 
HETATM    6  C   UNL     1       3.550  -2.348  -4.337  1.00  0.00     0.043 A 
HETATM    7  C   UNL     1       3.410  -3.665  -3.885  1.00  0.00     0.035 A 
HETATM    8  C   UNL     1       3.136  -3.897  -2.534  1.00  0.00     0.032 A 
HETATM    9  C   UNL     1       2.978  -2.844  -1.624  1.00  0.00     0.033 A 
ENDROOT
BRANCH   7  10
HETATM   10  N   UNL     1       3.530  -4.797  -4.720  1.00  0.00    -0.323 N 
HETATM   11  C   UNL     1       3.653  -4.805  -6.099  1.00  0.00     0.256 C 
HETATM   12  O   UNL     1       3.631  -3.837  -6.851  1.00  0.00    -0.267 OA
HETATM   13  H   UNL     1       3.419  -5.693  -4.266  1.00  0.00     0.169 HD
BRANCH  11  14
HETATM   14  C   UNL     1       3.774  -6.158  -6.704  1.00  0.00     0.032 A 
HETATM   15  C   UNL     1       3.095  -6.416  -7.899  1.00  0.00     0.020 A 
HETATM   16  C   UNL     1       3.201  -7.669  -8.504  1.00  0.00     0.038 A 
HETATM   17  C   UNL     1       4.006  -8.663  -7.941  1.00  0.00     0.068 A 
HETATM   18  C   UNL     1       4.683  -8.406  -6.746  1.00  0.00     0.038 A 
HETATM   19  C   UNL     1       4.572  -7.155  -6.128  1.00  0.00     0.020 A 
BRANCH  17  20
HETATM   20  O   UNL     1       4.039  -9.839  -8.638  1.00  0.00    -0.356 OA
HETATM   21  C   UNL     1       5.145 -10.694  -8.377  1.00  0.00     0.210 C 
ENDBRANCH  17  20
ENDBRANCH  11  14
ENDBRANCH   7  10
BRANCH   2  22
HETATM   22  C   UNL     1       3.102   2.155  -2.033  1.00  0.00     0.268 C 
HETATM   23  N   UNL     1       3.563   3.013  -3.005  1.00  0.00    -0.353 N 
HETATM   24  H   UNL     1       4.110   2.644  -3.771  1.00  0.00     0.162 HD
HETATM   25  O   UNL     1       2.648   2.581  -0.973  1.00  0.00    -0.266 OA
BRANCH  23  26
HETATM   26  C   UNL     1       3.640   4.448  -2.792  1.00  0.00     0.160 C 
BRANCH  26  27
HETATM   27  C   UNL     1       3.429   5.253  -4.088  1.00  0.00     0.073 C 
HETATM   28  C   UNL     1       3.675   6.741  -3.801  1.00  0.00     0.047 C 
HETATM   29  O   UNL     1       4.392   4.836  -5.083  1.00  0.00    -0.379 OA
HETATM   30  C   UNL     1       3.735   4.747  -6.357  1.00  0.00     0.169 C 
HETATM   31  C   UNL     1       2.328   5.280  -6.187  1.00  0.00     0.029 C 
HETATM   32  C   UNL     1       2.057   5.024  -4.725  1.00  0.00     0.041 C 
ENDBRANCH  26  27
ENDBRANCH  23  26
ENDBRANCH   2  22
BRANCH   1  33
HETATM   33  C   UNL     1       2.700  -0.162  -0.043  1.00  0.00     0.125 C 
HETATM   34  C   UNL     1       1.209  -0.063   0.231  1.00  0.00     0.027 C 
ENDBRANCH   1  33
TORSDOF 7
