REMARK  6 active torsions:
REMARK  status: ('A' for Active; 'I' for Inactive)
REMARK    1  A    between atoms: C_3  and  C_4 
REMARK    2  A    between atoms: C_4  and  N_5 
REMARK    3  A    between atoms: N_5  and  C_8 
REMARK    4  A    between atoms: C_8  and  C_9 
REMARK    5  A    between atoms: N_12  and  C_13 
REMARK    6  A    between atoms: C_28  and  O_29 
ROOT
HETATM    1  N   UNL     1       1.241   4.790   1.100  1.00  0.00    -0.062 N 
HETATM    2  H   UNL     1       2.268   4.805   1.100  1.00  0.00     0.278 HD
HETATM    3  H   UNL     1       0.984   4.261   1.940  1.00  0.00     0.278 HD
ENDROOT
BRANCH   1   4
HETATM    4  C   UNL     1       0.782   6.191   1.284  1.00  0.00     0.290 C 
BRANCH   4   5
HETATM    5  C   UNL     1       1.406   6.764   2.499  1.00  0.00     0.042 A 
HETATM    6  C   UNL     1       1.180   6.516   3.848  1.00  0.00    -0.025 A 
HETATM    7  C   UNL     1       0.209   5.565   4.462  1.00  0.00     0.051 C 
HETATM    8  C   UNL     1       2.047   7.384   4.586  1.00  0.00     0.001 A 
HETATM    9  C   UNL     1       2.768   8.139   3.668  1.00  0.00     0.043 A 
HETATM   10  C   UNL     1       2.270   7.609   5.960  1.00  0.00     0.051 A 
HETATM   11  N   UNL     1       2.362   7.754   2.415  1.00  0.00    -0.357 N 
HETATM   12  C   UNL     1       3.704   9.106   4.054  1.00  0.00     0.033 A 
HETATM   13  H   UNL     1       2.715   8.179   1.566  1.00  0.00     0.166 HD
HETATM   14  C   UNL     1       3.900   9.315   5.425  1.00  0.00     0.039 A 
HETATM   15  C   UNL     1       3.188   8.584   6.374  1.00  0.00     0.069 A 
BRANCH  15  16
HETATM   16  O   UNL     1       3.295   8.715   7.732  1.00  0.00    -0.356 OA
HETATM   17  C   UNL     1       4.044   9.825   8.214  1.00  0.00     0.210 C 
ENDBRANCH  15  16
ENDBRANCH   4   5
ENDBRANCH   1   4
BRANCH   1  18
HETATM   18  C   UNL     1       0.787   4.050  -0.121  1.00  0.00     0.218 C 
HETATM   19  C   UNL     1      -0.733   3.924  -0.134  1.00  0.00     0.045 C 
BRANCH  18  20
HETATM   20  C   UNL     1       1.383   4.626  -1.364  1.00  0.00     0.015 C 
HETATM   21  C   UNL     1       2.609   4.323  -1.956  1.00  0.00     0.042 C 
HETATM   22  C   UNL     1       3.657   3.372  -1.491  1.00  0.00     0.071 C 
HETATM   23  N   UNL     1       2.719   5.133  -3.094  1.00  0.00    -0.238 N 
HETATM   24  N   UNL     1       1.696   6.029  -3.123  1.00  0.00    -0.179 NA
HETATM   25  C   UNL     1       0.856   5.648  -2.174  1.00  0.00     0.150 C 
BRANCH  23  26
HETATM   26  C   UNL     1       3.698   5.170  -4.132  1.00  0.00     0.058 A 
HETATM   27  C   UNL     1       4.545   4.090  -4.408  1.00  0.00     0.031 A 
HETATM   28  C   UNL     1       5.489   4.179  -5.437  1.00  0.00     0.002 A 
HETATM   29  C   UNL     1       5.592   5.338  -6.202  1.00  0.00     0.000 A 
HETATM   30  C   UNL     1       4.740   6.409  -5.953  1.00  0.00     0.002 A 
HETATM   31  C   UNL     1       3.791   6.323  -4.932  1.00  0.00     0.031 A 
ENDBRANCH  23  26
ENDBRANCH  18  20
ENDBRANCH   1  18
TORSDOF 6
