REMARK  6 active torsions:
REMARK  status: ('A' for Active; 'I' for Inactive)
REMARK    1  A    between atoms: C_2  and  O_3 
REMARK    2  A    between atoms: C_2  and  C_4 
REMARK    3  A    between atoms: C_6  and  N_7 
REMARK       I    between atoms: N_7  and  C_8 
REMARK    4  A    between atoms: C_8  and  C_9 
REMARK    5  A    between atoms: C_12  and  C_13 
REMARK    6  A    between atoms: C_18  and  C_19 
ROOT
HETATM    1  C   UNL     1       3.789   2.636  -3.364  1.00  0.00     0.096 A 
HETATM    2  C   UNL     1       3.215   3.814  -2.925  1.00  0.00     0.138 A 
HETATM    3  N   UNL     1       3.640   4.008  -1.635  1.00  0.00    -0.240 N 
HETATM    4  C   UNL     1       3.164   5.076  -0.771  1.00  0.00     0.221 C 
HETATM    5  C   UNL     1       2.462   6.175  -1.597  1.00  0.00     0.068 C 
HETATM    6  C   UNL     1       1.550   5.577  -2.679  1.00  0.00     0.143 C 
HETATM    7  N   UNL     1       2.369   4.696  -3.516  1.00  0.00    -0.363 N 
HETATM    8  N   UNL     1       4.395   2.998  -1.172  1.00  0.00    -0.181 NA
HETATM    9  C   UNL     1       4.508   2.187  -2.228  1.00  0.00     0.160 A 
HETATM   10  H   UNL     1       1.923   4.405  -4.392  1.00  0.00     0.162 HD
ENDROOT
BRANCH   1  11
HETATM   11  C   UNL     1       3.595   2.031  -4.679  1.00  0.00     0.261 C 
HETATM   12  N   UNL     1       4.447   0.973  -4.949  1.00  0.00    -0.323 N 
HETATM   13  H   UNL     1       5.155   0.765  -4.261  1.00  0.00     0.169 HD
HETATM   14  O   UNL     1       2.731   2.458  -5.440  1.00  0.00    -0.267 OA
BRANCH  12  15
HETATM   15  C   UNL     1       4.471   0.154  -6.098  1.00  0.00     0.035 A 
HETATM   16  C   UNL     1       3.589   0.283  -7.175  1.00  0.00     0.039 A 
HETATM   17  C   UNL     1       3.663  -0.579  -8.285  1.00  0.00    -0.028 A 
HETATM   18  C   UNL     1       4.648  -1.574  -8.304  1.00  0.00     0.010 A 
HETATM   19  C   UNL     1       5.531  -1.713  -7.237  1.00  0.00     0.003 A 
HETATM   20  C   UNL     1       5.443  -0.853  -6.141  1.00  0.00     0.029 A 
BRANCH  17  21
HETATM   21  C   UNL     1       2.711  -0.388  -9.446  1.00  0.00     0.147 C 
HETATM   22  C   UNL     1       3.319   0.500 -10.525  1.00  0.00     0.044 C 
BRANCH  21  23
HETATM   23  O   UNL     1       2.377  -1.653 -10.015  1.00  0.00    -0.391 OA
HETATM   24  H   UNL     1       1.696  -1.488 -10.688  1.00  0.00     0.210 HD
ENDBRANCH  21  23
ENDBRANCH  17  21
ENDBRANCH  12  15
ENDBRANCH   1  11
BRANCH   4  25
HETATM   25  C   UNL     1       4.289   5.689   0.032  1.00  0.00     0.409 C 
HETATM   26  F   UNL     1       5.273   6.186  -0.752  1.00  0.00    -0.169 F 
HETATM   27  F   UNL     1       3.814   6.735   0.763  1.00  0.00    -0.169 F 
HETATM   28  F   UNL     1       4.847   4.839   0.919  1.00  0.00    -0.169 F 
ENDBRANCH   4  25
BRANCH   6  29
HETATM   29  C   UNL     1       0.328   4.935  -2.091  1.00  0.00     0.075 A 
HETATM   30  O   UNL     1      -0.455   5.725  -1.298  1.00  0.00    -0.325 OA
HETATM   31  C   UNL     1      -1.494   4.960  -0.875  1.00  0.00     0.142 A 
HETATM   32  C   UNL     1      -1.394   3.687  -1.385  1.00  0.00     0.027 A 
HETATM   33  C   UNL     1      -0.219   3.670  -2.173  1.00  0.00     0.037 A 
ENDBRANCH   6  29
TORSDOF 6
