REMARK  6 active torsions:
REMARK  status: ('A' for Active; 'I' for Inactive)
REMARK    1  A    between atoms: C_4  and  O_5 
REMARK    2  A    between atoms: O_5  and  C_6 
REMARK    3  A    between atoms: C_6  and  C_7 
REMARK    4  A    between atoms: C_10  and  C_11 
REMARK    5  A    between atoms: C_11  and  N_12 
REMARK       I    between atoms: N_12  and  C_13 
REMARK       I    between atoms: C_13  and  N_14 
REMARK    6  A    between atoms: N_14  and  C_15 
ROOT
HETATM    1  C   UNL     1       6.683  -0.181   0.651  1.00  0.00     0.165 C 
ENDROOT
BRANCH   1   2
HETATM    2  C   UNL     1       5.182  -0.053   0.524  1.00  0.00    -0.007 A 
HETATM    3  C   UNL     1       4.527   1.186   0.391  1.00  0.00     0.077 A 
HETATM    4  C   UNL     1       3.138   1.221   0.200  1.00  0.00     0.044 A 
HETATM    5  C   UNL     1       2.383   0.041   0.168  1.00  0.00    -0.059 A 
HETATM    6  C   UNL     1       0.900   0.081  -0.057  1.00  0.00     0.048 C 
HETATM    7  C   UNL     1       3.035  -1.186   0.299  1.00  0.00     0.007 A 
HETATM    8  C   UNL     1       4.418  -1.232   0.471  1.00  0.00     0.012 A 
BRANCH   3   9
HETATM    9  O   UNL     1       5.324   2.304   0.445  1.00  0.00    -0.350 OA
BRANCH   9  10
HETATM   10  C   UNL     1       4.666   3.556   0.645  1.00  0.00     0.180 C 
BRANCH  10  11
HETATM   11  C   UNL     1       5.713   4.575   0.979  1.00  0.00     0.010 A 
HETATM   12  C   UNL     1       5.350   5.801   1.778  1.00  0.00     0.007 A 
HETATM   13  C   UNL     1       6.209   4.732   2.394  1.00  0.00     0.007 A 
ENDBRANCH  10  11
ENDBRANCH   9  10
ENDBRANCH   3   9
ENDBRANCH   1   2
BRANCH   1  14
HETATM   14  N   UNL     1       7.252   0.713   1.635  1.00  0.00    -0.339 N 
HETATM   15  C   UNL     1       8.500   0.466   2.158  1.00  0.00     0.321 C 
HETATM   16  N   UNL     1       8.944   1.521   2.922  1.00  0.00    -0.307 N 
HETATM   17  O   UNL     1       9.100  -0.582   1.955  1.00  0.00    -0.247 OA
HETATM   18  H   UNL     1       8.379   2.353   2.883  1.00  0.00     0.170 HD
HETATM   19  H   UNL     1       6.941   1.671   1.554  1.00  0.00     0.164 HD
BRANCH  16  20
HETATM   20  C   UNL     1      10.131   1.575   3.689  1.00  0.00     0.059 A 
HETATM   21  C   UNL     1      10.531   2.797   4.263  1.00  0.00    -0.032 A 
HETATM   22  C   UNL     1       9.771   4.076   4.055  1.00  0.00     0.050 C 
HETATM   23  C   UNL     1      11.693   2.828   5.049  1.00  0.00     0.028 A 
HETATM   24  C   UNL     1      12.414   1.660   5.235  1.00  0.00     0.117 A 
HETATM   25  N   UNL     1      12.064   0.478   4.699  1.00  0.00    -0.271 NA
HETATM   26  C   UNL     1      10.937   0.462   3.940  1.00  0.00     0.146 A 
ENDBRANCH  16  20
ENDBRANCH   1  14
TORSDOF 6
