REMARK  8 active torsions:
REMARK  status: ('A' for Active; 'I' for Inactive)
REMARK    1  A    between atoms: N_2  and  C_3 
REMARK    2  A    between atoms: C_6  and  N_7 
REMARK       I    between atoms: N_7  and  C_8 
REMARK    3  A    between atoms: C_8  and  C_9 
REMARK    4  A    between atoms: C_9  and  O_10 
REMARK    5  A    between atoms: O_10  and  C_11 
REMARK    6  A    between atoms: C_11  and  C_12 
REMARK    7  A    between atoms: C_13  and  N_14 
REMARK       I    between atoms: N_14  and  C_15 
REMARK    8  A    between atoms: C_15  and  C_16 
ROOT
HETATM    1  C   UNL     1       5.396   0.810   2.486  1.00  0.00     0.296 C 
HETATM    2  O   UNL     1       4.290   1.162   2.870  1.00  0.00    -0.259 OA
ENDROOT
BRANCH   1   3
HETATM    3  O   UNL     1       6.578   1.382   2.819  1.00  0.00    -0.308 OA
BRANCH   3   4
HETATM    4  C   UNL     1       6.499   2.373   3.841  1.00  0.00     0.282 C 
BRANCH   4   5
HETATM    5  C   UNL     1       6.079   3.763   3.346  1.00  0.00     0.246 C 
HETATM    6  N   UNL     1       4.729   3.847   3.056  1.00  0.00    -0.325 N 
HETATM    7  H   UNL     1       4.209   2.968   3.104  1.00  0.00     0.169 HD
HETATM    8  O   UNL     1       6.902   4.671   3.254  1.00  0.00    -0.271 OA
BRANCH   6   9
HETATM    9  C   UNL     1       3.997   4.979   2.651  1.00  0.00     0.034 A 
HETATM   10  C   UNL     1       4.527   6.261   2.550  1.00  0.00     0.032 A 
HETATM   11  C   UNL     1       3.717   7.341   2.160  1.00  0.00     0.031 A 
HETATM   12  C   UNL     1       2.360   7.180   1.843  1.00  0.00     0.029 A 
HETATM   13  C   UNL     1       1.846   5.879   1.963  1.00  0.00     0.031 A 
HETATM   14  C   UNL     1       2.646   4.796   2.356  1.00  0.00     0.032 A 
BRANCH  12  15
HETATM   15  N   UNL     1       1.522   8.245   1.477  1.00  0.00    -0.390 N 
HETATM   16  C   UNL     1       0.710   8.019   0.277  1.00  0.00     0.149 C 
HETATM   17  C   UNL     1       2.038   9.608   1.605  1.00  0.00     0.149 C 
ENDBRANCH  12  15
ENDBRANCH   6   9
ENDBRANCH   4   5
ENDBRANCH   3   4
ENDBRANCH   1   3
BRANCH   1  18
HETATM   18  C   UNL     1       5.631  -0.288   1.526  1.00  0.00     0.066 A 
HETATM   19  C   UNL     1       4.983  -1.532   1.628  1.00  0.00     0.051 A 
HETATM   20  C   UNL     1       5.041  -2.408   0.532  1.00  0.00     0.030 A 
HETATM   21  C   UNL     1       5.790  -2.094  -0.605  1.00  0.00     0.002 A 
HETATM   22  C   UNL     1       6.476  -0.886  -0.675  1.00  0.00     0.001 A 
HETATM   23  C   UNL     1       6.385   0.022   0.378  1.00  0.00     0.020 A 
BRANCH  19  24
HETATM   24  N   UNL     1       4.273  -2.014   2.750  1.00  0.00    -0.320 N 
HETATM   25  C   UNL     1       4.534  -1.734   4.082  1.00  0.00     0.279 C 
HETATM   26  O   UNL     1       5.451  -1.022   4.480  1.00  0.00    -0.265 OA
HETATM   27  H   UNL     1       3.656  -2.809   2.611  1.00  0.00     0.169 HD
BRANCH  25  28
HETATM   28  C   UNL     1       3.661  -2.456   4.989  1.00  0.00     0.142 A 
HETATM   29  O   UNL     1       2.693  -3.286   4.477  1.00  0.00    -0.317 OA
HETATM   30  C   UNL     1       2.042  -3.839   5.533  1.00  0.00     0.143 A 
HETATM   31  C   UNL     1       2.575  -3.391   6.718  1.00  0.00     0.027 A 
HETATM   32  C   UNL     1       3.617  -2.499   6.370  1.00  0.00     0.045 A 
ENDBRANCH  25  28
ENDBRANCH  19  24
ENDBRANCH   1  18
TORSDOF 8
