REMARK  4 active torsions:
REMARK  status: ('A' for Active; 'I' for Inactive)
REMARK    1  A    between atoms: C_7  and  C_8 
REMARK    2  A    between atoms: C_8  and  N_9 
REMARK    3  A    between atoms: N_15  and  C_17 
REMARK    4  A    between atoms: C_21  and  C_22 
ROOT
HETATM    1  N   UNL     1       4.018  -2.914  -0.197  1.00  0.00    -0.067 N 
HETATM    2  H   UNL     1       4.704  -2.200   0.090  1.00  0.00     0.280 HD
HETATM    3  C   UNL     1       4.210  -4.063   0.749  1.00  0.00     0.236 C 
HETATM    4  C   UNL     1       3.365  -5.263   0.326  1.00  0.00     0.039 C 
HETATM    5  C   UNL     1       3.585  -5.729  -1.141  1.00  0.00    -0.013 C 
HETATM    6  C   UNL     1       4.945  -6.451  -1.328  1.00  0.00     0.245 C 
HETATM    7  N   UNL     1       4.950  -7.804  -0.656  1.00  0.00    -0.065 N 
HETATM    8  H   UNL     1       4.760  -7.696   0.350  1.00  0.00     0.280 HD
HETATM    9  C   UNL     1       3.870  -8.731  -1.208  1.00  0.00     0.244 C 
HETATM   10  C   UNL     1       2.475  -8.120  -0.979  1.00  0.00     0.045 C 
HETATM   11  C   UNL     1       2.453  -6.700  -1.603  1.00  0.00     0.022 C 
HETATM   12  C   UNL     1       3.513  -4.474  -2.067  1.00  0.00     0.039 C 
HETATM   13  C   UNL     1       4.346  -3.276  -1.613  1.00  0.00     0.236 C 
ENDROOT
BRANCH   7  14
HETATM   14  C   UNL     1       6.297  -8.459  -0.766  1.00  0.00     0.188 A 
HETATM   15  C   UNL     1       7.348  -8.016   0.212  1.00  0.00     0.035 A 
HETATM   16  C   UNL     1       6.708  -9.367   0.357  1.00  0.00     0.035 A 
ENDBRANCH   7  14
BRANCH  10  17
HETATM   17  C   UNL     1       1.929  -8.166   0.446  1.00  0.00    -0.052 A 
HETATM   18  C   UNL     1       2.585  -8.800   1.515  1.00  0.00     0.007 A 
HETATM   19  C   UNL     1       2.034  -8.802   2.801  1.00  0.00     0.001 A 
HETATM   20  C   UNL     1       0.806  -8.197   3.042  1.00  0.00     0.000 A 
HETATM   21  C   UNL     1       0.113  -7.610   1.991  1.00  0.00     0.001 A 
HETATM   22  C   UNL     1       0.663  -7.606   0.707  1.00  0.00     0.007 A 
ENDBRANCH  10  17
BRANCH   1  23
HETATM   23  C   UNL     1       2.696  -2.163  -0.042  1.00  0.00     0.277 C 
BRANCH  23  24
HETATM   24  C   UNL     1       2.553  -1.569   1.307  1.00  0.00     0.011 A 
HETATM   25  C   UNL     1       3.208  -0.477   1.864  1.00  0.00     0.035 A 
HETATM   26  C   UNL     1       4.192   0.482   1.295  1.00  0.00     0.070 C 
HETATM   27  N   UNL     1       2.739  -0.379   3.156  1.00  0.00    -0.278 N 
HETATM   28  C   UNL     1       3.080   0.590   4.174  1.00  0.00     0.179 C 
HETATM   29  N   UNL     1       1.853  -1.342   3.460  1.00  0.00    -0.185 NA
HETATM   30  C   UNL     1       1.696  -2.024   2.333  1.00  0.00     0.149 A 
ENDBRANCH  23  24
ENDBRANCH   1  23
TORSDOF 4
