REMARK  7 active torsions:
REMARK  status: ('A' for Active; 'I' for Inactive)
REMARK    1  A    between atoms: C_5  and  O_6 
REMARK    2  A    between atoms: O_6  and  C_7 
REMARK    3  A    between atoms: C_7  and  C_8 
REMARK       I    between atoms: C_8  and  N_9 
REMARK    4  A    between atoms: N_9  and  C_10 
REMARK    5  A    between atoms: C_13  and  N_14 
REMARK    6  A    between atoms: N_17  and  C_19 
REMARK    7  A    between atoms: C_19  and  C_20 
ROOT
HETATM    1  C   UNL     1       7.509  -3.437  -0.605  1.00  0.00     0.034 A 
HETATM    2  C   UNL     1       6.736  -2.281  -0.543  1.00  0.00     0.032 A 
HETATM    3  C   UNL     1       7.325  -1.032  -0.316  1.00  0.00     0.031 A 
HETATM    4  C   UNL     1       8.707  -0.875  -0.149  1.00  0.00     0.030 A 
HETATM    5  C   UNL     1       9.476  -2.045  -0.209  1.00  0.00     0.031 A 
HETATM    6  C   UNL     1       8.889  -3.308  -0.432  1.00  0.00     0.032 A 
ENDROOT
BRANCH   1   7
HETATM    7  N   UNL     1       6.961  -4.726  -0.787  1.00  0.00    -0.325 N 
HETATM    8  C   UNL     1       5.637  -5.022  -1.065  1.00  0.00     0.246 C 
HETATM    9  O   UNL     1       4.750  -4.205  -1.308  1.00  0.00    -0.271 OA
HETATM   10  H   UNL     1       7.587  -5.524  -0.737  1.00  0.00     0.169 HD
BRANCH   8  11
HETATM   11  C   UNL     1       5.284  -6.507  -0.977  1.00  0.00     0.278 C 
BRANCH  11  12
HETATM   12  O   UNL     1       6.383  -7.402  -1.082  1.00  0.00    -0.342 OA
BRANCH  12  13
HETATM   13  C   UNL     1       6.038  -8.733  -1.210  1.00  0.00     0.075 A 
HETATM   14  C   UNL     1       7.038  -9.611  -1.679  1.00  0.00    -0.023 A 
HETATM   15  C   UNL     1       6.715 -10.972  -1.909  1.00  0.00    -0.053 A 
HETATM   16  C   UNL     1       8.421  -9.101  -1.996  1.00  0.00     0.052 C 
HETATM   17  C   UNL     1       7.717 -11.960  -2.446  1.00  0.00     0.049 C 
HETATM   18  C   UNL     1       5.434 -11.445  -1.587  1.00  0.00     0.007 A 
HETATM   19  C   UNL     1       4.469 -10.586  -1.077  1.00  0.00     0.003 A 
HETATM   20  C   UNL     1       4.768  -9.238  -0.893  1.00  0.00     0.037 A 
ENDBRANCH  12  13
ENDBRANCH  11  12
ENDBRANCH   8  11
ENDBRANCH   1   7
BRANCH   4  21
HETATM   21  N   UNL     1       9.229   0.385   0.123  1.00  0.00    -0.378 N 
HETATM   22  C   UNL     1      10.551   0.549   0.739  1.00  0.00     0.150 C 
HETATM   23  C   UNL     1      10.572   1.850   1.579  1.00  0.00     0.255 C 
HETATM   24  N   UNL     1      10.108   3.064   0.765  1.00  0.00    -0.064 N 
HETATM   25  H   UNL     1      10.813   3.220   0.035  1.00  0.00     0.280 HD
HETATM   26  C   UNL     1       8.771   2.798   0.074  1.00  0.00     0.255 C 
HETATM   27  C   UNL     1       8.820   1.499  -0.751  1.00  0.00     0.150 C 
BRANCH  24  28
HETATM   28  C   UNL     1      10.029   4.323   1.596  1.00  0.00     0.273 C 
BRANCH  28  29
HETATM   29  C   UNL     1      11.365   4.806   2.085  1.00  0.00    -0.033 A 
HETATM   30  C   UNL     1      12.260   5.434   1.205  1.00  0.00     0.009 A 
HETATM   31  C   UNL     1      13.503   5.876   1.662  1.00  0.00     0.001 A 
HETATM   32  C   UNL     1      13.863   5.694   2.995  1.00  0.00     0.000 A 
HETATM   33  C   UNL     1      12.982   5.073   3.877  1.00  0.00     0.001 A 
HETATM   34  C   UNL     1      11.738   4.631   3.426  1.00  0.00     0.009 A 
ENDBRANCH  28  29
ENDBRANCH  24  28
ENDBRANCH   4  21
TORSDOF 7
