REMARK  5 active torsions:
REMARK  status: ('A' for Active; 'I' for Inactive)
REMARK    1  A    between atoms: C_2  and  N_3 
REMARK       I    between atoms: N_3  and  C_4 
REMARK       I    between atoms: C_4  and  N_5 
REMARK    2  A    between atoms: N_5  and  C_6 
REMARK    3  A    between atoms: C_20  and  C_21 
REMARK    4  A    between atoms: C_21  and  O_22 
REMARK    5  A    between atoms: O_22  and  C_23 
ROOT
HETATM    1  C   UNL     1       5.046   0.628  -0.555  1.00  0.00     0.095 A 
HETATM    2  S   UNL     1       4.482   0.017  -2.035  1.00  0.00    -0.073 SA
HETATM    3  C   UNL     1       4.179   1.562  -2.669  1.00  0.00     0.027 A 
HETATM    4  C   UNL     1       4.605   2.555  -1.805  1.00  0.00    -0.021 A 
HETATM    5  C   UNL     1       4.487   4.013  -2.168  1.00  0.00     0.079 C 
HETATM    6  C   UNL     1       4.348   4.247  -3.694  1.00  0.00     0.124 C 
HETATM    7  C   UNL     1       5.691   4.123  -4.422  1.00  0.00     0.046 C 
HETATM    8  C   UNL     1       3.772   5.650  -3.953  1.00  0.00     0.046 C 
HETATM    9  N   UNL     1       3.344   3.264  -4.288  1.00  0.00    -0.054 N 
HETATM   10  H   UNL     1       2.426   3.515  -3.898  1.00  0.00     0.279 HD
HETATM   11  H   UNL     1       3.257   3.416  -5.300  1.00  0.00     0.279 HD
HETATM   12  C   UNL     1       3.531   1.766  -4.017  1.00  0.00     0.153 C 
HETATM   13  C   UNL     1       2.110   1.168  -4.047  1.00  0.00     0.052 C 
HETATM   14  C   UNL     1       4.350   1.168  -5.171  1.00  0.00     0.052 C 
HETATM   15  C   UNL     1       5.102   2.017  -0.544  1.00  0.00     0.081 A 
ENDROOT
BRANCH   1  16
HETATM   16  N   UNL     1       5.423  -0.243   0.456  1.00  0.00    -0.302 N 
HETATM   17  C   UNL     1       5.119  -1.588   0.547  1.00  0.00     0.321 C 
HETATM   18  N   UNL     1       5.712  -2.141   1.668  1.00  0.00    -0.343 N 
HETATM   19  O   UNL     1       4.403  -2.235  -0.206  1.00  0.00    -0.247 OA
HETATM   20  H   UNL     1       6.597  -1.735   1.936  1.00  0.00     0.164 HD
HETATM   21  H   UNL     1       5.764   0.181   1.310  1.00  0.00     0.171 HD
BRANCH  18  22
HETATM   22  C   UNL     1       5.548  -3.553   1.967  1.00  0.00     0.120 C 
HETATM   23  C   UNL     1       4.176  -3.867   2.539  1.00  0.00     0.026 C 
ENDBRANCH  18  22
ENDBRANCH   1  16
BRANCH  15  24
HETATM   24  C   UNL     1       5.559   2.837   0.590  1.00  0.00     0.296 C 
HETATM   25  O   UNL     1       5.521   4.061   0.568  1.00  0.00    -0.259 OA
BRANCH  24  26
HETATM   26  O   UNL     1       6.020   2.104   1.646  1.00  0.00    -0.318 OA
BRANCH  26  27
HETATM   27  C   UNL     1       6.462   2.857   2.789  1.00  0.00     0.174 C 
HETATM   28  C   UNL     1       7.921   3.238   2.630  1.00  0.00     0.034 C 
ENDBRANCH  26  27
ENDBRANCH  24  26
ENDBRANCH  15  24
TORSDOF 5
