REMARK  5 active torsions:
REMARK  status: ('A' for Active; 'I' for Inactive)
REMARK    1  A    between atoms: C_8  and  C_9 
REMARK    2  A    between atoms: C_9  and  C_10 
REMARK       I    between atoms: C_10  and  N_11 
REMARK    3  A    between atoms: N_11  and  C_12 
REMARK    4  A    between atoms: C_12  and  C_13 
REMARK    5  A    between atoms: C_13  and  C_14 
ROOT
HETATM    1  C   UNL     1       3.072  -2.875   1.394  1.00  0.00     0.226 C 
HETATM    2  N   UNL     1       2.317  -3.657   2.242  1.00  0.00    -0.360 N 
HETATM    3  O   UNL     1       2.548  -2.110   0.584  1.00  0.00    -0.273 OA
HETATM    4  H   UNL     1       2.762  -4.259   2.920  1.00  0.00     0.162 HD
ENDROOT
BRANCH   2   5
HETATM    5  C   UNL     1       0.866  -3.587   2.244  1.00  0.00     0.127 C 
BRANCH   5   6
HETATM    6  C   UNL     1       0.234  -4.318   1.056  1.00  0.00     0.060 C 
BRANCH   6   7
HETATM    7  C   UNL     1      -1.260  -4.249   1.084  1.00  0.00    -0.029 A 
HETATM    8  C   UNL     1      -2.068  -3.137   0.681  1.00  0.00    -0.002 A 
HETATM    9  C   UNL     1      -3.401  -3.496   0.879  1.00  0.00     0.044 A 
HETATM   10  C   UNL     1      -1.781  -1.855   0.168  1.00  0.00     0.016 A 
HETATM   11  C   UNL     1      -4.468  -2.634   0.592  1.00  0.00     0.054 A 
HETATM   12  N   UNL     1      -3.406  -4.778   1.376  1.00  0.00    -0.365 N 
HETATM   13  C   UNL     1      -4.153  -1.369   0.087  1.00  0.00     0.036 A 
HETATM   14 CL   UNL     1      -5.430  -0.271  -0.280  1.00  0.00    -0.084 Cl
HETATM   15  C   UNL     1      -2.834  -0.979  -0.125  1.00  0.00     0.025 A 
HETATM   16  H   UNL     1      -4.240  -5.299   1.609  1.00  0.00     0.165 HD
HETATM   17  C   UNL     1      -2.124  -5.241   1.505  1.00  0.00     0.096 A 
ENDBRANCH   6   7
ENDBRANCH   5   6
ENDBRANCH   2   5
BRANCH   1  18
HETATM   18  C   UNL     1       4.599  -2.973   1.532  1.00  0.00     0.111 C 
HETATM   19  C   UNL     1       5.119  -4.304   2.074  1.00  0.00     0.025 C 
BRANCH  18  20
HETATM   20  C   UNL     1       5.171  -1.795   2.276  1.00  0.00     0.004 A 
HETATM   21  C   UNL     1       6.179  -0.951   1.835  1.00  0.00     0.033 A 
HETATM   22  C   UNL     1       6.958  -0.915   0.575  1.00  0.00     0.070 C 
HETATM   23  N   UNL     1       6.367  -0.033   2.828  1.00  0.00    -0.282 N 
HETATM   24  H   UNL     1       7.014   0.747   2.847  1.00  0.00     0.189 HD
HETATM   25  N   UNL     1       5.582  -0.226   3.893  1.00  0.00    -0.179 NA
HETATM   26  C   UNL     1       4.833  -1.285   3.566  1.00  0.00     0.060 A 
HETATM   27  C   UNL     1       3.808  -1.763   4.527  1.00  0.00     0.073 C 
ENDBRANCH  18  20
ENDBRANCH   1  18
TORSDOF 5
