REMARK  7 active torsions:
REMARK  status: ('A' for Active; 'I' for Inactive)
REMARK    1  A    between atoms: C_2  and  N_3 
REMARK    2  A    between atoms: C_2  and  C_10 
REMARK    3  A    between atoms: N_11  and  C_12 
REMARK    4  A    between atoms: C_19  and  S_20 
REMARK    5  A    between atoms: S_20  and  C_21 
REMARK    6  A    between atoms: C_21  and  C_22 
REMARK    7  A    between atoms: C_21  and  C_28 
REMARK       I    between atoms: C_22  and  N_23 
REMARK       I    between atoms: N_23  and  C_24 
REMARK       I    between atoms: C_24  and  N_25 
ROOT
HETATM    1  C   UNL     1       0.959  -2.803   1.017  1.00  0.00     0.166 A 
HETATM    2  N   UNL     1       2.094  -3.515   1.400  1.00  0.00    -0.274 N 
HETATM    3  C   UNL     1       1.583  -4.636   2.039  1.00  0.00     0.197 A 
HETATM    4  N   UNL     1       0.277  -4.650   1.918  1.00  0.00    -0.122 NA
HETATM    5  N   UNL     1      -0.113  -3.526   1.261  1.00  0.00    -0.131 NA
ENDROOT
BRANCH   3   6
HETATM    6  S   UNL     1       2.541  -5.862   2.795  1.00  0.00    -0.070 SA
BRANCH   6   7
HETATM    7  C   UNL     1       1.394  -7.273   3.062  1.00  0.00     0.180 C 
BRANCH   7   8
HETATM    8  C   UNL     1       0.977  -7.920   1.727  1.00  0.00     0.244 C 
HETATM    9  N   UNL     1       0.477  -9.209   1.732  1.00  0.00    -0.278 N 
HETATM   10  C   UNL     1       0.559 -10.165   2.711  1.00  0.00     0.320 C 
HETATM   11  H   UNL     1       0.204  -9.526   0.816  1.00  0.00     0.173 HD
HETATM   12  N   UNL     1       0.025 -11.359   2.335  1.00  0.00    -0.352 N 
HETATM   13  O   UNL     1       1.007 -10.018   3.837  1.00  0.00    -0.247 OA
HETATM   14  H   UNL     1       0.095 -11.674   1.378  1.00  0.00     0.160 HD
HETATM   15  H   UNL     1       0.130 -12.091   3.029  1.00  0.00     0.160 HD
HETATM   16  O   UNL     1       1.091  -7.368   0.626  1.00  0.00    -0.271 OA
ENDBRANCH   7   8
BRANCH   7  17
HETATM   17  C   UNL     1       0.256  -6.951   4.022  1.00  0.00    -0.035 A 
HETATM   18  C   UNL     1       0.516  -6.886   5.403  1.00  0.00     0.009 A 
HETATM   19  C   UNL     1      -0.504  -6.599   6.313  1.00  0.00     0.001 A 
HETATM   20  C   UNL     1      -1.800  -6.371   5.861  1.00  0.00     0.000 A 
HETATM   21  C   UNL     1      -2.078  -6.431   4.498  1.00  0.00     0.001 A 
HETATM   22  C   UNL     1      -1.060  -6.719   3.586  1.00  0.00     0.009 A 
ENDBRANCH   7  17
ENDBRANCH   6   7
ENDBRANCH   3   6
BRANCH   2  23
HETATM   23  C   UNL     1       3.443  -3.122   1.198  1.00  0.00     0.043 A 
HETATM   24  C   UNL     1       4.378  -3.193   2.240  1.00  0.00     0.033 A 
HETATM   25  C   UNL     1       5.701  -2.802   2.014  1.00  0.00     0.044 A 
HETATM   26  C   UNL     1       6.083  -2.347   0.757  1.00  0.00     0.116 A 
HETATM   27  F   UNL     1       7.350  -1.975   0.545  1.00  0.00    -0.206 F 
HETATM   28  C   UNL     1       5.166  -2.277  -0.285  1.00  0.00     0.044 A 
HETATM   29  C   UNL     1       3.842  -2.666  -0.069  1.00  0.00     0.033 A 
ENDBRANCH   2  23
BRANCH   1  30
HETATM   30  C   UNL     1       0.917  -1.371   0.582  1.00  0.00     0.255 C 
HETATM   31  C   UNL     1       0.459  -1.237  -0.873  1.00  0.00     0.049 C 
BRANCH  30  32
HETATM   32  N   UNL     1       0.026  -0.463   1.469  1.00  0.00    -0.060 N 
HETATM   33  H   UNL     1       0.044   0.459   1.018  1.00  0.00     0.280 HD
HETATM   34  C   UNL     1      -1.437  -0.872   1.555  1.00  0.00     0.236 C 
HETATM   35  C   UNL     1      -2.216   0.240   2.250  1.00  0.00     0.028 C 
HETATM   36  C   UNL     1      -1.655   0.526   3.639  1.00  0.00     0.003 C 
HETATM   37  C   UNL     1      -0.159   0.814   3.585  1.00  0.00     0.028 C 
HETATM   38  C   UNL     1       0.607  -0.284   2.856  1.00  0.00     0.236 C 
ENDBRANCH  30  32
ENDBRANCH   1  30
TORSDOF 7
