REMARK  3 active torsions:
REMARK  status: ('A' for Active; 'I' for Inactive)
REMARK    1  A    between atoms: C_8  and  C_9 
REMARK    2  A    between atoms: C_10  and  O_11 
REMARK    3  A    between atoms: C_24  and  N_25 
ROOT
HETATM    1  C   UNL     1       0.687  -0.573   1.446  1.00  0.00     0.070 C 
HETATM    2  C   UNL     1       2.137  -0.492   1.161  1.00  0.00     0.035 A 
HETATM    3  N   UNL     1       2.858   0.666   1.344  1.00  0.00    -0.280 N 
HETATM    4  H   UNL     1       2.522   1.566   1.671  1.00  0.00     0.189 HD
HETATM    5  N   UNL     1       4.169   0.545   1.058  1.00  0.00    -0.148 NA
HETATM    6  C   UNL     1       4.252  -0.710   0.633  1.00  0.00     0.199 A 
HETATM    7  C   UNL     1       3.042  -1.412   0.667  1.00  0.00     0.034 A 
HETATM    8  C   UNL     1       2.989  -2.839   0.252  1.00  0.00     0.108 A 
HETATM    9  C   UNL     1       4.378  -3.359  -0.111  1.00  0.00     0.081 A 
HETATM   10  C   UNL     1       4.485  -4.750  -0.410  1.00  0.00     0.100 C 
HETATM   11  N   UNL     1       4.574  -5.890  -0.609  1.00  0.00    -0.191 NA
HETATM   12  C   UNL     1       5.484  -2.570  -0.112  1.00  0.00     0.140 A 
HETATM   13  O   UNL     1       5.435  -1.215   0.241  1.00  0.00    -0.277 OA
ENDROOT
BRANCH   8  14
HETATM   14  C   UNL     1       1.980  -3.002  -0.882  1.00  0.00    -0.010 A 
HETATM   15  C   UNL     1       1.930  -2.205  -2.038  1.00  0.00     0.076 A 
HETATM   16  C   UNL     1       0.997  -2.460  -3.051  1.00  0.00     0.049 A 
HETATM   17  C   UNL     1       0.143  -3.570  -2.982  1.00  0.00    -0.023 A 
HETATM   18  C   UNL     1       0.210  -4.418  -1.858  1.00  0.00    -0.025 A 
HETATM   19  C   UNL     1      -0.764  -3.864  -4.013  1.00  0.00     0.012 A 
HETATM   20  C   UNL     1       1.111  -4.115  -0.822  1.00  0.00     0.023 A 
HETATM   21  C   UNL     1      -0.618  -5.551  -1.802  1.00  0.00     0.012 A 
HETATM   22  C   UNL     1      -1.504  -5.840  -2.841  1.00  0.00     0.001 A 
HETATM   23  C   UNL     1      -1.581  -4.994  -3.944  1.00  0.00     0.001 A 
BRANCH  15  24
HETATM   24  O   UNL     1       2.754  -1.117  -2.143  1.00  0.00    -0.355 OA
HETATM   25  C   UNL     1       3.648  -1.212  -3.250  1.00  0.00     0.210 C 
ENDBRANCH  15  24
ENDBRANCH   8  14
BRANCH  12  26
HETATM   26  N   UNL     1       6.760  -2.991  -0.426  1.00  0.00    -0.282 NA
HETATM   27  H   UNL     1       6.949  -3.979  -0.275  1.00  0.00     0.126 HD
HETATM   28  H   UNL     1       7.467  -2.382  -0.018  1.00  0.00     0.126 HD
ENDBRANCH  12  26
TORSDOF 3
