REMARK  7 active torsions:
REMARK  status: ('A' for Active; 'I' for Inactive)
REMARK    1  A    between atoms: C_3  and  C_4 
REMARK    2  A    between atoms: C_4  and  S_5 
REMARK    3  A    between atoms: S_5  and  C_6 
REMARK    4  A    between atoms: C_6  and  C_7 
REMARK    5  A    between atoms: C_16  and  C_17 
REMARK       I    between atoms: C_17  and  N_18 
REMARK    6  A    between atoms: N_18  and  C_19 
REMARK    7  A    between atoms: C_19  and  C_20 
ROOT
HETATM    1  C   UNL     1       3.996   6.443  -0.605  1.00  0.00     0.162 C 
HETATM    2  N   UNL     1       3.366   7.726  -0.187  1.00  0.00    -0.277 NA
HETATM    3  C   UNL     1       4.262   8.806  -0.075  1.00  0.00     0.036 A 
HETATM    4  C   UNL     1       5.621   8.597   0.232  1.00  0.00     0.057 A 
HETATM    5  N   UNL     1       6.104   7.290   0.379  1.00  0.00    -0.324 N 
HETATM    6  C   UNL     1       5.318   6.189   0.141  1.00  0.00     0.240 C 
HETATM    7  O   UNL     1       5.708   5.063   0.447  1.00  0.00    -0.271 OA
HETATM    8  C   UNL     1       3.778  10.117  -0.104  1.00  0.00     0.027 A 
HETATM    9  C   UNL     1       4.647  11.197   0.078  1.00  0.00     0.019 A 
HETATM   10  C   UNL     1       6.009  10.976   0.318  1.00  0.00     0.034 A 
HETATM   11  C   UNL     1       6.493   9.668   0.428  1.00  0.00     0.048 A 
HETATM   12  H   UNL     1       2.522   7.960  -0.702  1.00  0.00     0.128 HD
HETATM   13  H   UNL     1       7.018   7.114   0.774  1.00  0.00     0.169 HD
ENDROOT
BRANCH  10  14
HETATM   14  C   UNL     1       6.903  12.152   0.490  1.00  0.00     0.252 C 
HETATM   15  N   UNL     1       8.200  11.988   0.063  1.00  0.00    -0.353 N 
HETATM   16  H   UNL     1       8.481  11.147  -0.421  1.00  0.00     0.163 HD
HETATM   17  O   UNL     1       6.469  13.197   0.959  1.00  0.00    -0.268 OA
BRANCH  15  18
HETATM   18  C   UNL     1       9.180  13.032   0.246  1.00  0.00     0.163 C 
BRANCH  18  19
HETATM   19  C   UNL     1      10.510  12.647  -0.350  1.00  0.00    -0.019 A 
HETATM   20  C   UNL     1      11.360  11.702   0.247  1.00  0.00     0.042 A 
HETATM   21 CL   UNL     1      10.941  10.901   1.720  1.00  0.00    -0.084 Cl
HETATM   22  C   UNL     1      12.578  11.362  -0.350  1.00  0.00     0.024 A 
HETATM   23  C   UNL     1      12.961  11.957  -1.551  1.00  0.00     0.002 A 
HETATM   24  C   UNL     1      12.126  12.891  -2.158  1.00  0.00     0.001 A 
HETATM   25  C   UNL     1      10.909  13.231  -1.565  1.00  0.00     0.010 A 
ENDBRANCH  18  19
ENDBRANCH  15  18
ENDBRANCH  10  14
BRANCH   1  26
HETATM   26  C   UNL     1       4.198   6.446  -2.135  1.00  0.00     0.103 C 
BRANCH  26  27
HETATM   27  S   UNL     1       4.961   4.973  -2.899  1.00  0.00    -0.162 SA
BRANCH  27  28
HETATM   28  C   UNL     1       3.765   3.693  -2.402  1.00  0.00     0.112 C 
BRANCH  28  29
HETATM   29  C   UNL     1       4.108   2.355  -3.018  1.00  0.00    -0.043 A 
HETATM   30  C   UNL     1       4.918   1.404  -2.359  1.00  0.00    -0.055 A 
HETATM   31  C   UNL     1       5.479   1.650  -0.984  1.00  0.00     0.049 C 
HETATM   32  C   UNL     1       5.199   0.183  -2.996  1.00  0.00     0.007 A 
HETATM   33  C   UNL     1       4.707  -0.091  -4.271  1.00  0.00     0.001 A 
HETATM   34  C   UNL     1       3.925   0.851  -4.930  1.00  0.00     0.001 A 
HETATM   35  C   UNL     1       3.628   2.064  -4.309  1.00  0.00     0.008 A 
ENDBRANCH  28  29
ENDBRANCH  27  28
ENDBRANCH  26  27
ENDBRANCH   1  26
TORSDOF 7
