REMARK  5 active torsions:
REMARK  status: ('A' for Active; 'I' for Inactive)
REMARK    1  A    between atoms: C_7  and  C_8 
REMARK    2  A    between atoms: N_9  and  C_10 
REMARK    3  A    between atoms: C_10  and  C_11 
REMARK       I    between atoms: C_11  and  N_12 
REMARK    4  A    between atoms: N_12  and  C_13 
REMARK    5  A    between atoms: C_13  and  C_14 
ROOT
HETATM    1  C   UNL     1       3.027  -0.902   2.712  1.00  0.00     0.158 A 
HETATM    2  N   UNL     1       2.675  -1.308   4.061  1.00  0.00    -0.326 N 
HETATM    3  C   UNL     1       3.632  -0.953   4.992  1.00  0.00     0.255 A 
HETATM    4  O   UNL     1       3.633  -1.175   6.187  1.00  0.00    -0.267 OA
HETATM    5  C   UNL     1       4.723  -0.305   4.258  1.00  0.00     0.040 A 
HETATM    6  C   UNL     1       4.383  -0.281   2.904  1.00  0.00    -0.015 A 
HETATM    7  C   UNL     1       5.923   0.180   4.741  1.00  0.00     0.017 A 
HETATM    8  C   UNL     1       6.816   0.716   3.814  1.00  0.00     0.001 A 
HETATM    9  C   UNL     1       6.494   0.748   2.444  1.00  0.00     0.001 A 
HETATM   10  C   UNL     1       5.273   0.244   1.980  1.00  0.00     0.011 A 
ENDROOT
BRANCH   1  11
HETATM   11  C   UNL     1       2.148   0.190   2.160  1.00  0.00     0.004 A 
HETATM   12  C   UNL     1       1.533   1.269   2.803  1.00  0.00     0.017 A 
HETATM   13  C   UNL     1       1.506   1.653   4.248  1.00  0.00     0.069 C 
HETATM   14  N   UNL     1       0.935   2.050   1.833  1.00  0.00    -0.354 N 
HETATM   15  C   UNL     1       0.278   3.322   2.065  1.00  0.00     0.156 C 
HETATM   16  C   UNL     1       1.064   1.466   0.590  1.00  0.00     0.045 A 
HETATM   17  C   UNL     1       1.818   0.306   0.762  1.00  0.00     0.001 A 
HETATM   18  C   UNL     1       0.595   1.871  -0.672  1.00  0.00     0.030 A 
HETATM   19  C   UNL     1       2.123  -0.472  -0.379  1.00  0.00     0.014 A 
HETATM   20  C   UNL     1       1.666  -0.074  -1.640  1.00  0.00     0.001 A 
HETATM   21  C   UNL     1       0.911   1.083  -1.782  1.00  0.00     0.002 A 
ENDBRANCH   1  11
BRANCH   2  22
HETATM   22  C   UNL     1       1.480  -2.082   4.369  1.00  0.00     0.229 C 
BRANCH  22  23
HETATM   23  C   UNL     1       1.666  -3.607   4.396  1.00  0.00     0.235 C 
HETATM   24  N   UNL     1       2.965  -4.048   4.450  1.00  0.00    -0.357 N 
HETATM   25  H   UNL     1       3.708  -3.365   4.420  1.00  0.00     0.162 HD
HETATM   26  O   UNL     1       0.703  -4.371   4.454  1.00  0.00    -0.272 OA
BRANCH  24  27
HETATM   27  C   UNL     1       3.341  -5.425   4.712  1.00  0.00     0.154 C 
BRANCH  27  28
HETATM   28  C   UNL     1       3.701  -6.225   3.459  1.00  0.00     0.139 C 
HETATM   29  O   UNL     1       4.666  -5.524   2.643  1.00  0.00    -0.384 OA
HETATM   30  C   UNL     1       4.327  -5.752   1.266  1.00  0.00     0.168 C 
HETATM   31  C   UNL     1       3.260  -6.827   1.244  1.00  0.00     0.029 C 
HETATM   32  C   UNL     1       2.539  -6.570   2.544  1.00  0.00     0.035 C 
ENDBRANCH  27  28
ENDBRANCH  24  27
ENDBRANCH  22  23
ENDBRANCH   2  22
TORSDOF 5
