REMARK  4 active torsions:
REMARK  status: ('A' for Active; 'I' for Inactive)
REMARK    1  A    between atoms: C_8  and  C_9 
REMARK       I    between atoms: C_9  and  N_10 
REMARK    2  A    between atoms: N_10  and  C_11 
REMARK    3  A    between atoms: C_13  and  C_14 
REMARK       I    between atoms: C_14  and  N_15 
REMARK    4  A    between atoms: N_15  and  C_16 
ROOT
HETATM    1  C   UNL     1      -3.843  -4.208  -0.538  1.00  0.00     0.277 C 
HETATM    2  N   UNL     1      -3.669  -2.898  -0.126  1.00  0.00    -0.322 N 
HETATM    3  O   UNL     1      -4.892  -4.706  -0.935  1.00  0.00    -0.266 OA
HETATM    4  H   UNL     1      -2.729  -2.708   0.217  1.00  0.00     0.169 HD
ENDROOT
BRANCH   2   5
HETATM    5  C   UNL     1      -4.607  -1.853  -0.114  1.00  0.00     0.036 A 
HETATM    6  C   UNL     1      -5.896  -1.967  -0.643  1.00  0.00     0.046 A 
HETATM    7  C   UNL     1      -6.783  -0.882  -0.591  1.00  0.00     0.034 A 
HETATM    8  C   UNL     1      -6.365   0.332  -0.035  1.00  0.00     0.017 A 
HETATM    9  C   UNL     1      -5.078   0.454   0.485  1.00  0.00     0.003 A 
HETATM   10  C   UNL     1      -4.205  -0.635   0.446  1.00  0.00     0.029 A 
BRANCH   7  11
HETATM   11  C   UNL     1      -8.162  -0.966  -1.153  1.00  0.00     0.252 C 
HETATM   12  N   UNL     1      -8.742  -2.221  -1.169  1.00  0.00    -0.352 N 
HETATM   13  H   UNL     1      -8.269  -2.998  -0.724  1.00  0.00     0.163 HD
HETATM   14  O   UNL     1      -8.723   0.052  -1.543  1.00  0.00    -0.268 OA
BRANCH  12  15
HETATM   15  C   UNL     1     -10.039  -2.458  -1.719  1.00  0.00     0.084 A 
HETATM   16  C   UNL     1     -10.185  -3.255  -2.985  1.00  0.00     0.027 A 
HETATM   17  C   UNL     1     -10.649  -3.832  -1.681  1.00  0.00     0.027 A 
ENDBRANCH  12  15
ENDBRANCH   7  11
ENDBRANCH   2   5
BRANCH   1  18
HETATM   18  C   UNL     1      -2.593  -4.984  -0.433  1.00  0.00     0.157 A 
HETATM   19  C   UNL     1      -2.392  -6.354  -0.771  1.00  0.00     0.028 A 
HETATM   20  C   UNL     1      -3.186  -7.405  -1.270  1.00  0.00     0.016 A 
HETATM   21  C   UNL     1      -1.049  -6.598  -0.506  1.00  0.00     0.063 A 
HETATM   22  C   UNL     1      -2.600  -8.658  -1.483  1.00  0.00     0.001 A 
HETATM   23  C   UNL     1      -1.250  -8.870  -1.209  1.00  0.00     0.002 A 
HETATM   24  C   UNL     1      -0.442  -7.841  -0.713  1.00  0.00     0.032 A 
HETATM   25  N   UNL     1      -0.552  -5.413  -0.041  1.00  0.00    -0.277 N 
HETATM   26  H   UNL     1       0.401  -5.221   0.249  1.00  0.00     0.189 HD
HETATM   27  N   UNL     1      -1.453  -4.415   0.023  1.00  0.00    -0.168 NA
ENDBRANCH   1  18
TORSDOF 4
