REMARK  7 active torsions:
REMARK  status: ('A' for Active; 'I' for Inactive)
REMARK    1  A    between atoms: C_2  and  C_3 
REMARK    2  A    between atoms: N_16  and  C_17 
REMARK    3  A    between atoms: C_17  and  C_18 
REMARK       I    between atoms: C_18  and  N_19 
REMARK    4  A    between atoms: N_19  and  C_20 
REMARK    5  A    between atoms: C_21  and  C_22 
REMARK       I    between atoms: C_22  and  N_23 
REMARK    6  A    between atoms: N_23  and  C_24 
REMARK    7  A    between atoms: C_24  and  C_25 
ROOT
HETATM    1  C   UNL     1       5.289  -1.312   2.400  1.00  0.00     0.240 C 
ENDROOT
BRANCH   1   2
HETATM    2  N   UNL     1       4.129  -0.586   1.916  1.00  0.00    -0.259 N 
HETATM    3  C   UNL     1       3.685  -0.643   0.634  1.00  0.00     0.326 A 
HETATM    4  N   UNL     1       2.651   0.241   0.483  1.00  0.00    -0.321 N 
HETATM    5  O   UNL     1       4.093  -1.372  -0.252  1.00  0.00    -0.247 OA
HETATM    6  C   UNL     1       2.408   1.034   1.672  1.00  0.00     0.140 A 
HETATM    7  H   UNL     1       2.209   0.387  -0.415  1.00  0.00     0.165 HD
HETATM    8  C   UNL     1       2.733   2.500   1.376  1.00  0.00     0.054 C 
HETATM    9  C   UNL     1       3.498   0.424   2.591  1.00  0.00     0.261 A 
HETATM   10  O   UNL     1       3.776   0.805   3.721  1.00  0.00    -0.270 OA
BRANCH   6  11
HETATM   11  C   UNL     1       1.010   0.836   2.248  1.00  0.00    -0.020 A 
HETATM   12  C   UNL     1       0.645   1.493   3.440  1.00  0.00     0.022 A 
HETATM   13  C   UNL     1      -0.632   1.347   4.012  1.00  0.00    -0.025 A 
HETATM   14  C   UNL     1      -1.578   0.513   3.382  1.00  0.00    -0.026 A 
HETATM   15  C   UNL     1      -0.984   2.013   5.197  1.00  0.00     0.012 A 
HETATM   16  C   UNL     1      -1.221  -0.151   2.201  1.00  0.00     0.013 A 
HETATM   17  C   UNL     1      -2.853   0.365   3.954  1.00  0.00     0.012 A 
HETATM   18  C   UNL     1       0.052   0.008   1.642  1.00  0.00     0.011 A 
HETATM   19  C   UNL     1      -3.188   1.035   5.132  1.00  0.00     0.001 A 
HETATM   20  C   UNL     1      -2.255   1.859   5.752  1.00  0.00     0.001 A 
ENDBRANCH   6  11
ENDBRANCH   1   2
BRANCH   1  21
HETATM   21  C   UNL     1       5.062  -2.818   2.548  1.00  0.00     0.240 C 
HETATM   22  N   UNL     1       3.738  -3.216   2.700  1.00  0.00    -0.325 N 
HETATM   23  H   UNL     1       3.095  -2.525   2.334  1.00  0.00     0.169 HD
HETATM   24  O   UNL     1       6.018  -3.594   2.602  1.00  0.00    -0.271 OA
BRANCH  22  25
HETATM   25  C   UNL     1       3.372  -4.554   2.401  1.00  0.00     0.050 A 
HETATM   26  C   UNL     1       3.662  -5.686   3.187  1.00  0.00     0.058 A 
HETATM   27  C   UNL     1       3.229  -6.951   2.738  1.00  0.00     0.019 A 
HETATM   28  C   UNL     1       2.517  -7.096   1.546  1.00  0.00     0.001 A 
HETATM   29  C   UNL     1       2.199  -5.973   0.795  1.00  0.00     0.002 A 
HETATM   30  C   UNL     1       2.614  -4.712   1.225  1.00  0.00     0.030 A 
BRANCH  26  31
HETATM   31  C   UNL     1       4.226  -5.684   4.568  1.00  0.00     0.254 C 
HETATM   32  N   UNL     1       5.329  -4.915   4.816  1.00  0.00    -0.351 N 
HETATM   33  H   UNL     1       5.808  -4.476   4.033  1.00  0.00     0.163 HD
HETATM   34  O   UNL     1       3.718  -6.412   5.417  1.00  0.00    -0.268 OA
BRANCH  32  35
HETATM   35  C   UNL     1       6.022  -4.936   6.081  1.00  0.00     0.187 C 
BRANCH  35  36
HETATM   36  C   UNL     1       6.183  -3.546   6.576  1.00  0.00     0.070 A 
HETATM   37  O   UNL     1       7.073  -2.748   5.915  1.00  0.00    -0.325 OA
HETATM   38  C   UNL     1       7.082  -1.550   6.555  1.00  0.00     0.142 A 
HETATM   39  C   UNL     1       6.208  -1.564   7.617  1.00  0.00     0.027 A 
HETATM   40  C   UNL     1       5.623  -2.852   7.629  1.00  0.00     0.036 A 
ENDBRANCH  35  36
ENDBRANCH  32  35
ENDBRANCH  26  31
ENDBRANCH  22  25
ENDBRANCH   1  21
TORSDOF 7
