REMARK  10 active torsions:
REMARK  status: ('A' for Active; 'I' for Inactive)
REMARK    1  A    between atoms: C_3  and  N_4 
REMARK    2  A    between atoms: C_5  and  S_6 
REMARK    3  A    between atoms: S_6  and  C_7 
REMARK    4  A    between atoms: C_7  and  C_8 
REMARK       I    between atoms: C_8  and  N_9 
REMARK    5  A    between atoms: N_9  and  C_10 
REMARK    6  A    between atoms: C_10  and  C_11 
REMARK    7  A    between atoms: C_11  and  C_12 
REMARK    8  A    between atoms: C_14  and  O_15 
REMARK    9  A    between atoms: C_17  and  O_18 
REMARK   10  A    between atoms: C_26  and  N_27 
ROOT
HETATM    1  N   UNL     1       2.613   4.296  -0.561  1.00  0.00    -0.275 N 
HETATM    2  C   UNL     1       3.272   3.241   0.123  1.00  0.00     0.177 A 
HETATM    3  N   UNL     1       2.946   1.972   0.079  1.00  0.00    -0.204 NA
HETATM    4  C   UNL     1       1.908   1.708  -0.746  1.00  0.00     0.162 A 
HETATM    5  C   UNL     1       1.160   2.567  -1.503  1.00  0.00     0.081 A 
HETATM    6  C   UNL     1       1.494   3.958  -1.427  1.00  0.00     0.124 A 
HETATM    7  N   UNL     1       1.399   0.469  -1.000  1.00  0.00    -0.260 N 
HETATM    8  H   UNL     1       1.708  -0.418  -0.620  1.00  0.00     0.191 HD
HETATM    9  N   UNL     1       0.363   0.490  -1.868  1.00  0.00    -0.177 NA
HETATM   10  C   UNL     1       0.217   1.786  -2.189  1.00  0.00     0.068 A 
HETATM   11  C   UNL     1      -0.838   2.185  -3.149  1.00  0.00     0.073 C 
ENDROOT
BRANCH   2  12
HETATM   12  S   UNL     1       4.634   3.608   1.201  1.00  0.00    -0.082 SA
BRANCH  12  13
HETATM   13  C   UNL     1       5.748   2.242   0.776  1.00  0.00     0.185 C 
BRANCH  13  14
HETATM   14  C   UNL     1       6.291   2.360  -0.643  1.00  0.00     0.227 C 
HETATM   15  N   UNL     1       7.496   1.762  -0.911  1.00  0.00    -0.360 N 
HETATM   16  H   UNL     1       7.821   1.904  -1.863  1.00  0.00     0.162 HD
HETATM   17  O   UNL     1       5.698   2.932  -1.560  1.00  0.00    -0.273 OA
BRANCH  15  18
HETATM   18  C   UNL     1       8.346   1.032   0.018  1.00  0.00     0.127 C 
BRANCH  18  19
HETATM   19  C   UNL     1       9.678   0.588  -0.597  1.00  0.00     0.058 C 
BRANCH  19  20
HETATM   20  C   UNL     1      10.556   1.733  -1.052  1.00  0.00    -0.054 A 
HETATM   21  C   UNL     1      10.935   2.754  -0.166  1.00  0.00     0.046 A 
HETATM   22  C   UNL     1      11.733   3.822  -0.595  1.00  0.00     0.102 A 
HETATM   23  C   UNL     1      12.195   3.856  -1.924  1.00  0.00     0.101 A 
HETATM   24  C   UNL     1      11.840   2.827  -2.800  1.00  0.00     0.040 A 
HETATM   25  C   UNL     1      11.027   1.775  -2.368  1.00  0.00     0.010 A 
BRANCH  22  26
HETATM   26  O   UNL     1      12.128   4.862   0.211  1.00  0.00    -0.353 OA
HETATM   27  C   UNL     1      11.474   5.008   1.463  1.00  0.00     0.210 C 
ENDBRANCH  22  26
BRANCH  23  28
HETATM   28  O   UNL     1      12.977   4.932  -2.264  1.00  0.00    -0.353 OA
HETATM   29  C   UNL     1      13.461   5.000  -3.597  1.00  0.00     0.210 C 
ENDBRANCH  23  28
ENDBRANCH  19  20
ENDBRANCH  18  19
ENDBRANCH  15  18
ENDBRANCH  13  14
ENDBRANCH  12  13
ENDBRANCH   2  12
BRANCH   1  30
HETATM   30  C   UNL     1       3.080   5.644  -0.489  1.00  0.00     0.051 A 
HETATM   31  C   UNL     1       2.754   6.492   0.592  1.00  0.00    -0.035 A 
HETATM   32  C   UNL     1       2.002   6.014   1.805  1.00  0.00     0.050 C 
HETATM   33  C   UNL     1       3.194   7.827   0.569  1.00  0.00     0.011 A 
HETATM   34  C   UNL     1       3.903   8.329  -0.524  1.00  0.00     0.024 A 
HETATM   35  C   UNL     1       4.200   7.495  -1.595  1.00  0.00     0.036 A 
HETATM   36  C   UNL     1       3.799   6.161  -1.582  1.00  0.00     0.054 A 
HETATM   37 CL   UNL     1       5.043   8.118  -2.958  1.00  0.00    -0.084 Cl
ENDBRANCH   1  30
BRANCH   6  38
HETATM   38  N   UNL     1       0.802   4.866  -2.087  1.00  0.00    -0.384 N 
HETATM   39  H   UNL     1       0.021   4.618  -2.675  1.00  0.00     0.157 HD
HETATM   40  H   UNL     1       1.048   5.844  -2.001  1.00  0.00     0.157 HD
ENDBRANCH   6  38
TORSDOF 10
