REMARK  6 active torsions:
REMARK  status: ('A' for Active; 'I' for Inactive)
REMARK    1  A    between atoms: C_4  and  C_5 
REMARK    2  A    between atoms: C_9  and  C_10 
REMARK       I    between atoms: C_10  and  N_11 
REMARK    3  A    between atoms: N_11  and  C_12 
REMARK    4  A    between atoms: C_12  and  C_13 
REMARK    5  A    between atoms: C_13  and  N_14 
REMARK    6  A    between atoms: C_13  and  C_18 
ROOT
HETATM    1  C   UNL     1       5.609   1.296  -0.276  1.00  0.00     0.092 A 
HETATM    2  N   UNL     1       5.288   2.605  -0.185  1.00  0.00    -0.246 NA
HETATM    3  C   UNL     1       6.237   3.496   0.141  1.00  0.00     0.069 A 
HETATM    4  C   UNL     1       7.578   3.137   0.387  1.00  0.00     0.008 A 
HETATM    5  C   UNL     1       7.889   1.764   0.226  1.00  0.00     0.046 A 
HETATM    6  C   UNL     1       6.895   0.835  -0.084  1.00  0.00     0.052 A 
HETATM    7  C   UNL     1       5.863   4.828   0.248  1.00  0.00     0.032 A 
HETATM    8  C   UNL     1       6.770   5.823   0.614  1.00  0.00     0.002 A 
HETATM    9  C   UNL     1       8.083   5.482   0.901  1.00  0.00     0.001 A 
HETATM   10  C   UNL     1       8.485   4.150   0.798  1.00  0.00     0.015 A 
ENDROOT
BRANCH   5  11
HETATM   11  C   UNL     1       9.255   1.205   0.373  1.00  0.00     0.252 C 
HETATM   12  N   UNL     1      10.272   1.832  -0.309  1.00  0.00    -0.355 N 
HETATM   13  H   UNL     1      10.026   2.667  -0.837  1.00  0.00     0.162 HD
HETATM   14  O   UNL     1       9.440   0.148   0.967  1.00  0.00    -0.268 OA
BRANCH  12  15
HETATM   15  C   UNL     1      11.706   1.624  -0.067  1.00  0.00     0.161 C 
BRANCH  15  16
HETATM   16  C   UNL     1      12.203   0.240   0.487  1.00  0.00     0.237 C 
BRANCH  16  17
HETATM   17  N   UNL     1      11.531  -0.932  -0.230  1.00  0.00    -0.069 N 
HETATM   18  H   UNL     1      10.527  -0.720  -0.084  1.00  0.00     0.279 HD
HETATM   19  C   UNL     1      11.771  -1.040  -1.697  1.00  0.00     0.270 C 
HETATM   20  C   UNL     1      11.716  -2.246   0.469  1.00  0.00     0.270 C 
ENDBRANCH  16  17
BRANCH  16  21
HETATM   21  C   UNL     1      13.718   0.119   0.568  1.00  0.00    -0.026 A 
HETATM   22  C   UNL     1      14.300  -0.455   1.715  1.00  0.00     0.009 A 
HETATM   23  C   UNL     1      15.683  -0.613   1.817  1.00  0.00     0.001 A 
HETATM   24  C   UNL     1      16.510  -0.195   0.780  1.00  0.00     0.000 A 
HETATM   25  C   UNL     1      15.955   0.378  -0.361  1.00  0.00     0.001 A 
HETATM   26  C   UNL     1      14.570   0.530  -0.471  1.00  0.00     0.009 A 
ENDBRANCH  16  21
ENDBRANCH  15  16
ENDBRANCH  12  15
ENDBRANCH   5  11
BRANCH   1  27
HETATM   27  C   UNL     1       4.496   0.411  -0.589  1.00  0.00     0.104 A 
HETATM   28  O   UNL     1       4.804  -0.893  -0.870  1.00  0.00    -0.313 OA
HETATM   29  C   UNL     1       3.631  -1.539  -1.131  1.00  0.00     0.050 A 
HETATM   30  C   UNL     1       3.721  -2.973  -1.469  1.00  0.00     0.076 C 
HETATM   31  C   UNL     1       2.573  -0.665  -1.016  1.00  0.00     0.035 A 
HETATM   32  C   UNL     1       3.130   0.590  -0.673  1.00  0.00     0.042 A 
ENDBRANCH   1  27
TORSDOF 6
