REMARK  9 active torsions:
REMARK  status: ('A' for Active; 'I' for Inactive)
REMARK    1  A    between atoms: C_2  and  O_3 
REMARK    2  A    between atoms: O_3  and  C_4 
REMARK    3  A    between atoms: C_7  and  N_8 
REMARK       I    between atoms: N_8  and  C_9 
REMARK    4  A    between atoms: C_9  and  C_10 
REMARK    5  A    between atoms: C_11  and  N_12 
REMARK       I    between atoms: N_12  and  C_13 
REMARK    6  A    between atoms: C_13  and  C_14 
REMARK    7  A    between atoms: C_14  and  N_15 
REMARK    8  A    between atoms: N_15  and  C_18 
REMARK    9  A    between atoms: C_18  and  C_19 
ROOT
HETATM    1  C   UNL     1      11.033  -0.149  -0.865  1.00  0.00     0.073 A 
HETATM    2  C   UNL     1       9.874   0.173  -1.585  1.00  0.00     0.093 A 
HETATM    3  S   UNL     1       9.233   1.709  -1.191  1.00  0.00    -0.075 SA
HETATM    4  C   UNL     1      10.423   1.941  -0.049  1.00  0.00    -0.008 A 
HETATM    5  C   UNL     1      11.310   0.905   0.060  1.00  0.00    -0.026 A 
HETATM    6  C   UNL     1      12.303   1.199   1.134  1.00  0.00     0.041 C 
HETATM    7  C   UNL     1      11.656   2.404   1.882  1.00  0.00     0.010 C 
HETATM    8  C   UNL     1      10.671   3.069   0.879  1.00  0.00     0.047 C 
ENDROOT
BRANCH   2   9
HETATM    9  N   UNL     1       9.253  -0.647  -2.519  1.00  0.00    -0.319 N 
HETATM   10  C   UNL     1       8.188  -0.327  -3.328  1.00  0.00     0.248 C 
HETATM   11  O   UNL     1       7.620   0.756  -3.468  1.00  0.00    -0.271 OA
HETATM   12  H   UNL     1       9.694  -1.568  -2.592  1.00  0.00     0.169 HD
BRANCH  10  13
HETATM   13  C   UNL     1       7.681  -1.495  -4.175  1.00  0.00     0.335 C 
BRANCH  13  14
HETATM   14  N   UNL     1       6.778  -0.953  -5.260  1.00  0.00    -0.059 N 
HETATM   15  H   UNL     1       6.222  -0.213  -4.794  1.00  0.00     0.278 HD
HETATM   16  H   UNL     1       7.349  -0.424  -5.930  1.00  0.00     0.278 HD
BRANCH  14  17
HETATM   17  C   UNL     1       5.853  -1.885  -5.969  1.00  0.00     0.215 C 
HETATM   18  C   UNL     1       6.663  -2.965  -6.685  1.00  0.00     0.045 C 
BRANCH  17  19
HETATM   19  C   UNL     1       4.737  -2.364  -5.065  1.00  0.00    -0.028 A 
HETATM   20  C   UNL     1       4.739  -3.627  -4.452  1.00  0.00     0.009 A 
HETATM   21  C   UNL     1       3.695  -4.009  -3.604  1.00  0.00     0.001 A 
HETATM   22  C   UNL     1       2.639  -3.139  -3.355  1.00  0.00     0.000 A 
HETATM   23  C   UNL     1       2.620  -1.882  -3.952  1.00  0.00     0.001 A 
HETATM   24  C   UNL     1       3.661  -1.496  -4.797  1.00  0.00     0.009 A 
ENDBRANCH  17  19
ENDBRANCH  14  17
ENDBRANCH  13  14
ENDBRANCH  10  13
ENDBRANCH   2   9
BRANCH   1  25
HETATM   25  C   UNL     1      11.761  -1.409  -1.114  1.00  0.00     0.259 C 
HETATM   26  N   UNL     1      13.034  -1.452  -0.586  1.00  0.00    -0.323 N 
HETATM   27  H   UNL     1      13.356  -0.625  -0.109  1.00  0.00     0.169 HD
HETATM   28  O   UNL     1      11.237  -2.285  -1.801  1.00  0.00    -0.267 OA
BRANCH  26  29
HETATM   29  C   UNL     1      14.005  -2.464  -0.728  1.00  0.00     0.035 A 
HETATM   30  C   UNL     1      13.796  -3.673  -1.392  1.00  0.00     0.032 A 
HETATM   31  C   UNL     1      14.840  -4.600  -1.532  1.00  0.00     0.039 A 
HETATM   32  C   UNL     1      16.102  -4.324  -1.010  1.00  0.00     0.068 A 
HETATM   33  C   UNL     1      16.302  -3.136  -0.311  1.00  0.00     0.039 A 
HETATM   34  C   UNL     1      15.265  -2.211  -0.173  1.00  0.00     0.032 A 
BRANCH  32  35
HETATM   35  O   UNL     1      17.202  -5.129  -1.101  1.00  0.00    -0.352 OA
BRANCH  35  36
HETATM   36  C   UNL     1      17.173  -6.145  -2.102  1.00  0.00     0.171 C 
HETATM   37  C   UNL     1      18.579  -6.699  -2.246  1.00  0.00     0.034 C 
ENDBRANCH  35  36
ENDBRANCH  32  35
ENDBRANCH  26  29
ENDBRANCH   1  25
TORSDOF 9
