REMARK  8 active torsions:
REMARK  status: ('A' for Active; 'I' for Inactive)
REMARK    1  A    between atoms: C_2  and  N_3 
REMARK    2  A    between atoms: N_3  and  N_4 
REMARK       I    between atoms: N_4  and  C_5 
REMARK    3  A    between atoms: C_5  and  C_6 
REMARK       I    between atoms: C_6  and  N_7 
REMARK    4  A    between atoms: N_7  and  C_8 
REMARK    5  A    between atoms: C_8  and  C_9 
REMARK    6  A    between atoms: C_17  and  C_18 
REMARK       I    between atoms: C_18  and  N_19 
REMARK    7  A    between atoms: N_19  and  C_20 
REMARK    8  A    between atoms: C_21  and  O_22 
ROOT
HETATM    1  N   UNL     1       2.753  -1.859   1.178  1.00  0.00    -0.302 N 
HETATM    2  H   UNL     1       2.133  -2.073   1.969  1.00  0.00     0.186 HD
ENDROOT
BRANCH   1   3
HETATM    3  C   UNL     1       2.392  -0.738   0.451  1.00  0.00     0.027 C 
HETATM    4  C   UNL     1       1.023  -0.197   0.821  1.00  0.00     0.070 C 
HETATM    5  C   UNL     1       3.059  -0.109  -0.539  1.00  0.00     0.100 C 
BRANCH   5   6
HETATM    6  C   UNL     1       4.357  -0.492  -1.161  1.00  0.00     0.247 C 
HETATM    7  N   UNL     1       4.892   0.333  -2.111  1.00  0.00    -0.321 N 
HETATM    8  H   UNL     1       5.569  -0.144  -2.699  1.00  0.00     0.169 HD
HETATM    9  O   UNL     1       4.893  -1.580  -0.954  1.00  0.00    -0.268 OA
BRANCH   7  10
HETATM   10  C   UNL     1       4.683   1.688  -2.425  1.00  0.00     0.070 A 
HETATM   11  C   UNL     1       4.971   2.111  -3.734  1.00  0.00     0.095 A 
HETATM   12  C   UNL     1       4.872   3.454  -4.098  1.00  0.00     0.041 A 
HETATM   13  C   UNL     1       4.459   4.393  -3.155  1.00  0.00     0.026 A 
HETATM   14  C   UNL     1       4.174   3.983  -1.854  1.00  0.00     0.036 A 
HETATM   15 CL   UNL     1       3.693   5.150  -0.683  1.00  0.00    -0.084 Cl
HETATM   16  C   UNL     1       4.292   2.640  -1.481  1.00  0.00     0.056 A 
BRANCH  11  17
HETATM   17  O   UNL     1       5.376   1.225  -4.702  1.00  0.00    -0.354 OA
HETATM   18  C   UNL     1       4.269   0.464  -5.194  1.00  0.00     0.210 C 
ENDBRANCH  11  17
ENDBRANCH   7  10
ENDBRANCH   5   6
ENDBRANCH   1   3
BRANCH   1  19
HETATM   19  N   UNL     1       4.080  -2.197   1.456  1.00  0.00    -0.262 N 
HETATM   20  C   UNL     1       4.311  -2.996   2.557  1.00  0.00     0.327 C 
HETATM   21  O   UNL     1       3.487  -3.267   3.426  1.00  0.00    -0.261 OA
HETATM   22  H   UNL     1       4.732  -2.220   0.662  1.00  0.00     0.190 HD
BRANCH  20  23
HETATM   23  C   UNL     1       5.736  -3.577   2.633  1.00  0.00     0.311 C 
HETATM   24  N   UNL     1       5.933  -4.398   3.719  1.00  0.00    -0.349 N 
HETATM   25  H   UNL     1       5.128  -4.599   4.307  1.00  0.00     0.163 HD
HETATM   26  O   UNL     1       6.574  -3.310   1.785  1.00  0.00    -0.262 OA
BRANCH  24  27
HETATM   27  C   UNL     1       7.176  -5.091   3.928  1.00  0.00     0.161 C 
BRANCH  27  28
HETATM   28  C   UNL     1       7.203  -5.765   5.273  1.00  0.00    -0.041 A 
HETATM   29  C   UNL     1       7.108  -7.159   5.379  1.00  0.00     0.009 A 
HETATM   30  C   UNL     1       7.123  -7.776   6.632  1.00  0.00     0.001 A 
HETATM   31  C   UNL     1       7.226  -7.007   7.789  1.00  0.00     0.000 A 
HETATM   32  C   UNL     1       7.313  -5.619   7.697  1.00  0.00     0.001 A 
HETATM   33  C   UNL     1       7.301  -5.001   6.446  1.00  0.00     0.009 A 
ENDBRANCH  27  28
ENDBRANCH  24  27
ENDBRANCH  20  23
ENDBRANCH   1  19
TORSDOF 8
