REMARK  5 active torsions:
REMARK  status: ('A' for Active; 'I' for Inactive)
REMARK    1  A    between atoms: C_6  and  N_7 
REMARK       I    between atoms: N_7  and  C_8 
REMARK    2  A    between atoms: C_8  and  C_9 
REMARK    3  A    between atoms: C_9  and  C_10 
REMARK    4  A    between atoms: C_12  and  N_13 
REMARK       I    between atoms: N_13  and  C_14 
REMARK       I    between atoms: C_14  and  N_15 
REMARK    5  A    between atoms: N_15  and  C_16 
ROOT
HETATM    1  C   UNL     1       5.673   2.045   0.901  1.00  0.00     0.052 A 
HETATM    2  N   UNL     1       4.794   0.978   1.080  1.00  0.00    -0.228 NA
HETATM    3  C   UNL     1       3.664   1.424   1.577  1.00  0.00     0.174 A 
HETATM    4  S   UNL     1       3.555   3.098   1.859  1.00  0.00    -0.062 SA
HETATM    5  C   UNL     1       5.158   3.275   1.280  1.00  0.00     0.081 A 
ENDROOT
BRANCH   1   6
HETATM    6  C   UNL     1       7.056   1.828   0.366  1.00  0.00     0.163 C 
BRANCH   6   7
HETATM    7  C   UNL     1       7.328   0.568  -0.445  1.00  0.00     0.227 C 
HETATM    8  N   UNL     1       6.232  -0.038  -1.025  1.00  0.00    -0.327 N 
HETATM    9  H   UNL     1       5.324   0.298  -0.713  1.00  0.00     0.169 HD
HETATM   10  O   UNL     1       8.496   0.204  -0.588  1.00  0.00    -0.273 OA
BRANCH   8  11
HETATM   11  C   UNL     1       6.215  -1.170  -1.867  1.00  0.00     0.036 A 
HETATM   12  C   UNL     1       7.358  -1.799  -2.358  1.00  0.00     0.053 A 
HETATM   13  C   UNL     1       7.251  -2.945  -3.157  1.00  0.00     0.042 A 
HETATM   14  C   UNL     1       5.998  -3.485  -3.479  1.00  0.00    -0.040 A 
HETATM   15 CL   UNL     1       8.714  -3.673  -3.725  1.00  0.00    -0.084 Cl
HETATM   16  C   UNL     1       5.856  -4.726  -4.315  1.00  0.00     0.050 C 
HETATM   17  C   UNL     1       4.853  -2.835  -3.004  1.00  0.00     0.011 A 
HETATM   18  C   UNL     1       4.962  -1.686  -2.214  1.00  0.00     0.030 A 
ENDBRANCH   8  11
ENDBRANCH   6   7
ENDBRANCH   1   6
BRANCH   3  19
HETATM   19  N   UNL     1       2.540   0.723   1.888  1.00  0.00    -0.287 N 
HETATM   20  C   UNL     1       2.342  -0.619   1.738  1.00  0.00     0.326 C 
HETATM   21  N   UNL     1       3.423  -1.368   1.359  1.00  0.00    -0.309 N 
HETATM   22  O   UNL     1       1.212  -1.048   1.964  1.00  0.00    -0.247 OA
HETATM   23  H   UNL     1       4.313  -0.880   1.369  1.00  0.00     0.170 HD
HETATM   24  H   UNL     1       1.736   1.240   2.212  1.00  0.00     0.172 HD
BRANCH  21  25
HETATM   25  C   UNL     1       3.457  -2.743   1.050  1.00  0.00     0.036 A 
HETATM   26  C   UNL     1       2.314  -3.536   0.910  1.00  0.00     0.032 A 
HETATM   27  C   UNL     1       2.428  -4.885   0.557  1.00  0.00     0.044 A 
HETATM   28  C   UNL     1       3.684  -5.438   0.346  1.00  0.00     0.116 A 
HETATM   29  F   UNL     1       3.788  -6.727  -0.002  1.00  0.00    -0.206 F 
HETATM   30  C   UNL     1       4.831  -4.669   0.485  1.00  0.00     0.044 A 
HETATM   31  C   UNL     1       4.717  -3.322   0.838  1.00  0.00     0.032 A 
ENDBRANCH  21  25
ENDBRANCH   3  19
TORSDOF 5
