REMARK  10 active torsions:
REMARK  status: ('A' for Active; 'I' for Inactive)
REMARK    1  A    between atoms: S_2  and  C_3 
REMARK    2  A    between atoms: C_5  and  N_6 
REMARK    3  A    between atoms: N_6  and  C_7 
REMARK    4  A    between atoms: C_11  and  C_12 
REMARK       I    between atoms: C_12  and  N_13 
REMARK    5  A    between atoms: N_13  and  C_14 
REMARK    6  A    between atoms: C_14  and  C_15 
REMARK    7  A    between atoms: C_15  and  C_16 
REMARK    8  A    between atoms: C_16  and  N_17 
REMARK    9  A    between atoms: C_21  and  C_22 
REMARK   10  A    between atoms: C_22  and  C_23 
ROOT
HETATM    1  C   UNL     1       6.086   9.273   5.221  1.00  0.00     0.252 C 
HETATM    2  N   UNL     1       4.751   9.150   4.896  1.00  0.00    -0.357 N 
HETATM    3  O   UNL     1       6.886   9.839   4.484  1.00  0.00    -0.268 OA
HETATM    4  H   UNL     1       4.236   8.491   5.470  1.00  0.00     0.162 HD
ENDROOT
BRANCH   1   5
HETATM    5  C   UNL     1       6.610   8.525   6.407  1.00  0.00     0.048 A 
HETATM    6  C   UNL     1       5.874   8.116   7.540  1.00  0.00     0.009 A 
HETATM    7  C   UNL     1       6.513   7.170   8.371  1.00  0.00     0.070 A 
HETATM    8  C   UNL     1       4.586   8.582   7.918  1.00  0.00     0.015 A 
HETATM    9  N   UNL     1       7.757   6.711   8.153  1.00  0.00    -0.231 NA
HETATM   10  C   UNL     1       5.833   6.669   9.470  1.00  0.00     0.032 A 
HETATM   11  C   UNL     1       8.476   7.162   7.115  1.00  0.00     0.129 A 
HETATM   12  C   UNL     1       7.938   8.104   6.258  1.00  0.00     0.068 A 
HETATM   13  C   UNL     1       4.545   7.091   9.801  1.00  0.00     0.002 A 
HETATM   14  C   UNL     1       3.925   8.063   9.031  1.00  0.00     0.001 A 
BRANCH  11  15
HETATM   15  N   UNL     1       9.816   6.766   6.881  1.00  0.00    -0.341 N 
HETATM   16  H   UNL     1       9.976   6.703   5.877  1.00  0.00     0.167 HD
BRANCH  15  17
HETATM   17  C   UNL     1      10.548   5.706   7.470  1.00  0.00     0.034 A 
HETATM   18  C   UNL     1       9.958   4.593   8.075  1.00  0.00     0.048 A 
HETATM   19  C   UNL     1      10.742   3.538   8.559  1.00  0.00     0.002 A 
HETATM   20  C   UNL     1      12.131   3.585   8.416  1.00  0.00     0.018 A 
HETATM   21  C   UNL     1      12.734   4.685   7.810  1.00  0.00     0.004 A 
HETATM   22  C   UNL     1      11.946   5.733   7.337  1.00  0.00     0.029 A 
BRANCH  19  23
HETATM   23  S   UNL     1       9.942   2.123   9.295  1.00  0.00    -0.134 SA
HETATM   24  C   UNL     1      10.620   2.243  10.971  1.00  0.00     0.095 C 
ENDBRANCH  19  23
ENDBRANCH  15  17
ENDBRANCH  11  15
ENDBRANCH   1   5
BRANCH   2  25
HETATM   25  C   UNL     1       4.214   9.246   3.546  1.00  0.00     0.124 C 
BRANCH  25  26
HETATM   26  C   UNL     1       4.385  10.515   2.694  1.00  0.00     0.047 C 
BRANCH  26  27
HETATM   27  C   UNL     1       5.747  11.068   2.253  1.00  0.00     0.236 C 
BRANCH  27  28
HETATM   28  N   UNL     1       6.625  10.225   1.319  1.00  0.00    -0.071 N 
HETATM   29  H   UNL     1       6.358  10.481   0.360  1.00  0.00     0.279 HD
HETATM   30  C   UNL     1       8.074  10.671   1.492  1.00  0.00     0.235 C 
HETATM   31  C   UNL     1       9.036   9.843   0.644  1.00  0.00     0.032 C 
HETATM   32  C   UNL     1       8.878   8.329   0.857  1.00  0.00    -0.007 C 
HETATM   33  C   UNL     1       7.425   7.985   0.530  1.00  0.00     0.032 C 
HETATM   34  C   UNL     1       6.447   8.739   1.415  1.00  0.00     0.235 C 
BRANCH  32  35
HETATM   35  C   UNL     1       9.335   7.914   2.278  1.00  0.00     0.043 C 
BRANCH  35  36
HETATM   36  C   UNL     1       9.129   6.463   2.640  1.00  0.00    -0.058 A 
HETATM   37  C   UNL     1      10.043   5.489   2.223  1.00  0.00     0.007 A 
HETATM   38  C   UNL     1       9.881   4.156   2.612  1.00  0.00     0.001 A 
HETATM   39  C   UNL     1       8.805   3.782   3.415  1.00  0.00     0.000 A 
HETATM   40  C   UNL     1       7.882   4.738   3.824  1.00  0.00     0.001 A 
HETATM   41  C   UNL     1       8.041   6.067   3.433  1.00  0.00     0.007 A 
ENDBRANCH  35  36
ENDBRANCH  32  35
ENDBRANCH  27  28
ENDBRANCH  26  27
ENDBRANCH  25  26
ENDBRANCH   2  25
TORSDOF 10
