REMARK  5 active torsions:
REMARK  status: ('A' for Active; 'I' for Inactive)
REMARK    1  A    between atoms: C_7  and  C_8 
REMARK    2  A    between atoms: C_10  and  N_11 
REMARK       I    between atoms: N_11  and  C_12 
REMARK    3  A    between atoms: C_12  and  C_13 
REMARK    4  A    between atoms: C_15  and  O_16 
REMARK    5  A    between atoms: C_19  and  O_20 
ROOT
HETATM    1  C   UNL     1       8.010  -2.519  -0.702  1.00  0.00     0.019 A 
HETATM    2  C   UNL     1       9.119  -1.681  -0.496  1.00  0.00     0.045 A 
HETATM    3  C   UNL     1      10.405  -2.198  -0.306  1.00  0.00     0.035 A 
HETATM    4  C   UNL     1      10.580  -3.584  -0.323  1.00  0.00     0.029 A 
HETATM    5  C   UNL     1       9.486  -4.435  -0.512  1.00  0.00     0.003 A 
HETATM    6  C   UNL     1       8.209  -3.904  -0.702  1.00  0.00     0.016 A 
ENDROOT
BRANCH   3   7
HETATM    7  N   UNL     1      11.553  -1.383  -0.156  1.00  0.00    -0.323 N 
HETATM    8  C   UNL     1      11.556  -0.007   0.024  1.00  0.00     0.256 C 
HETATM    9  O   UNL     1      10.565   0.661   0.306  1.00  0.00    -0.267 OA
HETATM   10  H   UNL     1      12.432  -1.875  -0.165  1.00  0.00     0.169 HD
BRANCH   8  11
HETATM   11  C   UNL     1      12.858   0.722  -0.136  1.00  0.00     0.037 A 
HETATM   12  C   UNL     1      12.803   2.127  -0.051  1.00  0.00     0.054 A 
HETATM   13  C   UNL     1      13.942   2.903  -0.244  1.00  0.00     0.071 A 
HETATM   14  C   UNL     1      15.152   2.267  -0.514  1.00  0.00     0.073 A 
HETATM   15  C   UNL     1      15.234   0.874  -0.594  1.00  0.00     0.071 A 
HETATM   16  C   UNL     1      14.085   0.100  -0.409  1.00  0.00     0.054 A 
BRANCH  13  17
HETATM   17  O   UNL     1      13.999   4.268  -0.204  1.00  0.00    -0.356 OA
HETATM   18  C   UNL     1      12.780   4.957   0.054  1.00  0.00     0.210 C 
ENDBRANCH  13  17
BRANCH  15  19
HETATM   19  O   UNL     1      16.488   0.401  -0.868  1.00  0.00    -0.356 OA
HETATM   20  C   UNL     1      16.663  -1.009  -0.921  1.00  0.00     0.210 C 
ENDBRANCH  15  19
ENDBRANCH   8  11
ENDBRANCH   3   7
BRANCH   1  21
HETATM   21  C   UNL     1       6.681  -1.961  -0.950  1.00  0.00     0.181 A 
HETATM   22  N   UNL     1       5.549  -2.578  -1.246  1.00  0.00    -0.221 NA
HETATM   23  C   UNL     1       4.657  -1.548  -1.427  1.00  0.00     0.093 A 
HETATM   24  C   UNL     1       5.289  -0.336  -1.218  1.00  0.00     0.107 A 
HETATM   25  C   UNL     1       3.302  -1.545  -1.781  1.00  0.00     0.035 A 
HETATM   26  C   UNL     1       4.685   0.911  -1.325  1.00  0.00     0.046 A 
HETATM   27  O   UNL     1       6.587  -0.592  -0.907  1.00  0.00    -0.289 OA
HETATM   28  C   UNL     1       3.325   0.910  -1.673  1.00  0.00    -0.059 A 
HETATM   29  C   UNL     1       2.610   2.219  -1.857  1.00  0.00     0.048 C 
HETATM   30  C   UNL     1       2.652  -0.304  -1.907  1.00  0.00     0.009 A 
ENDBRANCH   1  21
TORSDOF 5
