REMARK  5 active torsions:
REMARK  status: ('A' for Active; 'I' for Inactive)
REMARK    1  A    between atoms: C_2  and  C_3 
REMARK    2  A    between atoms: C_4  and  C_5 
REMARK    3  A    between atoms: C_8  and  C_9 
REMARK       I    between atoms: C_9  and  N_10 
REMARK    4  A    between atoms: N_10  and  C_11 
REMARK    5  A    between atoms: C_13  and  C_14 
ROOT
HETATM    1  C   UNL     1       3.363  -3.941   2.977  1.00  0.00     0.280 C 
HETATM    2  N   UNL     1       3.602  -3.827   4.336  1.00  0.00    -0.321 N 
HETATM    3  O   UNL     1       3.186  -4.993   2.372  1.00  0.00    -0.265 OA
HETATM    4  H   UNL     1       3.712  -2.872   4.661  1.00  0.00     0.169 HD
ENDROOT
BRANCH   2   5
HETATM    5  C   UNL     1       3.665  -4.849   5.302  1.00  0.00     0.035 A 
HETATM    6  C   UNL     1       3.537  -6.211   5.009  1.00  0.00     0.042 A 
HETATM    7  C   UNL     1       3.588  -7.186   6.022  1.00  0.00    -0.021 A 
HETATM    8  C   UNL     1       3.774  -6.766   7.346  1.00  0.00     0.012 A 
HETATM    9  C   UNL     1       3.912  -5.411   7.648  1.00  0.00     0.003 A 
HETATM   10  C   UNL     1       3.859  -4.458   6.631  1.00  0.00     0.029 A 
BRANCH   7  11
HETATM   11  C   UNL     1       3.436  -8.596   5.685  1.00  0.00     0.010 A 
HETATM   12  C   UNL     1       2.935  -9.219   4.514  1.00  0.00     0.152 A 
HETATM   13  N   UNL     1       2.961 -10.553   4.580  1.00  0.00    -0.187 NA
HETATM   14  N   UNL     1       3.485 -10.794   5.790  1.00  0.00    -0.289 N 
HETATM   15  H   UNL     1       3.612 -11.760   6.074  1.00  0.00     0.188 HD
HETATM   16  C   UNL     1       3.786  -9.661   6.490  1.00  0.00     0.123 A 
ENDBRANCH   7  11
ENDBRANCH   2   5
BRANCH   1  17
HETATM   17  C   UNL     1       3.319  -2.655   2.306  1.00  0.00     0.144 A 
HETATM   18  O   UNL     1       3.555  -1.508   3.017  1.00  0.00    -0.309 OA
HETATM   19  C   UNL     1       3.436  -0.463   2.151  1.00  0.00     0.060 A 
HETATM   20  C   UNL     1       3.117  -0.912   0.879  1.00  0.00    -0.026 A 
HETATM   21  C   UNL     1       3.058  -2.331   0.990  1.00  0.00     0.052 A 
BRANCH  19  22
HETATM   22  C   UNL     1       3.660   0.890   2.726  1.00  0.00     0.061 C 
HETATM   23  C   UNL     1       5.067   1.391   2.444  1.00  0.00     0.012 C 
ENDBRANCH  19  22
BRANCH  20  24
HETATM   24  C   UNL     1       2.897  -0.061  -0.332  1.00  0.00     0.036 C 
HETATM   25  C   UNL     1       2.355  -0.802  -1.545  1.00  0.00     0.010 C 
ENDBRANCH  20  24
ENDBRANCH   1  17
TORSDOF 5
