REMARK  5 active torsions:
REMARK  status: ('A' for Active; 'I' for Inactive)
REMARK    1  A    between atoms: C_6  and  C_7 
REMARK    2  A    between atoms: C_7  and  C_8 
REMARK       I    between atoms: C_8  and  N_9 
REMARK    3  A    between atoms: N_9  and  N_10 
REMARK    4  A    between atoms: C_11  and  C_12 
REMARK    5  A    between atoms: C_13  and  O_14 
ROOT
HETATM    1  C   UNL     1      -4.212  -1.702   0.159  1.00  0.00     0.244 C 
HETATM    2  N   UNL     1      -3.285  -2.666  -0.189  1.00  0.00    -0.247 N 
HETATM    3  O   UNL     1      -5.415  -1.930   0.313  1.00  0.00    -0.271 OA
HETATM    4  H   UNL     1      -2.329  -2.371  -0.412  1.00  0.00     0.192 HD
ENDROOT
BRANCH   1   5
HETATM    5  C   UNL     1      -3.655  -0.323   0.466  1.00  0.00     0.183 C 
BRANCH   5   6
HETATM    6  C   UNL     1      -2.414   0.032  -0.286  1.00  0.00     0.114 A 
HETATM    7  N   UNL     1      -1.479  -0.785  -0.736  1.00  0.00    -0.233 NA
HETATM    8  C   UNL     1      -0.526   0.022  -1.315  1.00  0.00     0.085 A 
HETATM    9  C   UNL     1      -0.874   1.361  -1.194  1.00  0.00     0.062 A 
HETATM   10  C   UNL     1       0.671  -0.320  -1.959  1.00  0.00     0.034 A 
HETATM   11  C   UNL     1      -0.082   2.407  -1.672  1.00  0.00     0.032 A 
HETATM   12  N   UNL     1      -2.079   1.342  -0.542  1.00  0.00    -0.342 N 
HETATM   13  C   UNL     1       1.113   2.048  -2.307  1.00  0.00     0.002 A 
HETATM   14  C   UNL     1       1.484   0.709  -2.453  1.00  0.00     0.002 A 
HETATM   15  H   UNL     1      -2.622   2.154  -0.284  1.00  0.00     0.167 HD
ENDBRANCH   5   6
ENDBRANCH   1   5
BRANCH   2  16
HETATM   16  N   UNL     1      -3.679  -3.951  -0.394  1.00  0.00    -0.184 NA
HETATM   17  C   UNL     1      -2.745  -4.765  -0.769  1.00  0.00     0.153 C 
BRANCH  17  18
HETATM   18  C   UNL     1      -3.045  -6.189  -1.015  1.00  0.00     0.017 A 
HETATM   19  C   UNL     1      -4.336  -6.712  -0.868  1.00  0.00     0.077 A 
HETATM   20  C   UNL     1      -4.578  -8.064  -1.106  1.00  0.00     0.039 A 
HETATM   21  C   UNL     1      -3.531  -8.901  -1.492  1.00  0.00     0.022 A 
HETATM   22  C   UNL     1      -2.246  -8.378  -1.637  1.00  0.00     0.012 A 
HETATM   23 BR   UNL     1      -0.828  -9.516  -2.158  1.00  0.00    -0.051 Br
HETATM   24  C   UNL     1      -1.993  -7.026  -1.402  1.00  0.00     0.034 A 
BRANCH  19  25
HETATM   25  O   UNL     1      -5.415  -5.961  -0.491  1.00  0.00    -0.360 OA
HETATM   26  H   UNL     1      -5.116  -5.032  -0.351  1.00  0.00     0.217 HD
ENDBRANCH  19  25
ENDBRANCH  17  18
ENDBRANCH   2  16
TORSDOF 5
