REMARK  3 active torsions:
REMARK  status: ('A' for Active; 'I' for Inactive)
REMARK    1  A    between atoms: C_4  and  C_5 
REMARK    2  A    between atoms: C_5  and  N_6 
REMARK    3  A    between atoms: N_10  and  S_11 
ROOT
HETATM    1  N   UNL     1       4.248   3.080   0.341  1.00  0.00    -0.063 N 
HETATM    2  H   UNL     1       4.811   3.936   0.339  1.00  0.00     0.280 HD
HETATM    3  C   UNL     1       4.958   1.807   1.522  1.00  0.00     0.267 C 
HETATM    4  C   UNL     1       5.589   0.235   0.578  1.00  0.00     0.067 C 
HETATM    5  N   UNL     1       5.143  -1.078   1.204  1.00  0.00    -0.300 N 
HETATM    6  C   UNL     1       5.634  -2.314   0.527  1.00  0.00     0.136 C 
HETATM    7  C   UNL     1       7.159  -2.334   0.466  1.00  0.00     0.021 C 
HETATM    8  C   UNL     1       7.772  -1.013   0.014  1.00  0.00     0.004 C 
HETATM    9  C   UNL     1       7.150   0.198   0.717  1.00  0.00     0.033 C 
HETATM   10  C   UNL     1       5.207   0.201  -1.304  1.00  0.00     0.035 C 
HETATM   11  C   UNL     1       3.926   1.311  -2.162  1.00  0.00     0.030 C 
HETATM   12  C   UNL     1       3.308   2.868  -1.243  1.00  0.00     0.235 C 
ENDROOT
BRANCH   5  13
HETATM   13  S   UNL     1       4.714  -1.258   2.843  1.00  0.00     0.225 S 
HETATM   14  C   UNL     1       6.077  -2.120   3.601  1.00  0.00     0.186 C 
HETATM   15  O   UNL     1       4.686   0.046   3.462  1.00  0.00    -0.206 OA
HETATM   16  O   UNL     1       3.571  -2.141   2.879  1.00  0.00    -0.206 OA
ENDBRANCH   5  13
BRANCH   1  17
HETATM   17  C   UNL     1       4.793   2.088  -0.355  1.00  0.00     0.299 C 
BRANCH  17  18
HETATM   18  C   UNL     1       3.299   0.987   0.109  1.00  0.00     0.079 A 
HETATM   19  O   UNL     1       2.388   1.610   0.975  1.00  0.00    -0.318 OA
HETATM   20  C   UNL     1       1.377   0.759   1.268  1.00  0.00     0.049 A 
HETATM   21  C   UNL     1       0.374   1.230   2.244  1.00  0.00     0.076 C 
HETATM   22  C   UNL     1       1.533  -0.407   0.570  1.00  0.00     0.035 A 
HETATM   23  C   UNL     1       2.728  -0.265  -0.182  1.00  0.00     0.037 A 
ENDBRANCH  17  18
ENDBRANCH   1  17
TORSDOF 3
