REMARK  7 active torsions:
REMARK  status: ('A' for Active; 'I' for Inactive)
REMARK    1  A    between atoms: C_2  and  O_3 
REMARK    2  A    between atoms: O_3  and  C_4 
REMARK    3  A    between atoms: C_5  and  N_6 
REMARK       I    between atoms: N_6  and  C_7 
REMARK       I    between atoms: C_7  and  N_8 
REMARK    4  A    between atoms: N_8  and  C_9 
REMARK    5  A    between atoms: C_9  and  C_10 
REMARK       I    between atoms: C_10  and  N_11 
REMARK    6  A    between atoms: N_11  and  C_12 
REMARK    7  A    between atoms: C_25  and  C_26 
ROOT
HETATM    1  N   UNL     1       4.336   3.439  -0.410  1.00  0.00    -0.306 N 
HETATM    2  C   UNL     1       4.477   4.643   0.250  1.00  0.00     0.321 C 
HETATM    3  N   UNL     1       5.794   4.928   0.493  1.00  0.00    -0.334 N 
HETATM    4  O   UNL     1       3.576   5.430   0.515  1.00  0.00    -0.247 OA
HETATM    5  H   UNL     1       4.972   3.388  -1.192  1.00  0.00     0.171 HD
HETATM    6  H   UNL     1       6.446   4.159   0.419  1.00  0.00     0.164 HD
ENDROOT
BRANCH   3   7
HETATM    7  C   UNL     1       6.330   6.280   0.512  1.00  0.00     0.227 C 
BRANCH   7   8
HETATM    8  C   UNL     1       6.027   7.226   1.690  1.00  0.00     0.239 C 
HETATM    9  N   UNL     1       4.688   7.314   2.009  1.00  0.00    -0.326 N 
HETATM   10  H   UNL     1       4.079   6.624   1.562  1.00  0.00     0.169 HD
HETATM   11  O   UNL     1       6.920   7.941   2.143  1.00  0.00    -0.271 OA
BRANCH   9  12
HETATM   12  C   UNL     1       4.041   8.300   2.779  1.00  0.00     0.037 A 
HETATM   13  C   UNL     1       4.703   9.388   3.361  1.00  0.00     0.061 A 
HETATM   14  C   UNL     1       3.925  10.316   4.017  1.00  0.00     0.065 A 
HETATM   15  C   UNL     1       2.542  10.194   4.122  1.00  0.00     0.063 A 
HETATM   16  N   UNL     1       4.299  11.498   4.650  1.00  0.00    -0.306 N 
HETATM   17  N   UNL     1       2.066  11.299   4.819  1.00  0.00    -0.307 N 
HETATM   18  C   UNL     1       1.862   9.134   3.581  1.00  0.00     0.034 A 
HETATM   19  C   UNL     1       3.150  12.125   5.151  1.00  0.00     0.325 A 
HETATM   20  H   UNL     1       1.109  11.512   5.048  1.00  0.00     0.170 HD
HETATM   21  O   UNL     1       3.099  13.183   5.751  1.00  0.00    -0.247 OA
HETATM   22  C   UNL     1       2.630   8.180   2.900  1.00  0.00     0.032 A 
HETATM   23  H   UNL     1       5.230  11.873   4.732  1.00  0.00     0.170 HD
ENDBRANCH   9  12
ENDBRANCH   7   8
ENDBRANCH   3   7
BRANCH   1  24
HETATM   24  C   UNL     1       3.036   2.934  -0.657  1.00  0.00     0.070 A 
HETATM   25  C   UNL     1       2.199   2.528   0.399  1.00  0.00     0.095 A 
HETATM   26  C   UNL     1       0.927   2.034   0.099  1.00  0.00     0.040 A 
HETATM   27  C   UNL     1       0.482   1.981  -1.227  1.00  0.00     0.019 A 
HETATM   28  C   UNL     1       1.310   2.395  -2.280  1.00  0.00     0.050 A 
HETATM   29  C   UNL     1       2.607   2.838  -1.986  1.00  0.00     0.048 A 
BRANCH  25  30
HETATM   30  O   UNL     1       2.733   2.588   1.660  1.00  0.00    -0.349 OA
BRANCH  30  31
HETATM   31  C   UNL     1       1.848   2.385   2.759  1.00  0.00     0.171 C 
HETATM   32  C   UNL     1       2.602   2.726   4.032  1.00  0.00     0.034 C 
ENDBRANCH  30  31
ENDBRANCH  25  30
BRANCH  28  33
HETATM   33  C   UNL     1       0.791   2.390  -3.697  1.00  0.00     0.417 C 
HETATM   34  F   UNL     1       1.698   2.840  -4.609  1.00  0.00    -0.166 F 
HETATM   35  F   UNL     1       0.427   1.147  -4.115  1.00  0.00    -0.166 F 
HETATM   36  F   UNL     1      -0.311   3.175  -3.848  1.00  0.00    -0.166 F 
ENDBRANCH  28  33
ENDBRANCH   1  24
TORSDOF 7
