REMARK  4 active torsions:
REMARK  status: ('A' for Active; 'I' for Inactive)
REMARK    1  A    between atoms: C_2  and  C_3 
REMARK    2  A    between atoms: N_16  and  C_17 
REMARK    3  A    between atoms: C_17  and  C_18 
REMARK       I    between atoms: C_18  and  N_19 
REMARK    4  A    between atoms: N_19  and  C_20 
ROOT
HETATM    1  C   UNL     1       0.398   0.523   0.652  1.00  0.00     0.054 C 
HETATM    2  C   UNL     1       1.860   0.259   0.291  1.00  0.00     0.140 C 
HETATM    3  N   UNL     1       2.703   1.217   0.977  1.00  0.00    -0.321 N 
HETATM    4  C   UNL     1       3.699   0.611   1.703  1.00  0.00     0.326 C 
HETATM    5  O   UNL     1       4.630   1.215   2.205  1.00  0.00    -0.247 OA
HETATM    6  N   UNL     1       3.469  -0.728   1.725  1.00  0.00    -0.259 N 
HETATM    7  C   UNL     1       2.370  -1.036   0.974  1.00  0.00     0.261 C 
HETATM    8  O   UNL     1       1.897  -2.158   0.838  1.00  0.00    -0.270 OA
HETATM    9  H   UNL     1       2.752   2.204   0.762  1.00  0.00     0.165 HD
ENDROOT
BRANCH   6  10
HETATM   10  C   UNL     1       4.363  -1.685   2.338  1.00  0.00     0.240 C 
BRANCH  10  11
HETATM   11  C   UNL     1       4.190  -1.758   3.852  1.00  0.00     0.240 C 
HETATM   12  N   UNL     1       2.901  -2.025   4.269  1.00  0.00    -0.324 N 
HETATM   13  H   UNL     1       2.220  -2.348   3.581  1.00  0.00     0.169 HD
HETATM   14  O   UNL     1       5.176  -1.710   4.587  1.00  0.00    -0.271 OA
BRANCH  12  15
HETATM   15  C   UNL     1       2.456  -2.162   5.611  1.00  0.00     0.064 A 
HETATM   16  C   UNL     1       1.209  -2.778   5.803  1.00  0.00     0.093 A 
HETATM   17  C   UNL     1       0.745  -2.955   7.127  1.00  0.00    -0.005 A 
HETATM   18  N   UNL     1       0.491  -3.205   4.737  1.00  0.00    -0.258 NA
HETATM   19  C   UNL     1      -0.483  -3.600   7.322  1.00  0.00     0.015 A 
HETATM   20  C   UNL     1       1.505  -2.501   8.216  1.00  0.00     0.014 A 
HETATM   21  C   UNL     1      -1.210  -4.049   6.227  1.00  0.00     0.020 A 
HETATM   22  C   UNL     1      -0.686  -3.828   4.968  1.00  0.00     0.117 A 
HETATM   23  C   UNL     1       2.727  -1.874   8.004  1.00  0.00     0.003 A 
HETATM   24  C   UNL     1       3.202  -1.705   6.705  1.00  0.00     0.032 A 
ENDBRANCH  12  15
ENDBRANCH  10  11
ENDBRANCH   6  10
BRANCH   2  25
HETATM   25  C   UNL     1       2.137   0.217  -1.216  1.00  0.00    -0.020 A 
HETATM   26  C   UNL     1       3.262   0.848  -1.788  1.00  0.00     0.022 A 
HETATM   27  C   UNL     1       3.535   0.788  -3.168  1.00  0.00    -0.025 A 
HETATM   28  C   UNL     1       2.663   0.073  -4.013  1.00  0.00    -0.026 A 
HETATM   29  C   UNL     1       4.662   1.420  -3.721  1.00  0.00     0.012 A 
HETATM   30  C   UNL     1       1.550  -0.569  -3.454  1.00  0.00     0.013 A 
HETATM   31  C   UNL     1       2.935   0.012  -5.391  1.00  0.00     0.012 A 
HETATM   32  C   UNL     1       1.297  -0.505  -2.079  1.00  0.00     0.011 A 
HETATM   33  C   UNL     1       4.057   0.647  -5.925  1.00  0.00     0.001 A 
HETATM   34  C   UNL     1       4.921   1.350  -5.091  1.00  0.00     0.001 A 
ENDBRANCH   2  25
TORSDOF 4
