REMARK  11 active torsions:
REMARK  status: ('A' for Active; 'I' for Inactive)
REMARK    1  A    between atoms: O_2  and  C_3 
REMARK    2  A    between atoms: C_5  and  C_6 
REMARK    3  A    between atoms: C_10  and  C_11 
REMARK       I    between atoms: C_11  and  N_12 
REMARK    4  A    between atoms: N_12  and  C_13 
REMARK    5  A    between atoms: C_13  and  C_14 
REMARK    6  A    between atoms: C_15  and  C_16 
REMARK    7  A    between atoms: C_16  and  O_17 
REMARK    8  A    between atoms: O_17  and  C_18 
REMARK    9  A    between atoms: C_19  and  C_20 
REMARK   10  A    between atoms: C_20  and  C_21 
REMARK   11  A    between atoms: C_29  and  O_30 
ROOT
HETATM    1  C   UNL     1       7.758  -3.611  -5.729  1.00  0.00     0.270 C 
HETATM    2  N   UNL     1       8.006  -4.911  -5.369  1.00  0.00    -0.345 N 
HETATM    3  O   UNL     1       6.769  -2.995  -5.345  1.00  0.00    -0.266 OA
HETATM    4  H   UNL     1       8.808  -5.393  -5.747  1.00  0.00     0.163 HD
ENDROOT
BRANCH   1   5
HETATM    5  C   UNL     1       8.728  -3.016  -6.609  1.00  0.00     0.120 A 
HETATM    6  N   UNL     1       8.638  -1.704  -6.985  1.00  0.00    -0.272 N 
HETATM    7  N   UNL     1       9.572  -1.314  -7.865  1.00  0.00    -0.174 NA
HETATM    8  H   UNL     1       7.934  -1.035  -6.688  1.00  0.00     0.189 HD
HETATM    9  C   UNL     1      10.332  -2.404  -8.042  1.00  0.00     0.092 A 
HETATM   10  C   UNL     1       9.844  -3.492  -7.267  1.00  0.00     0.071 A 
BRANCH   9  11
HETATM   11  C   UNL     1      11.437  -2.430  -8.994  1.00  0.00     0.030 A 
HETATM   12  C   UNL     1      11.363  -3.325 -10.075  1.00  0.00     0.053 A 
HETATM   13  C   UNL     1      12.373  -3.382 -11.037  1.00  0.00     0.069 A 
HETATM   14  C   UNL     1      13.479  -2.543 -10.913  1.00  0.00     0.039 A 
HETATM   15  C   UNL     1      13.570  -1.653  -9.836  1.00  0.00     0.040 A 
HETATM   16  C   UNL     1      12.549  -1.582  -8.881  1.00  0.00     0.081 A 
BRANCH  13  17
HETATM   17  O   UNL     1      12.164  -4.300 -12.029  1.00  0.00    -0.356 OA
HETATM   18  C   UNL     1      13.112  -4.330 -13.088  1.00  0.00     0.210 C 
ENDBRANCH  13  17
BRANCH  16  19
HETATM   19  O   UNL     1      12.648  -0.772  -7.778  1.00  0.00    -0.355 OA
HETATM   20  C   UNL     1      13.110   0.546  -8.060  1.00  0.00     0.210 C 
ENDBRANCH  16  19
ENDBRANCH   9  11
ENDBRANCH   1   5
BRANCH   2  21
HETATM   21  C   UNL     1       7.047  -5.679  -4.619  1.00  0.00     0.217 C 
BRANCH  21  22
HETATM   22  C   UNL     1       7.740  -6.636  -3.754  1.00  0.00    -0.085 C 
HETATM   23  C   UNL     1       8.302  -7.386  -3.002  1.00  0.00    -0.078 C 
BRANCH  23  24
HETATM   24  C   UNL     1       8.976  -8.254  -2.026  1.00  0.00     0.269 C 
BRANCH  24  25
HETATM   25  O   UNL     1      10.301  -7.786  -1.750  1.00  0.00    -0.339 OA
BRANCH  25  26
HETATM   26  C   UNL     1      10.452  -7.003  -0.634  1.00  0.00     0.076 A 
HETATM   27  C   UNL     1      11.658  -7.132   0.076  1.00  0.00    -0.021 A 
HETATM   28  C   UNL     1      11.867  -6.340   1.219  1.00  0.00     0.010 A 
HETATM   29  C   UNL     1      10.909  -5.415   1.631  1.00  0.00     0.001 A 
HETATM   30  C   UNL     1       9.731  -5.271   0.907  1.00  0.00     0.003 A 
HETATM   31  C   UNL     1       9.504  -6.059  -0.223  1.00  0.00     0.037 A 
BRANCH  27  32
HETATM   32  C   UNL     1      12.719  -8.134  -0.324  1.00  0.00     0.067 C 
BRANCH  32  33
HETATM   33  C   UNL     1      12.561  -9.446   0.395  1.00  0.00    -0.032 C 
HETATM   34  C   UNL     1      13.466  -9.964   1.236  1.00  0.00     0.007 C 
ENDBRANCH  32  33
ENDBRANCH  27  32
ENDBRANCH  25  26
ENDBRANCH  24  25
ENDBRANCH  23  24
ENDBRANCH  21  22
ENDBRANCH   2  21
TORSDOF 11
