REMARK  6 active torsions:
REMARK  status: ('A' for Active; 'I' for Inactive)
REMARK    1  A    between atoms: C_2  and  N_3 
REMARK    2  A    between atoms: C_2  and  C_24 
REMARK       I    between atoms: N_3  and  C_4 
REMARK    3  A    between atoms: C_4  and  C_5 
REMARK    4  A    between atoms: C_5  and  N_6 
REMARK    5  A    between atoms: C_10  and  N_11 
REMARK       I    between atoms: N_11  and  C_12 
REMARK       I    between atoms: C_12  and  N_13 
REMARK    6  A    between atoms: N_13  and  C_14 
ROOT
HETATM    1  N   UNL     1       0.900  -1.440   1.215  1.00  0.00    -0.063 N 
HETATM    2  H   UNL     1       0.055  -1.743   1.722  1.00  0.00     0.280 HD
HETATM    3  C   UNL     1       2.005  -1.354   2.241  1.00  0.00     0.237 C 
HETATM    4  C   UNL     1       1.882  -0.112   3.100  1.00  0.00     0.053 C 
HETATM    5  C   UNL     1       1.765   1.177   2.295  1.00  0.00     0.089 C 
HETATM    6  C   UNL     1       0.625   1.080   1.285  1.00  0.00     0.053 C 
HETATM    7  C   UNL     1       0.596  -0.183   0.442  1.00  0.00     0.237 C 
ENDROOT
BRANCH   1   8
HETATM    8  C   UNL     1       1.199  -2.575   0.215  1.00  0.00     0.337 C 
BRANCH   8   9
HETATM    9  C   UNL     1       1.342  -3.933   0.901  1.00  0.00     0.244 C 
HETATM   10  N   UNL     1       2.381  -4.704   0.451  1.00  0.00    -0.351 N 
HETATM   11  H   UNL     1       2.913  -4.440  -0.372  1.00  0.00     0.163 HD
HETATM   12  O   UNL     1       0.600  -4.239   1.832  1.00  0.00    -0.272 OA
BRANCH  10  13
HETATM   13  C   UNL     1       2.681  -6.020   0.998  1.00  0.00     0.120 C 
HETATM   14  C   UNL     1       1.781  -7.095   0.395  1.00  0.00     0.038 C 
BRANCH  13  15
HETATM   15  C   UNL     1       4.144  -6.304   0.761  1.00  0.00     0.005 A 
HETATM   16  S   UNL     1       4.846  -6.167  -0.804  1.00  0.00    -0.104 SA
HETATM   17  C   UNL     1       6.389  -6.621  -0.230  1.00  0.00     0.050 A 
HETATM   18  C   UNL     1       6.382  -6.875   1.122  1.00  0.00     0.008 A 
HETATM   19  C   UNL     1       5.089  -6.693   1.694  1.00  0.00     0.017 A 
ENDBRANCH  13  15
ENDBRANCH  10  13
ENDBRANCH   8   9
ENDBRANCH   1   8
BRANCH   5  20
HETATM   20  N   UNL     1       3.050   1.657   1.784  1.00  0.00    -0.338 N 
HETATM   21  C   UNL     1       3.824   1.070   0.812  1.00  0.00     0.321 C 
HETATM   22  N   UNL     1       5.099   1.577   0.797  1.00  0.00    -0.309 N 
HETATM   23  O   UNL     1       3.411   0.143   0.127  1.00  0.00    -0.247 OA
HETATM   24  H   UNL     1       5.374   2.123   1.601  1.00  0.00     0.170 HD
HETATM   25  H   UNL     1       3.338   2.585   2.072  1.00  0.00     0.164 HD
BRANCH  22  26
HETATM   26  C   UNL     1       6.153   1.142  -0.037  1.00  0.00     0.036 A 
HETATM   27  C   UNL     1       5.955   0.430  -1.223  1.00  0.00     0.029 A 
HETATM   28  C   UNL     1       7.045   0.001  -1.985  1.00  0.00     0.002 A 
HETATM   29  C   UNL     1       8.343   0.283  -1.567  1.00  0.00     0.000 A 
HETATM   30  C   UNL     1       8.551   1.008  -0.397  1.00  0.00     0.002 A 
HETATM   31  C   UNL     1       7.461   1.446   0.359  1.00  0.00     0.029 A 
ENDBRANCH  22  26
ENDBRANCH   5  20
TORSDOF 6
