REMARK  5 active torsions:
REMARK  status: ('A' for Active; 'I' for Inactive)
REMARK    1  A    between atoms: C_6  and  N_7 
REMARK       I    between atoms: N_7  and  C_8 
REMARK    2  A    between atoms: C_8  and  C_9 
REMARK    3  A    between atoms: C_9  and  C_10 
REMARK    4  A    between atoms: C_13  and  O_14 
REMARK    5  A    between atoms: C_19  and  C_20 
ROOT
HETATM    1  C   UNL     1       0.993  -0.407   2.137  1.00  0.00     0.073 C 
HETATM    2  C   UNL     1       2.277  -0.560   1.408  1.00  0.00     0.065 A 
HETATM    3  N   UNL     1       2.414  -0.039   0.182  1.00  0.00    -0.177 NA
HETATM    4  N   UNL     1       3.678  -0.345  -0.159  1.00  0.00    -0.262 N 
HETATM    5  H   UNL     1       4.041  -0.054  -1.064  1.00  0.00     0.191 HD
HETATM    6  C   UNL     1       4.355  -1.056   0.798  1.00  0.00     0.137 A 
HETATM    7  C   UNL     1       3.466  -1.212   1.844  1.00  0.00     0.046 A 
ENDROOT
BRANCH   6   8
HETATM    8  N   UNL     1       5.661  -1.492   0.653  1.00  0.00    -0.311 N 
HETATM    9  C   UNL     1       6.416  -1.199  -0.476  1.00  0.00     0.227 C 
HETATM   10  O   UNL     1       5.993  -0.546  -1.429  1.00  0.00    -0.273 OA
HETATM   11  H   UNL     1       6.060  -2.035   1.410  1.00  0.00     0.170 HD
BRANCH   9  12
HETATM   12  C   UNL     1       7.846  -1.711  -0.362  1.00  0.00     0.141 C 
BRANCH  12  13
HETATM   13  C   UNL     1       8.556  -1.938  -1.675  1.00  0.00    -0.049 A 
HETATM   14  C   UNL     1       8.921  -0.857  -2.486  1.00  0.00     0.010 A 
HETATM   15  C   UNL     1       9.616  -1.070  -3.679  1.00  0.00     0.037 A 
HETATM   16  C   UNL     1       9.970  -2.360  -4.078  1.00  0.00     0.068 A 
HETATM   17  C   UNL     1       9.596  -3.443  -3.283  1.00  0.00     0.037 A 
HETATM   18  C   UNL     1       8.893  -3.233  -2.090  1.00  0.00     0.010 A 
BRANCH  16  19
HETATM   19  O   UNL     1      10.665  -2.427  -5.253  1.00  0.00    -0.356 OA
HETATM   20  C   UNL     1      11.215  -3.692  -5.599  1.00  0.00     0.210 C 
ENDBRANCH  16  19
ENDBRANCH  12  13
ENDBRANCH   9  12
ENDBRANCH   6   8
BRANCH   7  21
HETATM   21  C   UNL     1       3.753  -1.907   3.083  1.00  0.00    -0.020 A 
HETATM   22  C   UNL     1       4.808  -1.489   3.905  1.00  0.00     0.014 A 
HETATM   23  C   UNL     1       5.081  -2.162   5.099  1.00  0.00     0.020 A 
HETATM   24  C   UNL     1       4.293  -3.248   5.475  1.00  0.00     0.011 A 
HETATM   25 BR   UNL     1       4.659  -4.157   7.091  1.00  0.00    -0.051 Br
HETATM   26  C   UNL     1       3.235  -3.667   4.671  1.00  0.00     0.020 A 
HETATM   27  C   UNL     1       2.965  -2.996   3.475  1.00  0.00     0.014 A 
ENDBRANCH   7  21
TORSDOF 5
