REMARK  10 active torsions:
REMARK  status: ('A' for Active; 'I' for Inactive)
REMARK    1  A    between atoms: C_4  and  C_5 
REMARK    2  A    between atoms: C_5  and  N_6 
REMARK    3  A    between atoms: C_7  and  S_8 
REMARK    4  A    between atoms: S_8  and  C_9 
REMARK    5  A    between atoms: C_9  and  C_10 
REMARK       I    between atoms: C_10  and  N_11 
REMARK    6  A    between atoms: N_11  and  C_12 
REMARK    7  A    between atoms: C_12  and  C_13 
REMARK       I    between atoms: C_13  and  N_14 
REMARK    8  A    between atoms: N_14  and  C_15 
REMARK    9  A    between atoms: C_26  and  C_27 
REMARK   10  A    between atoms: C_27  and  N_28 
ROOT
HETATM    1  N   UNL     1       3.803  -1.552  -0.161  1.00  0.00    -0.306 N 
HETATM    2  C   UNL     1       5.109  -1.968  -0.189  1.00  0.00     0.192 A 
HETATM    3  N   UNL     1       5.218  -3.023  -0.961  1.00  0.00    -0.123 NA
HETATM    4  N   UNL     1       3.986  -3.282  -1.496  1.00  0.00    -0.132 NA
HETATM    5  C   UNL     1       3.145  -2.361  -1.069  1.00  0.00     0.157 A 
ENDROOT
BRANCH   2   6
HETATM    6  S   UNL     1       6.398  -1.153   0.616  1.00  0.00    -0.081 SA
BRANCH   6   7
HETATM    7  C   UNL     1       7.835  -2.129   0.092  1.00  0.00     0.185 C 
BRANCH   7   8
HETATM    8  C   UNL     1       7.978  -3.394   0.921  1.00  0.00     0.227 C 
HETATM    9  N   UNL     1       8.577  -4.447   0.263  1.00  0.00    -0.352 N 
HETATM   10  H   UNL     1       8.673  -4.428  -0.744  1.00  0.00     0.162 HD
HETATM   11  O   UNL     1       7.626  -3.495   2.095  1.00  0.00    -0.273 OA
BRANCH   9  12
HETATM   12  C   UNL     1       8.941  -5.678   0.952  1.00  0.00     0.225 C 
BRANCH  12  13
HETATM   13  C   UNL     1       7.760  -6.639   1.140  1.00  0.00     0.239 C 
HETATM   14  N   UNL     1       6.779  -6.121   1.967  1.00  0.00    -0.326 N 
HETATM   15  H   UNL     1       6.927  -5.155   2.269  1.00  0.00     0.169 HD
HETATM   16  O   UNL     1       7.759  -7.746   0.610  1.00  0.00    -0.271 OA
BRANCH  14  17
HETATM   17  C   UNL     1       5.599  -6.742   2.409  1.00  0.00     0.035 A 
HETATM   18  C   UNL     1       5.291  -8.085   2.175  1.00  0.00     0.032 A 
HETATM   19  C   UNL     1       4.099  -8.630   2.661  1.00  0.00     0.044 A 
HETATM   20  C   UNL     1       3.217  -7.828   3.373  1.00  0.00     0.116 A 
HETATM   21  F   UNL     1       2.069  -8.347   3.827  1.00  0.00    -0.206 F 
HETATM   22  C   UNL     1       3.507  -6.493   3.619  1.00  0.00     0.044 A 
HETATM   23  C   UNL     1       4.701  -5.951   3.141  1.00  0.00     0.032 A 
ENDBRANCH  14  17
ENDBRANCH  12  13
ENDBRANCH   9  12
ENDBRANCH   7   8
ENDBRANCH   6   7
ENDBRANCH   2   6
BRANCH   1  24
HETATM   24  C   UNL     1       3.209  -0.561   0.724  1.00  0.00     0.171 C 
BRANCH  24  25
HETATM   25  C   UNL     1       2.832   0.709   0.006  1.00  0.00    -0.040 A 
HETATM   26  C   UNL     1       1.488   1.103  -0.093  1.00  0.00     0.009 A 
HETATM   27  C   UNL     1       1.144   2.304  -0.716  1.00  0.00     0.001 A 
HETATM   28  C   UNL     1       2.138   3.132  -1.233  1.00  0.00     0.000 A 
HETATM   29  C   UNL     1       3.475   2.762  -1.128  1.00  0.00     0.001 A 
HETATM   30  C   UNL     1       3.821   1.558  -0.514  1.00  0.00     0.009 A 
ENDBRANCH  24  25
ENDBRANCH   1  24
BRANCH   5  31
HETATM   31  C   UNL     1       1.735  -2.191  -1.521  1.00  0.00     0.315 C 
BRANCH  31  32
HETATM   32  N   UNL     1       1.087  -3.452  -2.087  1.00  0.00    -0.064 N 
HETATM   33  H   UNL     1       1.340  -4.208  -1.435  1.00  0.00     0.280 HD
HETATM   34  C   UNL     1      -0.416  -3.315  -2.126  1.00  0.00     0.235 C 
HETATM   35  C   UNL     1      -1.055  -4.625  -2.562  1.00  0.00     0.028 C 
HETATM   36  C   UNL     1      -0.500  -5.110  -3.895  1.00  0.00     0.003 C 
HETATM   37  C   UNL     1       1.021  -5.188  -3.856  1.00  0.00     0.028 C 
HETATM   38  C   UNL     1       1.642  -3.859  -3.438  1.00  0.00     0.235 C 
ENDBRANCH  31  32
ENDBRANCH   5  31
TORSDOF 10
