REMARK  8 active torsions:
REMARK  status: ('A' for Active; 'I' for Inactive)
REMARK    1  A    between atoms: O_2  and  C_3 
REMARK    2  A    between atoms: C_4  and  N_5 
REMARK       I    between atoms: N_5  and  C_6 
REMARK       I    between atoms: C_6  and  N_7 
REMARK    3  A    between atoms: N_7  and  C_8 
REMARK    4  A    between atoms: C_11  and  C_12 
REMARK    5  A    between atoms: C_12  and  C_13 
REMARK       I    between atoms: C_13  and  N_14 
REMARK    6  A    between atoms: N_14  and  C_15 
REMARK    7  A    between atoms: C_18  and  O_19 
REMARK    8  A    between atoms: O_19  and  C_20 
ROOT
HETATM    1  C   UNL     1       1.234   4.071   4.097  1.00  0.00     0.174 A 
HETATM    2  S   UNL     1       2.348   5.364   4.080  1.00  0.00    -0.062 SA
HETATM    3  C   UNL     1       3.629   4.237   4.247  1.00  0.00     0.081 A 
HETATM    4  C   UNL     1       3.128   2.948   4.313  1.00  0.00     0.052 A 
HETATM    5  N   UNL     1       1.747   2.871   4.186  1.00  0.00    -0.228 NA
ENDROOT
BRANCH   4   6
HETATM    6  C   UNL     1       3.876   1.664   4.462  1.00  0.00     0.163 C 
BRANCH   6   7
HETATM    7  C   UNL     1       5.227   1.837   5.137  1.00  0.00     0.227 C 
HETATM    8  N   UNL     1       5.265   1.356   6.438  1.00  0.00    -0.327 N 
HETATM    9  H   UNL     1       4.413   0.947   6.802  1.00  0.00     0.169 HD
HETATM   10  O   UNL     1       6.160   2.364   4.535  1.00  0.00    -0.273 OA
BRANCH   8  11
HETATM   11  C   UNL     1       6.374   1.353   7.314  1.00  0.00     0.034 A 
HETATM   12  C   UNL     1       7.615   1.913   7.002  1.00  0.00     0.032 A 
HETATM   13  C   UNL     1       8.672   1.857   7.916  1.00  0.00     0.039 A 
HETATM   14  C   UNL     1       8.492   1.252   9.156  1.00  0.00     0.076 A 
HETATM   15  C   UNL     1       7.267   0.670   9.477  1.00  0.00     0.039 A 
HETATM   16  C   UNL     1       6.208   0.735   8.563  1.00  0.00     0.032 A 
BRANCH  14  17
HETATM   17  O   UNL     1       9.585   1.161   9.980  1.00  0.00    -0.311 OA
BRANCH  17  18
HETATM   18  C   UNL     1       9.514   1.707  11.243  1.00  0.00     0.076 A 
HETATM   19  C   UNL     1      10.445   1.211  12.160  1.00  0.00     0.037 A 
HETATM   20  C   UNL     1      10.493   1.717  13.460  1.00  0.00     0.003 A 
HETATM   21  C   UNL     1       9.612   2.726  13.845  1.00  0.00     0.000 A 
HETATM   22  C   UNL     1       8.692   3.235  12.929  1.00  0.00     0.003 A 
HETATM   23  C   UNL     1       8.648   2.734  11.625  1.00  0.00     0.037 A 
ENDBRANCH  17  18
ENDBRANCH  14  17
ENDBRANCH   8  11
ENDBRANCH   6   7
ENDBRANCH   4   6
BRANCH   1  24
HETATM   24  N   UNL     1      -0.067   4.465   3.966  1.00  0.00    -0.287 N 
HETATM   25  C   UNL     1      -1.145   3.661   3.844  1.00  0.00     0.326 C 
HETATM   26  N   UNL     1      -1.175   2.396   4.325  1.00  0.00    -0.306 N 
HETATM   27  O   UNL     1      -2.119   4.075   3.207  1.00  0.00    -0.247 OA
HETATM   28  H   UNL     1      -1.821   1.807   3.819  1.00  0.00     0.171 HD
HETATM   29  H   UNL     1      -0.212   5.422   3.688  1.00  0.00     0.172 HD
BRANCH  26  30
HETATM   30  C   UNL     1      -0.662   1.858   5.525  1.00  0.00     0.069 A 
HETATM   31  C   UNL     1      -0.322   2.604   6.667  1.00  0.00     0.095 A 
HETATM   32  C   UNL     1       0.215   1.963   7.790  1.00  0.00     0.039 A 
HETATM   33  C   UNL     1       0.354   0.575   7.811  1.00  0.00     0.003 A 
HETATM   34  C   UNL     1      -0.045  -0.177   6.710  1.00  0.00     0.002 A 
HETATM   35  C   UNL     1      -0.557   0.461   5.578  1.00  0.00     0.032 A 
BRANCH  31  36
HETATM   36  O   UNL     1      -0.521   3.961   6.689  1.00  0.00    -0.354 OA
HETATM   37  C   UNL     1      -1.401   4.366   7.736  1.00  0.00     0.210 C 
ENDBRANCH  31  36
ENDBRANCH  26  30
ENDBRANCH   1  24
TORSDOF 8
