REMARK  9 active torsions:
REMARK  status: ('A' for Active; 'I' for Inactive)
REMARK    1  A    between atoms: C_2  and  N_3 
REMARK    2  A    between atoms: C_2  and  C_23 
REMARK       I    between atoms: N_3  and  C_4 
REMARK       I    between atoms: C_4  and  N_5 
REMARK    3  A    between atoms: N_5  and  C_6 
REMARK    4  A    between atoms: C_6  and  C_7 
REMARK    5  A    between atoms: C_7  and  N_8 
REMARK    6  A    between atoms: C_7  and  C_14 
REMARK    7  A    between atoms: C_15  and  O_16 
REMARK    8  A    between atoms: C_23  and  C_24 
REMARK    9  A    between atoms: C_27  and  O_28 
ROOT
HETATM    1  N   UNL     1      -0.129  -4.710  -0.787  1.00  0.00    -0.339 N 
HETATM    2  C   UNL     1      -0.262  -3.592  -0.017  1.00  0.00     0.316 C 
HETATM    3  N   UNL     1      -0.746  -3.883   1.239  1.00  0.00    -0.341 N 
HETATM    4  O   UNL     1       0.070  -2.462  -0.339  1.00  0.00    -0.248 OA
HETATM    5  H   UNL     1      -0.649  -5.525  -0.495  1.00  0.00     0.164 HD
HETATM    6  H   UNL     1      -1.394  -4.662   1.239  1.00  0.00     0.164 HD
ENDROOT
BRANCH   3   7
HETATM    7  C   UNL     1      -1.101  -2.771   2.129  1.00  0.00     0.162 C 
BRANCH   7   8
HETATM    8  C   UNL     1       0.133  -1.946   2.629  1.00  0.00     0.241 C 
BRANCH   8   9
HETATM    9  N   UNL     1       1.235  -2.944   3.031  1.00  0.00    -0.061 N 
HETATM   10  H   UNL     1       1.224  -3.599   2.234  1.00  0.00     0.280 HD
HETATM   11  C   UNL     1       1.057  -3.732   4.287  1.00  0.00     0.236 C 
HETATM   12  C   UNL     1       1.858  -2.992   5.340  1.00  0.00     0.029 C 
HETATM   13  C   UNL     1       2.870  -2.138   4.589  1.00  0.00     0.029 C 
HETATM   14  C   UNL     1       2.619  -2.368   3.110  1.00  0.00     0.236 C 
ENDBRANCH   8   9
BRANCH   8  15
HETATM   15  C   UNL     1      -0.208  -0.872   3.650  1.00  0.00     0.007 A 
HETATM   16  C   UNL     1       0.359   0.418   3.538  1.00  0.00     0.076 A 
HETATM   17  C   UNL     1       0.052   1.410   4.475  1.00  0.00     0.037 A 
HETATM   18  C   UNL     1      -0.838   1.146   5.515  1.00  0.00     0.003 A 
HETATM   19  C   UNL     1      -1.419  -0.111   5.629  1.00  0.00     0.001 A 
HETATM   20  C   UNL     1      -1.107  -1.112   4.707  1.00  0.00     0.012 A 
BRANCH  16  21
HETATM   21  O   UNL     1       1.238   0.610   2.504  1.00  0.00    -0.355 OA
HETATM   22  C   UNL     1       1.404   1.953   2.050  1.00  0.00     0.210 C 
ENDBRANCH  16  21
ENDBRANCH   8  15
ENDBRANCH   7   8
ENDBRANCH   3   7
BRANCH   1  23
HETATM   23  C   UNL     1       0.114  -4.657  -2.235  1.00  0.00     0.086 C 
HETATM   24  C   UNL     1       1.411  -3.936  -2.601  1.00  0.00     0.032 C 
BRANCH  23  25
HETATM   25  C   UNL     1      -1.090  -4.068  -3.004  1.00  0.00     0.063 C 
BRANCH  25  26
HETATM   26  C   UNL     1      -2.374  -4.822  -2.726  1.00  0.00    -0.056 A 
HETATM   27  C   UNL     1      -3.385  -4.244  -1.943  1.00  0.00     0.010 A 
HETATM   28  C   UNL     1      -4.551  -4.956  -1.651  1.00  0.00     0.037 A 
HETATM   29  C   UNL     1      -4.704  -6.248  -2.141  1.00  0.00     0.065 A 
HETATM   30  C   UNL     1      -3.716  -6.835  -2.922  1.00  0.00     0.037 A 
HETATM   31  C   UNL     1      -2.555  -6.122  -3.220  1.00  0.00     0.010 A 
BRANCH  29  32
HETATM   32  O   UNL     1      -5.820  -6.983  -1.875  1.00  0.00    -0.361 OA
HETATM   33  H   UNL     1      -6.491  -6.407  -1.474  1.00  0.00     0.217 HD
ENDBRANCH  29  32
ENDBRANCH  25  26
ENDBRANCH  23  25
ENDBRANCH   1  23
TORSDOF 9
