REMARK  5 active torsions:
REMARK  status: ('A' for Active; 'I' for Inactive)
REMARK    1  A    between atoms: C_2  and  O_3 
REMARK    2  A    between atoms: O_3  and  C_4 
REMARK    3  A    between atoms: C_6  and  C_7 
REMARK    4  A    between atoms: C_11  and  N_12 
REMARK       I    between atoms: N_12  and  C_13 
REMARK       I    between atoms: C_13  and  N_14 
REMARK    5  A    between atoms: N_14  and  C_15 
ROOT
HETATM    1  N   UNL     1       8.396  -2.027   0.416  1.00  0.00    -0.308 N 
HETATM    2  C   UNL     1       8.941  -3.145   1.007  1.00  0.00     0.325 C 
HETATM    3  N   UNL     1       8.080  -3.959   1.690  1.00  0.00    -0.305 N 
HETATM    4  O   UNL     1      10.160  -3.276   0.944  1.00  0.00    -0.247 OA
HETATM    5  H   UNL     1       9.124  -1.341   0.232  1.00  0.00     0.170 HD
HETATM    6  H   UNL     1       7.096  -3.782   1.599  1.00  0.00     0.171 HD
ENDROOT
BRANCH   1   7
HETATM    7  C   UNL     1       7.053  -1.638   0.254  1.00  0.00     0.051 C 
HETATM    8  C   UNL     1       6.687  -0.289   0.411  1.00  0.00     0.077 C 
HETATM    9  C   UNL     1       5.321   0.056   0.377  1.00  0.00     0.055 C 
HETATM   10  C   UNL     1       4.349  -0.915   0.148  1.00  0.00     0.069 C 
HETATM   11  C   UNL     1       4.727  -2.217  -0.150  1.00  0.00     0.039 C 
HETATM   12  C   UNL     1       6.073  -2.577  -0.099  1.00  0.00     0.033 C 
BRANCH   8  13
HETATM   13  C   UNL     1       7.694   0.786   0.727  1.00  0.00     0.419 C 
HETATM   14  F   UNL     1       7.292   2.030   0.344  1.00  0.00    -0.166 F 
HETATM   15  F   UNL     1       7.954   0.874   2.060  1.00  0.00    -0.166 F 
HETATM   16  F   UNL     1       8.900   0.586   0.123  1.00  0.00    -0.166 F 
ENDBRANCH   8  13
BRANCH  10  17
HETATM   17  O   UNL     1       3.008  -0.657   0.163  1.00  0.00    -0.351 OA
BRANCH  17  18
HETATM   18  C   UNL     1       2.587   0.091   1.310  1.00  0.00     0.171 C 
HETATM   19  C   UNL     1       1.203  -0.393   1.704  1.00  0.00     0.034 C 
ENDBRANCH  17  18
ENDBRANCH  10  17
ENDBRANCH   1   7
BRANCH   3  20
HETATM   20  C   UNL     1       8.398  -5.022   2.516  1.00  0.00     0.086 A 
HETATM   21  C   UNL     1       9.605  -5.469   3.128  1.00  0.00     0.079 A 
HETATM   22  C   UNL     1      10.966  -4.879   3.114  1.00  0.00     0.075 C 
HETATM   23  N   UNL     1       9.397  -6.568   3.871  1.00  0.00    -0.177 NA
HETATM   24  N   UNL     1       8.090  -6.811   3.744  1.00  0.00    -0.280 N 
HETATM   25  H   UNL     1       7.708  -7.615   4.231  1.00  0.00     0.189 HD
HETATM   26  C   UNL     1       7.433  -5.906   2.961  1.00  0.00     0.052 A 
HETATM   27  C   UNL     1       5.977  -6.014   2.701  1.00  0.00     0.072 C 
ENDBRANCH   3  20
TORSDOF 5
