REMARK  4 active torsions:
REMARK  status: ('A' for Active; 'I' for Inactive)
REMARK    1  A    between atoms: C_7  and  C_8 
REMARK    2  A    between atoms: C_8  and  N_9 
REMARK    3  A    between atoms: N_15  and  C_17 
REMARK    4  A    between atoms: C_21  and  C_22 
ROOT
HETATM    1  N   UNL     1       4.066  -3.104  -0.164  1.00  0.00    -0.067 N 
HETATM    2  H   UNL     1       4.784  -2.422   0.124  1.00  0.00     0.280 HD
HETATM    3  C   UNL     1       4.221  -4.271   0.767  1.00  0.00     0.236 C 
HETATM    4  C   UNL     1       3.339  -5.438   0.328  1.00  0.00     0.039 C 
HETATM    5  C   UNL     1       3.548  -5.894  -1.143  1.00  0.00    -0.013 C 
HETATM    6  C   UNL     1       4.894  -6.637  -1.342  1.00  0.00     0.245 C 
HETATM    7  N   UNL     1       4.879  -7.991  -0.675  1.00  0.00    -0.065 N 
HETATM    8  H   UNL     1       4.692  -7.885   0.331  1.00  0.00     0.280 HD
HETATM    9  C   UNL     1       3.783  -8.898  -1.230  1.00  0.00     0.244 C 
HETATM   10  C   UNL     1       2.399  -8.266  -0.995  1.00  0.00     0.045 C 
HETATM   11  C   UNL     1       2.399  -6.841  -1.610  1.00  0.00     0.022 C 
HETATM   12  C   UNL     1       3.495  -4.625  -2.051  1.00  0.00     0.039 C 
HETATM   13  C   UNL     1       4.363  -3.455  -1.590  1.00  0.00     0.236 C 
ENDROOT
BRANCH   7  14
HETATM   14  C   UNL     1       6.216  -8.667  -0.789  1.00  0.00     0.188 A 
HETATM   15  C   UNL     1       7.279  -8.231   0.181  1.00  0.00     0.035 A 
HETATM   16  C   UNL     1       6.621  -9.572   0.339  1.00  0.00     0.035 A 
ENDBRANCH   7  14
BRANCH  10  17
HETATM   17  C   UNL     1       1.854  -8.312   0.430  1.00  0.00    -0.052 A 
HETATM   18  C   UNL     1       2.502  -8.962   1.494  1.00  0.00     0.007 A 
HETATM   19  C   UNL     1       1.954  -8.961   2.782  1.00  0.00     0.001 A 
HETATM   20  C   UNL     1       0.737  -8.337   3.028  1.00  0.00     0.000 A 
HETATM   21  C   UNL     1       0.051  -7.733   1.982  1.00  0.00     0.001 A 
HETATM   22  C   UNL     1       0.597  -7.733   0.697  1.00  0.00     0.007 A 
ENDBRANCH  10  17
BRANCH   1  23
HETATM   23  C   UNL     1       2.778  -2.300   0.020  1.00  0.00     0.277 C 
BRANCH  23  24
HETATM   24  C   UNL     1       2.649  -1.765   1.397  1.00  0.00     0.011 A 
HETATM   25  C   UNL     1       1.647  -2.078   2.359  1.00  0.00     0.060 A 
HETATM   26  C   UNL     1       0.458  -2.958   2.221  1.00  0.00     0.073 C 
HETATM   27  N   UNL     1       1.898  -1.492   3.530  1.00  0.00    -0.178 NA
HETATM   28  N   UNL     1       2.969  -0.719   3.308  1.00  0.00    -0.284 N 
HETATM   29  C   UNL     1       3.491   0.113   4.368  1.00  0.00     0.179 C 
HETATM   30  C   UNL     1       3.479  -0.869   2.048  1.00  0.00     0.122 A 
ENDBRANCH  23  24
ENDBRANCH   1  23
TORSDOF 4
