REMARK  5 active torsions:
REMARK  status: ('A' for Active; 'I' for Inactive)
REMARK    1  A    between atoms: C_4  and  O_5 
REMARK    2  A    between atoms: O_5  and  C_6 
REMARK    3  A    between atoms: C_6  and  C_7 
REMARK       I    between atoms: C_7  and  N_8 
REMARK    4  A    between atoms: N_8  and  N_9 
REMARK    5  A    between atoms: C_10  and  C_11 
ROOT
HETATM    1  C   UNL     1       5.354   4.961  -0.058  1.00  0.00     0.261 C 
HETATM    2  N   UNL     1       6.346   4.677  -0.988  1.00  0.00    -0.246 N 
HETATM    3  O   UNL     1       5.262   5.978   0.627  1.00  0.00    -0.269 OA
HETATM    4  H   UNL     1       6.197   3.861  -1.581  1.00  0.00     0.192 HD
ENDROOT
BRANCH   2   5
HETATM    5  N   UNL     1       7.378   5.484  -1.400  1.00  0.00    -0.184 NA
HETATM    6  C   UNL     1       7.682   6.543  -0.721  1.00  0.00     0.152 C 
BRANCH   6   7
HETATM    7  C   UNL     1       8.750   7.408  -1.186  1.00  0.00     0.011 A 
HETATM    8  C   UNL     1       9.077   8.708  -0.680  1.00  0.00     0.004 A 
HETATM    9  C   UNL     1      10.164   9.183  -1.415  1.00  0.00     0.043 A 
HETATM   10  C   UNL     1       8.538   9.534   0.330  1.00  0.00     0.014 A 
HETATM   11  C   UNL     1      10.741  10.439  -1.189  1.00  0.00     0.030 A 
HETATM   12  N   UNL     1      10.490   8.208  -2.329  1.00  0.00    -0.364 N 
HETATM   13  C   UNL     1      10.185  11.237  -0.184  1.00  0.00     0.002 A 
HETATM   14  C   UNL     1       9.100  10.794   0.566  1.00  0.00     0.001 A 
HETATM   15  H   UNL     1      11.244   8.280  -2.999  1.00  0.00     0.165 HD
HETATM   16  C   UNL     1       9.642   7.141  -2.207  1.00  0.00     0.102 A 
ENDBRANCH   6   7
ENDBRANCH   2   5
BRANCH   1  17
HETATM   17  C   UNL     1       4.370   3.809   0.125  1.00  0.00     0.280 C 
BRANCH  17  18
HETATM   18  O   UNL     1       4.150   3.121  -1.104  1.00  0.00    -0.342 OA
BRANCH  18  19
HETATM   19  C   UNL     1       3.005   2.363  -1.130  1.00  0.00     0.075 A 
HETATM   20  C   UNL     1       2.529   1.657  -0.017  1.00  0.00     0.044 A 
HETATM   21  C   UNL     1       1.352   0.901  -0.100  1.00  0.00    -0.059 A 
HETATM   22  C   UNL     1       0.817   0.181   1.102  1.00  0.00     0.048 C 
HETATM   23  C   UNL     1       0.653   0.862  -1.309  1.00  0.00     0.007 A 
HETATM   24  C   UNL     1       1.138   1.543  -2.428  1.00  0.00     0.010 A 
HETATM   25  C   UNL     1       2.324   2.287  -2.354  1.00  0.00    -0.029 A 
HETATM   26  C   UNL     1       2.816   3.030  -3.563  1.00  0.00     0.051 C 
ENDBRANCH  18  19
ENDBRANCH  17  18
ENDBRANCH   1  17
TORSDOF 5
