REMARK  7 active torsions:
REMARK  status: ('A' for Active; 'I' for Inactive)
REMARK    1  A    between atoms: C_2  and  C_3 
REMARK    2  A    between atoms: C_3  and  O_4 
REMARK    3  A    between atoms: O_4  and  C_5 
REMARK    4  A    between atoms: C_8  and  C_9 
REMARK    5  A    between atoms: C_9  and  C_10 
REMARK       I    between atoms: C_10  and  N_11 
REMARK    6  A    between atoms: N_11  and  C_12 
REMARK    7  A    between atoms: C_19  and  C_20 
REMARK       I    between atoms: C_20  and  N_21 
ROOT
HETATM    1  C   UNL     1       3.276  -7.653   3.520  1.00  0.00     0.226 C 
HETATM    2  N   UNL     1       2.229  -7.386   2.657  1.00  0.00    -0.327 N 
HETATM    3  O   UNL     1       3.617  -8.769   3.907  1.00  0.00    -0.273 OA
HETATM    4  H   UNL     1       2.062  -6.413   2.433  1.00  0.00     0.169 HD
ENDROOT
BRANCH   2   5
HETATM    5  C   UNL     1       1.390  -8.304   1.990  1.00  0.00     0.035 A 
HETATM    6  C   UNL     1       1.460  -9.694   2.151  1.00  0.00     0.046 A 
HETATM    7  C   UNL     1       0.580 -10.524   1.422  1.00  0.00     0.030 A 
HETATM    8  C   UNL     1      -0.337  -9.937   0.559  1.00  0.00     0.063 A 
HETATM    9  C   UNL     1       0.344 -11.928   1.308  1.00  0.00     0.156 A 
HETATM   10  N   UNL     1      -1.031 -10.975   0.004  1.00  0.00    -0.277 N 
HETATM   11  C   UNL     1      -0.438  -8.557   0.376  1.00  0.00     0.034 A 
HETATM   12  H   UNL     1      -1.780 -10.917  -0.677  1.00  0.00     0.189 HD
HETATM   13  N   UNL     1      -0.652 -12.190   0.430  1.00  0.00    -0.168 NA
HETATM   14  C   UNL     1       0.445  -7.756   1.110  1.00  0.00     0.032 A 
BRANCH   9  15
HETATM   15  C   UNL     1       1.039 -13.016   2.010  1.00  0.00     0.270 C 
HETATM   16  N   UNL     1       0.590 -14.267   1.684  1.00  0.00    -0.365 N 
HETATM   17  H   UNL     1      -0.161 -14.351   1.008  1.00  0.00     0.159 HD
HETATM   18  H   UNL     1       1.008 -15.075   2.115  1.00  0.00     0.159 HD
HETATM   19  O   UNL     1       1.945 -12.860   2.821  1.00  0.00    -0.266 OA
ENDBRANCH   9  15
ENDBRANCH   2   5
BRANCH   1  20
HETATM   20  C   UNL     1       4.011  -6.423   4.057  1.00  0.00     0.141 C 
BRANCH  20  21
HETATM   21  C   UNL     1       3.859  -5.153   3.251  1.00  0.00    -0.049 A 
HETATM   22  C   UNL     1       3.032  -4.116   3.704  1.00  0.00     0.010 A 
HETATM   23  C   UNL     1       2.819  -2.980   2.916  1.00  0.00     0.037 A 
HETATM   24  C   UNL     1       3.425  -2.870   1.665  1.00  0.00     0.068 A 
HETATM   25  C   UNL     1       4.273  -3.889   1.226  1.00  0.00     0.037 A 
HETATM   26  C   UNL     1       4.492  -5.023   2.009  1.00  0.00     0.010 A 
BRANCH  24  27
HETATM   27  O   UNL     1       3.273  -1.836   0.786  1.00  0.00    -0.351 OA
BRANCH  27  28
HETATM   28  C   UNL     1       2.288  -0.851   1.100  1.00  0.00     0.179 C 
BRANCH  28  29
HETATM   29  C   UNL     1       2.106   0.103  -0.092  1.00  0.00     0.002 C 
HETATM   30  C   UNL     1       1.600  -0.645  -1.327  1.00  0.00     0.011 C 
HETATM   31  C   UNL     1       3.405   0.839  -0.422  1.00  0.00     0.011 C 
ENDBRANCH  28  29
ENDBRANCH  27  28
ENDBRANCH  24  27
ENDBRANCH  20  21
ENDBRANCH   1  20
TORSDOF 7
