REMARK  7 active torsions:
REMARK  status: ('A' for Active; 'I' for Inactive)
REMARK    1  A    between atoms: C_3  and  C_4 
REMARK    2  A    between atoms: C_4  and  S_5 
REMARK    3  A    between atoms: S_5  and  C_6 
REMARK    4  A    between atoms: C_6  and  C_7 
REMARK    5  A    between atoms: C_16  and  C_17 
REMARK       I    between atoms: C_17  and  N_18 
REMARK    6  A    between atoms: N_18  and  C_19 
REMARK    7  A    between atoms: C_19  and  C_20 
ROOT
HETATM    1  C   UNL     1       3.986   6.500  -0.603  1.00  0.00     0.162 C 
HETATM    2  N   UNL     1       3.358   7.847  -0.621  1.00  0.00    -0.277 NA
HETATM    3  C   UNL     1       4.258   8.890  -0.323  1.00  0.00     0.036 A 
HETATM    4  C   UNL     1       5.402   8.685   0.462  1.00  0.00     0.057 A 
HETATM    5  N   UNL     1       5.691   7.402   0.942  1.00  0.00    -0.324 N 
HETATM    6  C   UNL     1       4.961   6.298   0.574  1.00  0.00     0.240 C 
HETATM    7  O   UNL     1       5.179   5.205   1.095  1.00  0.00    -0.271 OA
HETATM    8  C   UNL     1       3.932  10.192  -0.706  1.00  0.00     0.027 A 
HETATM    9  C   UNL     1       4.776  11.263  -0.388  1.00  0.00     0.019 A 
HETATM   10  C   UNL     1       5.940  11.048   0.363  1.00  0.00     0.034 A 
HETATM   11  C   UNL     1       6.237   9.749   0.803  1.00  0.00     0.048 A 
HETATM   12  H   UNL     1       2.569   7.889   0.025  1.00  0.00     0.128 HD
HETATM   13  H   UNL     1       6.426   7.259   1.623  1.00  0.00     0.169 HD
ENDROOT
BRANCH  10  14
HETATM   14  C   UNL     1       6.923  12.127   0.690  1.00  0.00     0.252 C 
HETATM   15  N   UNL     1       6.609  13.417   0.326  1.00  0.00    -0.353 N 
HETATM   16  H   UNL     1       5.675  13.669   0.046  1.00  0.00     0.163 HD
HETATM   17  O   UNL     1       7.975  11.839   1.251  1.00  0.00    -0.268 OA
BRANCH  15  18
HETATM   18  C   UNL     1       7.534  14.504   0.568  1.00  0.00     0.161 C 
BRANCH  18  19
HETATM   19  C   UNL     1       7.371  15.602  -0.455  1.00  0.00    -0.040 A 
HETATM   20  C   UNL     1       7.280  16.942  -0.052  1.00  0.00     0.010 A 
HETATM   21  C   UNL     1       7.166  17.962  -1.002  1.00  0.00     0.024 A 
HETATM   22  C   UNL     1       7.146  17.647  -2.359  1.00  0.00     0.034 A 
HETATM   23 CL   UNL     1       7.006  18.903  -3.526  1.00  0.00    -0.084 Cl
HETATM   24  C   UNL     1       7.247  16.323  -2.777  1.00  0.00     0.024 A 
HETATM   25  C   UNL     1       7.367  15.305  -1.828  1.00  0.00     0.010 A 
ENDBRANCH  18  19
ENDBRANCH  15  18
ENDBRANCH  10  14
BRANCH   1  26
HETATM   26  C   UNL     1       2.930   5.381  -0.596  1.00  0.00     0.103 C 
BRANCH  26  27
HETATM   27  S   UNL     1       1.601   5.530  -1.854  1.00  0.00    -0.162 SA
BRANCH  27  28
HETATM   28  C   UNL     1       2.605   5.452  -3.371  1.00  0.00     0.112 C 
BRANCH  28  29
HETATM   29  C   UNL     1       1.765   5.643  -4.614  1.00  0.00    -0.043 A 
HETATM   30  C   UNL     1       1.526   6.917  -5.174  1.00  0.00    -0.055 A 
HETATM   31  C   UNL     1       2.099   8.173  -4.573  1.00  0.00     0.049 C 
HETATM   32  C   UNL     1       0.756   7.018  -6.345  1.00  0.00     0.007 A 
HETATM   33  C   UNL     1       0.211   5.883  -6.944  1.00  0.00     0.001 A 
HETATM   34  C   UNL     1       0.426   4.630  -6.382  1.00  0.00     0.001 A 
HETATM   35  C   UNL     1       1.195   4.511  -5.225  1.00  0.00     0.008 A 
ENDBRANCH  28  29
ENDBRANCH  27  28
ENDBRANCH  26  27
ENDBRANCH   1  26
TORSDOF 7
