REMARK  7 active torsions:
REMARK  status: ('A' for Active; 'I' for Inactive)
REMARK       I    between atoms: C_2  and  N_3 
REMARK    1  A    between atoms: N_3  and  C_4 
REMARK    2  A    between atoms: N_9  and  C_10 
REMARK    3  A    between atoms: C_10  and  C_11 
REMARK    4  A    between atoms: C_11  and  C_12 
REMARK    5  A    between atoms: C_12  and  O_13 
REMARK    6  A    between atoms: O_13  and  C_14 
REMARK    7  A    between atoms: C_17  and  C_18 
REMARK       I    between atoms: N_30  and  C_31 
ROOT
HETATM    1  C   UNL     1       2.625  -2.237  -0.052  1.00  0.00     0.191 C 
HETATM    2  S   UNL     1       2.686  -3.548   1.084  1.00  0.00    -0.042 SA
HETATM    3  C   UNL     1       1.084  -4.119   0.388  1.00  0.00     0.224 A 
HETATM    4  C   UNL     1      -0.042  -3.608   1.330  1.00  0.00     0.271 A 
HETATM    5  O   UNL     1      -0.316  -2.431   1.533  1.00  0.00    -0.269 OA
HETATM    6  N   UNL     1      -0.644  -4.742   1.906  1.00  0.00    -0.314 N 
HETATM    7  C   UNL     1      -0.091  -5.919   1.358  1.00  0.00     0.047 A 
HETATM    8  C   UNL     1       0.929  -5.606   0.449  1.00  0.00     0.019 A 
HETATM    9  C   UNL     1      -0.451  -7.231   1.608  1.00  0.00     0.030 A 
HETATM   10  C   UNL     1       0.235  -8.242   0.928  1.00  0.00     0.002 A 
HETATM   11  C   UNL     1       1.257  -7.931   0.017  1.00  0.00     0.001 A 
HETATM   12  C   UNL     1       1.613  -6.604  -0.230  1.00  0.00     0.013 A 
HETATM   13  N   UNL     1       0.997  -3.440  -0.902  1.00  0.00    -0.201 N 
HETATM   14  C   UNL     1      -0.053  -3.661  -1.778  1.00  0.00     0.238 C 
HETATM   15  C   UNL     1      -0.069  -2.786  -3.007  1.00  0.00     0.119 C 
HETATM   16  O   UNL     1      -0.932  -4.500  -1.587  1.00  0.00    -0.272 OA
HETATM   17  N   UNL     1       1.794  -2.309  -1.036  1.00  0.00    -0.141 NA
ENDROOT
BRANCH   6  18
HETATM   18  C   UNL     1      -1.798  -4.757   2.797  1.00  0.00     0.134 C 
BRANCH  18  19
HETATM   19  C   UNL     1      -2.183  -3.405   3.389  1.00  0.00     0.047 C 
BRANCH  19  20
HETATM   20  C   UNL     1      -3.348  -3.494   4.367  1.00  0.00     0.177 C 
BRANCH  20  21
HETATM   21  O   UNL     1      -3.604  -2.161   4.809  1.00  0.00    -0.351 OA
BRANCH  21  22
HETATM   22  C   UNL     1      -4.722  -1.941   5.556  1.00  0.00     0.068 A 
HETATM   23  C   UNL     1      -5.539  -2.914   6.118  1.00  0.00     0.037 A 
HETATM   24  C   UNL     1      -6.661  -2.544   6.875  1.00  0.00     0.011 A 
HETATM   25  C   UNL     1      -6.991  -1.195   7.090  1.00  0.00    -0.050 A 
HETATM   26  C   UNL     1      -6.147  -0.229   6.513  1.00  0.00     0.011 A 
HETATM   27  C   UNL     1      -5.029  -0.599   5.762  1.00  0.00     0.037 A 
BRANCH  25  28
HETATM   28  C   UNL     1      -8.212  -0.754   7.915  1.00  0.00    -0.024 C 
HETATM   29  C   UNL     1      -9.033  -1.930   8.491  1.00  0.00     0.019 C 
HETATM   30  C   UNL     1      -7.747   0.107   9.109  1.00  0.00     0.019 C 
HETATM   31  C   UNL     1      -9.164   0.078   7.029  1.00  0.00     0.019 C 
ENDBRANCH  25  28
ENDBRANCH  21  22
ENDBRANCH  20  21
ENDBRANCH  19  20
ENDBRANCH  18  19
ENDBRANCH   6  18
BRANCH   1  32
HETATM   32  N   UNL     1       3.498  -1.224   0.217  1.00  0.00    -0.305 N 
HETATM   33  C   UNL     1       3.610   0.023  -0.349  1.00  0.00     0.219 C 
HETATM   34  C   UNL     1       2.557   0.472  -1.324  1.00  0.00     0.117 C 
HETATM   35  O   UNL     1       4.558   0.745  -0.038  1.00  0.00    -0.274 OA
HETATM   36  H   UNL     1       4.169  -1.396   0.952  1.00  0.00     0.171 HD
ENDBRANCH   1  32
TORSDOF 7
