REMARK  5 active torsions:
REMARK  status: ('A' for Active; 'I' for Inactive)
REMARK    1  A    between atoms: C_2  and  N_3 
REMARK       I    between atoms: N_3  and  C_4 
REMARK       I    between atoms: C_4  and  N_5 
REMARK    2  A    between atoms: N_5  and  C_6 
REMARK    3  A    between atoms: C_9  and  C_10 
REMARK    4  A    between atoms: C_10  and  C_11 
REMARK       I    between atoms: C_11  and  N_12 
REMARK    5  A    between atoms: N_12  and  C_13 
ROOT
HETATM    1  C   UNL     1      -1.826   2.774   0.542  1.00  0.00     0.174 A 
HETATM    2  S   UNL     1      -2.330   2.986  -1.073  1.00  0.00    -0.062 SA
HETATM    3  C   UNL     1      -3.684   1.976  -0.761  1.00  0.00     0.081 A 
HETATM    4  C   UNL     1      -3.672   1.561   0.560  1.00  0.00     0.052 A 
HETATM    5  N   UNL     1      -2.595   2.034   1.299  1.00  0.00    -0.228 NA
ENDROOT
BRANCH   1   6
HETATM    6  N   UNL     1      -0.678   3.433   0.874  1.00  0.00    -0.287 N 
HETATM    7  C   UNL     1      -0.007   3.167   2.028  1.00  0.00     0.326 C 
HETATM    8  N   UNL     1       1.071   3.963   2.307  1.00  0.00    -0.309 N 
HETATM    9  O   UNL     1      -0.233   2.227   2.788  1.00  0.00    -0.247 OA
HETATM   10  H   UNL     1       1.664   3.542   3.013  1.00  0.00     0.170 HD
HETATM   11  H   UNL     1      -0.204   3.934   0.141  1.00  0.00     0.172 HD
BRANCH   8  12
HETATM   12  C   UNL     1       1.407   5.266   1.901  1.00  0.00     0.036 A 
HETATM   13  C   UNL     1       0.504   6.162   1.320  1.00  0.00     0.032 A 
HETATM   14  C   UNL     1       0.913   7.457   0.986  1.00  0.00     0.044 A 
HETATM   15  C   UNL     1       2.219   7.857   1.244  1.00  0.00     0.116 A 
HETATM   16  C   UNL     1       3.122   6.989   1.841  1.00  0.00     0.044 A 
HETATM   17  F   UNL     1       2.604   9.100   0.929  1.00  0.00    -0.206 F 
HETATM   18  C   UNL     1       2.713   5.697   2.178  1.00  0.00     0.032 A 
ENDBRANCH   8  12
ENDBRANCH   1   6
BRANCH   4  19
HETATM   19  C   UNL     1      -4.700   0.728   1.252  1.00  0.00     0.163 C 
BRANCH  19  20
HETATM   20  C   UNL     1      -4.157  -0.546   1.884  1.00  0.00     0.227 C 
HETATM   21  N   UNL     1      -2.995  -0.379   2.615  1.00  0.00    -0.327 N 
HETATM   22  H   UNL     1      -2.517   0.520   2.492  1.00  0.00     0.169 HD
HETATM   23  O   UNL     1      -4.792  -1.595   1.781  1.00  0.00    -0.273 OA
BRANCH  21  24
HETATM   24  C   UNL     1      -2.349  -1.321   3.439  1.00  0.00     0.036 A 
HETATM   25  C   UNL     1      -2.891  -2.560   3.786  1.00  0.00     0.055 A 
HETATM   26  C   UNL     1      -2.195  -3.429   4.638  1.00  0.00     0.058 A 
HETATM   27 CL   UNL     1      -2.942  -4.937   5.038  1.00  0.00    -0.082 Cl
HETATM   28  C   UNL     1      -0.943  -3.063   5.144  1.00  0.00     0.055 A 
HETATM   29 CL   UNL     1      -0.029  -4.082   6.199  1.00  0.00    -0.083 Cl
HETATM   30  C   UNL     1      -0.396  -1.828   4.800  1.00  0.00     0.028 A 
HETATM   31  C   UNL     1      -1.099  -0.962   3.957  1.00  0.00     0.031 A 
ENDBRANCH  21  24
ENDBRANCH  19  20
ENDBRANCH   4  19
TORSDOF 5
