REMARK  9 active torsions:
REMARK  status: ('A' for Active; 'I' for Inactive)
REMARK    1  A    between atoms: C_5  and  C_6 
REMARK    2  A    between atoms: C_6  and  N_7 
REMARK       I    between atoms: N_7  and  C_8 
REMARK    3  A    between atoms: C_8  and  C_9 
REMARK    4  A    between atoms: C_10  and  S_11 
REMARK    5  A    between atoms: S_11  and  C_12 
REMARK    6  A    between atoms: C_12  and  C_13 
REMARK       I    between atoms: C_13  and  N_14 
REMARK    7  A    between atoms: N_14  and  C_15 
REMARK    8  A    between atoms: C_16  and  O_17 
REMARK    9  A    between atoms: C_20  and  O_21 
ROOT
HETATM    1  C   UNL     1       9.205  -0.253  -1.787  1.00  0.00     0.067 A 
HETATM    2  C   UNL     1      10.514  -0.472  -2.220  1.00  0.00     0.109 A 
HETATM    3  N   UNL     1      11.470   0.500  -2.150  1.00  0.00    -0.253 NA
HETATM    4  C   UNL     1      11.105   1.718  -1.689  1.00  0.00     0.118 A 
HETATM    5  C   UNL     1       9.829   2.026  -1.262  1.00  0.00     0.020 A 
HETATM    6  C   UNL     1       8.867   1.024  -1.308  1.00  0.00     0.021 A 
ENDROOT
BRANCH   2   7
HETATM    7  S   UNL     1      11.130  -1.994  -2.909  1.00  0.00    -0.100 SA
BRANCH   7   8
HETATM    8  C   UNL     1      12.161  -2.561  -1.529  1.00  0.00     0.184 C 
BRANCH   8   9
HETATM    9  C   UNL     1      13.632  -2.164  -1.590  1.00  0.00     0.231 C 
HETATM   10  N   UNL     1      13.901  -0.947  -2.190  1.00  0.00    -0.324 N 
HETATM   11  H   UNL     1      13.089  -0.342  -2.315  1.00  0.00     0.169 HD
HETATM   12  O   UNL     1      14.453  -2.855  -0.983  1.00  0.00    -0.272 OA
BRANCH  10  13
HETATM   13  C   UNL     1      15.169  -0.326  -2.267  1.00  0.00     0.068 A 
HETATM   14  C   UNL     1      16.386  -1.006  -2.460  1.00  0.00     0.097 A 
HETATM   15  C   UNL     1      17.593  -0.287  -2.406  1.00  0.00     0.075 A 
HETATM   16  C   UNL     1      17.591   1.094  -2.194  1.00  0.00     0.070 A 
HETATM   17  C   UNL     1      16.378   1.772  -2.102  1.00  0.00     0.039 A 
HETATM   18  C   UNL     1      15.176   1.069  -2.147  1.00  0.00     0.035 A 
BRANCH  14  19
HETATM   19  O   UNL     1      16.313  -2.326  -2.822  1.00  0.00    -0.354 OA
HETATM   20  C   UNL     1      17.506  -3.094  -2.774  1.00  0.00     0.210 C 
ENDBRANCH  14  19
BRANCH  16  21
HETATM   21  O   UNL     1      18.700   1.891  -2.104  1.00  0.00    -0.356 OA
HETATM   22  C   UNL     1      19.928   1.233  -1.817  1.00  0.00     0.210 C 
ENDBRANCH  16  21
ENDBRANCH  10  13
ENDBRANCH   8   9
ENDBRANCH   7   8
ENDBRANCH   2   7
BRANCH   1  23
HETATM   23  C   UNL     1       8.145  -1.290  -1.825  1.00  0.00     0.254 C 
HETATM   24  N   UNL     1       7.337  -1.345  -0.708  1.00  0.00    -0.353 N 
HETATM   25  H   UNL     1       7.586  -0.836   0.130  1.00  0.00     0.163 HD
HETATM   26  O   UNL     1       7.996  -2.014  -2.798  1.00  0.00    -0.268 OA
BRANCH  24  27
HETATM   27  C   UNL     1       6.270  -2.315  -0.597  1.00  0.00     0.161 C 
BRANCH  27  28
HETATM   28  C   UNL     1       5.188  -1.817   0.326  1.00  0.00    -0.041 A 
HETATM   29  C   UNL     1       4.406  -0.711  -0.037  1.00  0.00     0.009 A 
HETATM   30  C   UNL     1       3.388  -0.251   0.801  1.00  0.00     0.007 A 
HETATM   31  C   UNL     1       3.136  -0.885   2.022  1.00  0.00    -0.062 A 
HETATM   32  C   UNL     1       2.012  -0.429   2.906  1.00  0.00     0.048 C 
HETATM   33  C   UNL     1       3.912  -1.992   2.385  1.00  0.00     0.007 A 
HETATM   34  C   UNL     1       4.932  -2.451   1.548  1.00  0.00     0.009 A 
ENDBRANCH  27  28
ENDBRANCH  24  27
ENDBRANCH   1  23
TORSDOF 9
