REMARK  7 active torsions:
REMARK  status: ('A' for Active; 'I' for Inactive)
REMARK    1  A    between atoms: O_2  and  C_3 
REMARK    2  A    between atoms: C_6  and  N_7 
REMARK       I    between atoms: N_7  and  C_8 
REMARK    3  A    between atoms: C_8  and  C_9 
REMARK    4  A    between atoms: C_9  and  C_10 
REMARK    5  A    between atoms: C_10  and  N_11 
REMARK    6  A    between atoms: C_10  and  C_20 
REMARK       I    between atoms: N_11  and  C_12 
REMARK    7  A    between atoms: C_12  and  C_13 
ROOT
HETATM    1  C   UNL     1       5.539  -2.589   0.125  1.00  0.00     0.126 C 
ENDROOT
BRANCH   1   2
HETATM    2  C   UNL     1       5.088  -2.210  -1.283  1.00  0.00     0.133 C 
BRANCH   2   3
HETATM    3  C   UNL     1       4.273  -3.233  -2.058  1.00  0.00     0.224 C 
HETATM    4  N   UNL     1       4.541  -4.563  -1.814  1.00  0.00    -0.326 N 
HETATM    5  H   UNL     1       5.020  -4.812  -0.955  1.00  0.00     0.169 HD
HETATM    6  O   UNL     1       3.486  -2.827  -2.913  1.00  0.00    -0.273 OA
BRANCH   4   7
HETATM    7  C   UNL     1       4.098  -5.655  -2.597  1.00  0.00     0.052 A 
HETATM    8  C   UNL     1       3.463  -5.548  -3.833  1.00  0.00     0.149 A 
HETATM    9  N   UNL     1       3.089  -6.607  -4.599  1.00  0.00    -0.235 NA
HETATM   10  C   UNL     1       3.354  -7.833  -4.108  1.00  0.00     0.163 A 
HETATM   11  C   UNL     1       3.970  -8.050  -2.887  1.00  0.00     0.060 A 
HETATM   12  C   UNL     1       4.350  -6.944  -2.125  1.00  0.00     0.035 A 
BRANCH  10  13
HETATM   13  O   UNL     1       3.013  -8.955  -4.835  1.00  0.00    -0.339 OA
HETATM   14  C   UNL     1       2.478  -8.642  -6.118  1.00  0.00     0.211 C 
ENDBRANCH  10  13
ENDBRANCH   4   7
ENDBRANCH   2   3
ENDBRANCH   1   2
BRANCH   1  15
HETATM   15  N   UNL     1       4.413  -2.907   0.989  1.00  0.00    -0.348 N 
HETATM   16  C   UNL     1       4.461  -3.984   1.849  1.00  0.00     0.252 C 
HETATM   17  O   UNL     1       5.300  -4.874   1.780  1.00  0.00    -0.268 OA
HETATM   18  H   UNL     1       3.799  -2.143   1.243  1.00  0.00     0.163 HD
BRANCH  16  19
HETATM   19  C   UNL     1       3.432  -3.984   2.916  1.00  0.00     0.032 A 
HETATM   20  C   UNL     1       2.095  -3.686   2.624  1.00  0.00     0.017 A 
HETATM   21  C   UNL     1       1.152  -3.663   3.652  1.00  0.00     0.001 A 
HETATM   22  C   UNL     1       1.543  -3.933   4.965  1.00  0.00     0.000 A 
HETATM   23  C   UNL     1       2.874  -4.239   5.253  1.00  0.00     0.001 A 
HETATM   24  C   UNL     1       3.820  -4.273   4.227  1.00  0.00     0.017 A 
ENDBRANCH  16  19
ENDBRANCH   1  15
BRANCH   1  25
HETATM   25  C   UNL     1       6.367  -1.480   0.763  1.00  0.00    -0.035 A 
HETATM   26  C   UNL     1       7.679  -1.743   1.187  1.00  0.00     0.009 A 
HETATM   27  C   UNL     1       8.455  -0.740   1.771  1.00  0.00     0.001 A 
HETATM   28  C   UNL     1       7.927   0.537   1.947  1.00  0.00     0.000 A 
HETATM   29  C   UNL     1       6.623   0.812   1.543  1.00  0.00     0.001 A 
HETATM   30  C   UNL     1       5.847  -0.189   0.956  1.00  0.00     0.009 A 
ENDBRANCH   1  25
TORSDOF 7
