REMARK  8 active torsions:
REMARK  status: ('A' for Active; 'I' for Inactive)
REMARK    1  A    between atoms: C_2  and  O_3 
REMARK    2  A    between atoms: O_3  and  C_4 
REMARK    3  A    between atoms: C_5  and  O_6 
REMARK    4  A    between atoms: O_6  and  C_7 
REMARK    5  A    between atoms: C_7  and  C_8 
REMARK       I    between atoms: C_8  and  N_9 
REMARK    6  A    between atoms: C_13  and  C_14 
REMARK    7  A    between atoms: C_21  and  C_22 
REMARK       I    between atoms: C_22  and  N_23 
REMARK    8  A    between atoms: N_23  and  C_24 
ROOT
HETATM    1  C   UNL     1       7.563  -0.353  -1.411  1.00  0.00     0.160 C 
HETATM    2  N   UNL     1       7.388  -0.653  -2.819  1.00  0.00    -0.330 N 
HETATM    3  C   UNL     1       7.543  -1.893  -3.344  1.00  0.00     0.321 C 
HETATM    4  O   UNL     1       7.688  -2.070  -4.548  1.00  0.00    -0.247 OA
HETATM    5  N   UNL     1       7.491  -2.925  -2.458  1.00  0.00    -0.312 N 
HETATM    6  C   UNL     1       7.262  -2.799  -1.105  1.00  0.00     0.024 C 
HETATM    7  C   UNL     1       7.093  -4.098  -0.364  1.00  0.00     0.069 C 
HETATM    8  C   UNL     1       7.252  -1.561  -0.566  1.00  0.00     0.059 C 
HETATM    9  H   UNL     1       7.456   0.095  -3.495  1.00  0.00     0.165 HD
HETATM   10  H   UNL     1       7.526  -3.845  -2.883  1.00  0.00     0.170 HD
ENDROOT
BRANCH   1  11
HETATM   11  C   UNL     1       6.865   0.965  -1.116  1.00  0.00    -0.028 A 
HETATM   12  C   UNL     1       7.558   2.162  -1.374  1.00  0.00     0.012 A 
HETATM   13  C   UNL     1       6.932   3.406  -1.251  1.00  0.00     0.040 A 
HETATM   14  C   UNL     1       5.599   3.487  -0.845  1.00  0.00     0.102 A 
HETATM   15  C   UNL     1       4.910   2.305  -0.538  1.00  0.00     0.102 A 
HETATM   16  C   UNL     1       5.526   1.055  -0.711  1.00  0.00     0.049 A 
BRANCH  14  17
HETATM   17  O   UNL     1       4.889   4.658  -0.831  1.00  0.00    -0.339 OA
BRANCH  17  18
HETATM   18  C   UNL     1       5.633   5.850  -0.592  1.00  0.00     0.278 C 
BRANCH  18  19
HETATM   19  C   UNL     1       4.676   7.002  -0.303  1.00  0.00     0.239 C 
HETATM   20  N   UNL     1       3.420   6.871  -0.824  1.00  0.00    -0.368 N 
HETATM   21  H   UNL     1       3.111   5.970  -1.173  1.00  0.00     0.159 HD
HETATM   22  H   UNL     1       2.733   7.580  -0.608  1.00  0.00     0.159 HD
HETATM   23  O   UNL     1       5.006   8.015   0.306  1.00  0.00    -0.271 OA
ENDBRANCH  18  19
ENDBRANCH  17  18
ENDBRANCH  14  17
BRANCH  15  24
HETATM   24  O   UNL     1       3.593   2.269  -0.150  1.00  0.00    -0.349 OA
BRANCH  24  25
HETATM   25  C   UNL     1       3.297   2.999   1.048  1.00  0.00     0.171 C 
HETATM   26  C   UNL     1       3.746   2.252   2.291  1.00  0.00     0.034 C 
ENDBRANCH  24  25
ENDBRANCH  15  24
ENDBRANCH   1  11
BRANCH   8  27
HETATM   27  C   UNL     1       6.967  -1.411   0.890  1.00  0.00     0.256 C 
HETATM   28  N   UNL     1       7.910  -0.662   1.556  1.00  0.00    -0.323 N 
HETATM   29  H   UNL     1       8.744  -0.448   1.028  1.00  0.00     0.169 HD
HETATM   30  O   UNL     1       6.002  -1.996   1.361  1.00  0.00    -0.267 OA
BRANCH  28  31
HETATM   31  C   UNL     1       7.984  -0.288   2.923  1.00  0.00     0.041 A 
HETATM   32  C   UNL     1       6.954  -0.298   3.882  1.00  0.00    -0.035 A 
HETATM   33  C   UNL     1       5.519  -0.654   3.625  1.00  0.00     0.050 C 
HETATM   34  C   UNL     1       7.259   0.067   5.214  1.00  0.00     0.009 A 
HETATM   35  C   UNL     1       8.534   0.483   5.588  1.00  0.00     0.001 A 
HETATM   36  C   UNL     1       9.536   0.544   4.634  1.00  0.00     0.002 A 
HETATM   37  C   UNL     1       9.261   0.165   3.319  1.00  0.00     0.030 A 
ENDBRANCH  28  31
ENDBRANCH   8  27
TORSDOF 8
