REMARK  6 active torsions:
REMARK  status: ('A' for Active; 'I' for Inactive)
REMARK    1  A    between atoms: O_2  and  C_3 
REMARK    2  A    between atoms: C_6  and  C_7 
REMARK    3  A    between atoms: C_9  and  N_10 
REMARK    4  A    between atoms: N_10  and  N_11 
REMARK       I    between atoms: N_10  and  C_21 
REMARK       I    between atoms: N_11  and  C_12 
REMARK       I    between atoms: C_12  and  N_13 
REMARK    5  A    between atoms: N_13  and  C_14 
REMARK       I    between atoms: C_21  and  N_22 
REMARK    6  A    between atoms: N_22  and  C_23 
ROOT
HETATM    1  N   UNL     1       8.273  -0.929   7.214  1.00  0.00    -0.176 N 
HETATM    2  C   UNL     1       7.963  -1.818   8.281  1.00  0.00     0.348 C 
HETATM    3  N   UNL     1       8.714  -1.551   9.422  1.00  0.00    -0.307 N 
HETATM    4  O   UNL     1       7.159  -2.744   8.218  1.00  0.00    -0.245 OA
HETATM    5  H   UNL     1       9.590  -1.072   9.225  1.00  0.00     0.170 HD
ENDROOT
BRANCH   1   6
HETATM    6  C   UNL     1       7.676  -1.143   5.969  1.00  0.00     0.197 A 
HETATM    7  N   UNL     1       6.666  -1.926   5.672  1.00  0.00    -0.222 NA
HETATM    8  C   UNL     1       6.281  -1.761   4.348  1.00  0.00     0.076 A 
HETATM    9  C   UNL     1       7.104  -0.924   3.620  1.00  0.00     0.086 A 
HETATM   10  S   UNL     1       8.306  -0.248   4.638  1.00  0.00    -0.060 SA
BRANCH   8  11
HETATM   11  C   UNL     1       5.056  -2.382   3.843  1.00  0.00    -0.007 A 
HETATM   12  C   UNL     1       4.679  -2.324   2.496  1.00  0.00     0.016 A 
HETATM   13  C   UNL     1       3.451  -2.853   2.078  1.00  0.00     0.037 A 
HETATM   14  C   UNL     1       2.578  -3.446   2.991  1.00  0.00     0.068 A 
HETATM   15  C   UNL     1       2.957  -3.537   4.328  1.00  0.00     0.037 A 
HETATM   16  C   UNL     1       4.186  -3.011   4.747  1.00  0.00     0.016 A 
BRANCH  14  17
HETATM   17  O   UNL     1       1.403  -3.892   2.454  1.00  0.00    -0.356 OA
HETATM   18  C   UNL     1       0.418  -4.355   3.370  1.00  0.00     0.210 C 
ENDBRANCH  14  17
ENDBRANCH   8  11
ENDBRANCH   1   6
BRANCH   1  19
HETATM   19  N   UNL     1       8.583   0.438   7.513  1.00  0.00    -0.239 N 
HETATM   20  C   UNL     1       9.788   0.822   8.040  1.00  0.00     0.335 C 
HETATM   21  N   UNL     1       9.843   2.176   8.248  1.00  0.00    -0.337 N 
HETATM   22  O   UNL     1      10.677   0.039   8.351  1.00  0.00    -0.246 OA
HETATM   23  H   UNL     1       9.055   2.735   7.958  1.00  0.00     0.164 HD
HETATM   24  H   UNL     1       7.766   1.002   7.708  1.00  0.00     0.192 HD
BRANCH  21  25
HETATM   25  C   UNL     1      10.847   2.795   9.106  1.00  0.00     0.086 C 
HETATM   26  C   UNL     1      11.122   4.239   8.669  1.00  0.00     0.025 C 
HETATM   27  C   UNL     1       9.960   5.186   8.971  1.00  0.00     0.002 C 
HETATM   28  C   UNL     1       9.522   5.105  10.431  1.00  0.00     0.000 C 
HETATM   29  C   UNL     1       9.219   3.671  10.856  1.00  0.00     0.002 C 
HETATM   30  C   UNL     1      10.398   2.739  10.574  1.00  0.00     0.025 C 
ENDBRANCH  21  25
ENDBRANCH   1  19
BRANCH   3  31
HETATM   31  C   UNL     1       8.614  -2.131  10.698  1.00  0.00     0.036 A 
HETATM   32  C   UNL     1       7.560  -2.952  11.104  1.00  0.00     0.031 A 
HETATM   33  C   UNL     1       7.536  -3.481  12.400  1.00  0.00     0.026 A 
HETATM   34  C   UNL     1       8.560  -3.180  13.295  1.00  0.00     0.034 A 
HETATM   35 CL   UNL     1       8.525  -3.827  14.889  1.00  0.00    -0.084 Cl
HETATM   36  C   UNL     1       9.610  -2.354  12.907  1.00  0.00     0.026 A 
HETATM   37  C   UNL     1       9.636  -1.832  11.611  1.00  0.00     0.031 A 
ENDBRANCH   3  31
TORSDOF 6
