REMARK  7 active torsions:
REMARK  status: ('A' for Active; 'I' for Inactive)
REMARK    1  A    between atoms: C_2  and  C_3 
REMARK    2  A    between atoms: C_5  and  N_6 
REMARK    3  A    between atoms: C_8  and  C_9 
REMARK    4  A    between atoms: C_15  and  N_16 
REMARK       I    between atoms: N_16  and  C_17 
REMARK    5  A    between atoms: C_17  and  C_18 
REMARK    6  A    between atoms: C_18  and  O_19 
REMARK    7  A    between atoms: O_19  and  C_20 
ROOT
HETATM    1  N   UNL     1       4.146  -2.080   3.924  1.00  0.00    -0.044 N 
HETATM    2  N   UNL     1       4.571  -1.835   5.204  1.00  0.00    -0.148 NA
HETATM    3  C   UNL     1       4.366  -2.992   5.843  1.00  0.00     0.115 C 
HETATM    4  C   UNL     1       3.888  -4.005   4.983  1.00  0.00     0.087 C 
HETATM    5  C   UNL     1       3.868  -3.431   3.734  1.00  0.00     0.152 C 
ENDROOT
BRANCH   5   6
HETATM    6  N   UNL     1       3.581  -4.134   2.573  1.00  0.00    -0.309 N 
HETATM    7  C   UNL     1       4.213  -3.786   1.327  1.00  0.00     0.247 C 
HETATM    8  O   UNL     1       5.199  -3.063   1.332  1.00  0.00    -0.271 OA
HETATM    9  H   UNL     1       3.015  -4.976   2.602  1.00  0.00     0.170 HD
BRANCH   7  10
HETATM   10  C   UNL     1       3.569  -4.374   0.090  1.00  0.00     0.278 C 
BRANCH  10  11
HETATM   11  O   UNL     1       3.073  -5.680   0.375  1.00  0.00    -0.342 OA
BRANCH  11  12
HETATM   12  C   UNL     1       2.609  -6.368  -0.718  1.00  0.00     0.070 A 
HETATM   13  C   UNL     1       2.577  -7.758  -0.585  1.00  0.00     0.049 A 
HETATM   14  C   UNL     1       2.133  -8.579  -1.638  1.00  0.00    -0.023 A 
HETATM   15  C   UNL     1       1.696  -7.982  -2.841  1.00  0.00    -0.026 A 
HETATM   16  C   UNL     1       2.118  -9.979  -1.526  1.00  0.00     0.012 A 
HETATM   17  C   UNL     1       1.711  -6.586  -2.957  1.00  0.00     0.015 A 
HETATM   18  C   UNL     1       1.255  -8.796  -3.897  1.00  0.00     0.012 A 
HETATM   19  C   UNL     1       2.162  -5.783  -1.904  1.00  0.00     0.037 A 
HETATM   20  C   UNL     1       1.248 -10.185  -3.769  1.00  0.00     0.001 A 
HETATM   21  C   UNL     1       1.679 -10.776  -2.585  1.00  0.00     0.001 A 
ENDBRANCH  11  12
ENDBRANCH  10  11
ENDBRANCH   7  10
ENDBRANCH   5   6
BRANCH   1  22
HETATM   22  C   UNL     1       3.897  -0.984   3.072  1.00  0.00     0.732 A 
HETATM   23  N   UNL     1       3.277  -1.072   1.936  1.00  0.00    -0.067 NA
HETATM   24  C   UNL     1       3.096   0.114   1.247  1.00  0.00     0.062 A 
HETATM   25  C   UNL     1       3.485   1.311   1.717  1.00  0.00     0.103 A 
HETATM   26  C   UNL     1       4.155   1.383   3.024  1.00  0.00     0.261 A 
HETATM   27  N   UNL     1       4.344   0.184   3.630  1.00  0.00    -0.152 N 
HETATM   28  O   UNL     1       4.499   2.450   3.512  1.00  0.00    -0.268 OA
HETATM   29  H   UNL     1       4.781   0.170   4.547  1.00  0.00     0.187 HD
BRANCH  24  30
HETATM   30  C   UNL     1       2.413   0.020  -0.111  1.00  0.00     0.030 C 
HETATM   31  C   UNL     1       1.094  -0.753  -0.037  1.00  0.00     0.016 C 
HETATM   32  C   UNL     1       3.351  -0.594  -1.151  1.00  0.00     0.016 C 
ENDBRANCH  24  30
ENDBRANCH   1  22
BRANCH   3  33
HETATM   33  C   UNL     1       4.639  -3.165   7.299  1.00  0.00     0.105 A 
HETATM   34  O   UNL     1       4.442  -4.331   7.987  1.00  0.00    -0.320 OA
HETATM   35  C   UNL     1       4.801  -4.103   9.277  1.00  0.00     0.142 A 
HETATM   36  C   UNL     1       5.227  -2.806   9.437  1.00  0.00     0.027 A 
HETATM   37  C   UNL     1       5.123  -2.199   8.162  1.00  0.00     0.041 A 
ENDBRANCH   3  33
TORSDOF 7
