REMARK  7 active torsions:
REMARK  status: ('A' for Active; 'I' for Inactive)
REMARK    1  A    between atoms: O_2  and  C_3 
REMARK    2  A    between atoms: C_5  and  C_6 
REMARK    3  A    between atoms: C_10  and  C_11 
REMARK    4  A    between atoms: C_10  and  C_15 
REMARK    5  A    between atoms: N_19  and  C_20 
REMARK    6  A    between atoms: C_20  and  C_21 
REMARK    7  A    between atoms: C_21  and  C_22 
ROOT
HETATM    1  C   UNL     1       3.513   4.254   2.310  1.00  0.00     0.114 C 
HETATM    2  N   UNL     1       2.479   4.937   1.860  1.00  0.00    -0.327 N 
HETATM    3  C   UNL     1       2.423   6.314   1.871  1.00  0.00     0.128 A 
HETATM    4  C   UNL     1       3.432   7.001   2.426  1.00  0.00     0.100 A 
HETATM    5  C   UNL     1       4.608   6.366   3.126  1.00  0.00     0.264 C 
HETATM    6  N   UNL     1       1.332   6.961   1.314  1.00  0.00    -0.284 N 
HETATM    7  C   UNL     1       1.253   8.351   1.258  1.00  0.00     0.331 A 
HETATM    8  O   UNL     1       0.325   8.967   0.747  1.00  0.00    -0.246 OA
HETATM    9  N   UNL     1       2.296   9.027   1.811  1.00  0.00    -0.275 N 
HETATM   10  C   UNL     1       3.382   8.466   2.387  1.00  0.00     0.262 A 
HETATM   11  O   UNL     1       4.299   9.120   2.851  1.00  0.00    -0.267 OA
HETATM   12  N   UNL     1       4.542   4.863   2.855  1.00  0.00    -0.347 N 
HETATM   13  H   UNL     1       5.343   4.294   3.144  1.00  0.00     0.162 HD
HETATM   14  H   UNL     1       1.718   4.391   1.475  1.00  0.00     0.169 HD
HETATM   15  H   UNL     1       2.248  10.039   1.768  1.00  0.00     0.173 HD
ENDROOT
BRANCH   1  16
HETATM   16  C   UNL     1       3.540   2.786   2.196  1.00  0.00     0.010 A 
HETATM   17  C   UNL     1       4.001   2.006   3.270  1.00  0.00     0.052 A 
HETATM   18  C   UNL     1       4.088   0.614   3.178  1.00  0.00     0.069 A 
HETATM   19  C   UNL     1       3.678  -0.018   2.008  1.00  0.00     0.037 A 
HETATM   20  C   UNL     1       3.200   0.740   0.936  1.00  0.00     0.004 A 
HETATM   21  C   UNL     1       3.137   2.133   1.024  1.00  0.00     0.015 A 
BRANCH  18  22
HETATM   22  O   UNL     1       4.585   0.008   4.295  1.00  0.00    -0.356 OA
HETATM   23  C   UNL     1       4.856  -1.388   4.208  1.00  0.00     0.210 C 
ENDBRANCH  18  22
ENDBRANCH   1  16
BRANCH   5  24
HETATM   24  C   UNL     1       4.548   6.548   4.646  1.00  0.00     0.426 C 
HETATM   25  F   UNL     1       3.346   6.091   5.093  1.00  0.00    -0.168 F 
HETATM   26  F   UNL     1       5.490   5.787   5.251  1.00  0.00    -0.168 F 
HETATM   27  F   UNL     1       4.677   7.807   5.079  1.00  0.00    -0.168 F 
ENDBRANCH   5  24
BRANCH   5  28
HETATM   28  C   UNL     1       6.004   6.834   2.696  1.00  0.00     0.426 C 
HETATM   29  F   UNL     1       6.043   6.988   1.349  1.00  0.00    -0.168 F 
HETATM   30  F   UNL     1       6.457   7.952   3.271  1.00  0.00    -0.168 F 
HETATM   31  F   UNL     1       6.898   5.847   2.984  1.00  0.00    -0.168 F 
ENDBRANCH   5  28
BRANCH   6  32
HETATM   32  C   UNL     1       0.189   6.252   0.722  1.00  0.00     0.140 C 
BRANCH  32  33
HETATM   33  C   UNL     1       0.299   6.143  -0.806  1.00  0.00     0.059 C 
BRANCH  33  34
HETATM   34  C   UNL     1      -0.759   5.251  -1.406  1.00  0.00    -0.057 A 
HETATM   35  C   UNL     1      -2.122   5.493  -1.177  1.00  0.00     0.007 A 
HETATM   36  C   UNL     1      -3.096   4.671  -1.746  1.00  0.00     0.001 A 
HETATM   37  C   UNL     1      -2.721   3.608  -2.563  1.00  0.00     0.000 A 
HETATM   38  C   UNL     1      -1.372   3.371  -2.819  1.00  0.00     0.001 A 
HETATM   39  C   UNL     1      -0.396   4.189  -2.247  1.00  0.00     0.007 A 
ENDBRANCH  33  34
ENDBRANCH  32  33
ENDBRANCH   6  32
TORSDOF 7
