REMARK  10 active torsions:
REMARK  status: ('A' for Active; 'I' for Inactive)
REMARK    1  A    between atoms: C_7  and  N_8 
REMARK    2  A    between atoms: C_9  and  S_10 
REMARK    3  A    between atoms: S_10  and  C_11 
REMARK    4  A    between atoms: C_11  and  C_12 
REMARK       I    between atoms: C_12  and  N_13 
REMARK    5  A    between atoms: N_13  and  C_14 
REMARK    6  A    between atoms: C_14  and  C_15 
REMARK    7  A    between atoms: C_15  and  C_16 
REMARK    8  A    between atoms: C_18  and  O_19 
REMARK    9  A    between atoms: C_21  and  O_22 
REMARK   10  A    between atoms: C_30  and  N_31 
ROOT
HETATM    1  N   UNL     1       5.946  -4.088  -0.193  1.00  0.00    -0.276 N 
HETATM    2  C   UNL     1       4.617  -3.580  -0.169  1.00  0.00     0.177 A 
HETATM    3  N   UNL     1       3.990  -3.024  -1.178  1.00  0.00    -0.204 NA
HETATM    4  C   UNL     1       4.711  -2.986  -2.319  1.00  0.00     0.162 A 
HETATM    5  C   UNL     1       5.983  -3.426  -2.556  1.00  0.00     0.081 A 
HETATM    6  C   UNL     1       6.692  -3.988  -1.445  1.00  0.00     0.124 A 
HETATM    7  N   UNL     1       4.268  -2.504  -3.516  1.00  0.00    -0.260 N 
HETATM    8  H   UNL     1       3.363  -2.100  -3.728  1.00  0.00     0.191 HD
HETATM    9  N   UNL     1       5.185  -2.616  -4.502  1.00  0.00    -0.177 NA
HETATM   10  C   UNL     1       6.244  -3.199  -3.915  1.00  0.00     0.068 A 
HETATM   11  C   UNL     1       7.445  -3.509  -4.726  1.00  0.00     0.073 C 
ENDROOT
BRANCH   2  12
HETATM   12  S   UNL     1       3.632  -3.730   1.302  1.00  0.00    -0.082 SA
BRANCH  12  13
HETATM   13  C   UNL     1       2.534  -2.300   1.093  1.00  0.00     0.185 C 
BRANCH  13  14
HETATM   14  C   UNL     1       1.662  -2.060   2.317  1.00  0.00     0.227 C 
HETATM   15  N   UNL     1       0.444  -1.475   2.006  1.00  0.00    -0.360 N 
HETATM   16  H   UNL     1       0.322  -1.079   1.083  1.00  0.00     0.162 HD
HETATM   17  O   UNL     1       2.004  -2.305   3.469  1.00  0.00    -0.273 OA
BRANCH  15  18
HETATM   18  C   UNL     1      -0.485  -1.072   3.051  1.00  0.00     0.127 C 
BRANCH  18  19
HETATM   19  C   UNL     1      -1.830  -0.646   2.463  1.00  0.00     0.058 C 
BRANCH  19  20
HETATM   20  C   UNL     1      -2.829  -0.238   3.516  1.00  0.00    -0.054 A 
HETATM   21  C   UNL     1      -3.712  -1.184   4.058  1.00  0.00     0.046 A 
HETATM   22  C   UNL     1      -4.655  -0.813   5.026  1.00  0.00     0.102 A 
HETATM   23  C   UNL     1      -4.713   0.525   5.463  1.00  0.00     0.101 A 
HETATM   24  C   UNL     1      -3.818   1.462   4.937  1.00  0.00     0.040 A 
HETATM   25  C   UNL     1      -2.883   1.082   3.971  1.00  0.00     0.010 A 
BRANCH  22  26
HETATM   26  O   UNL     1      -5.561  -1.673   5.596  1.00  0.00    -0.353 OA
HETATM   27  C   UNL     1      -5.558  -3.023   5.157  1.00  0.00     0.210 C 
ENDBRANCH  22  26
BRANCH  23  28
HETATM   28  O   UNL     1      -5.665   0.811   6.411  1.00  0.00    -0.353 OA
HETATM   29  C   UNL     1      -5.894   2.178   6.720  1.00  0.00     0.210 C 
ENDBRANCH  23  28
ENDBRANCH  19  20
ENDBRANCH  18  19
ENDBRANCH  15  18
ENDBRANCH  13  14
ENDBRANCH  12  13
ENDBRANCH   2  12
BRANCH   1  30
HETATM   30  C   UNL     1       6.554  -4.679   0.955  1.00  0.00     0.043 A 
HETATM   31  C   UNL     1       6.848  -3.920   2.095  1.00  0.00     0.032 A 
HETATM   32  C   UNL     1       7.523  -4.497   3.173  1.00  0.00     0.026 A 
HETATM   33  C   UNL     1       7.928  -5.832   3.120  1.00  0.00     0.040 A 
HETATM   34  C   UNL     1       7.654  -6.614   1.988  1.00  0.00    -0.038 A 
HETATM   35 CL   UNL     1       8.785  -6.473   4.474  1.00  0.00    -0.084 Cl
HETATM   36  C   UNL     1       8.085  -8.052   1.895  1.00  0.00     0.050 C 
HETATM   37  C   UNL     1       6.961  -6.026   0.916  1.00  0.00     0.038 A 
ENDBRANCH   1  30
BRANCH   6  38
HETATM   38  N   UNL     1       7.958  -4.343  -1.559  1.00  0.00    -0.384 N 
HETATM   39  H   UNL     1       8.465  -4.239  -2.425  1.00  0.00     0.157 HD
HETATM   40  H   UNL     1       8.461  -4.696  -0.754  1.00  0.00     0.157 HD
ENDBRANCH   6  38
TORSDOF 10
