REMARK  5 active torsions:
REMARK  status: ('A' for Active; 'I' for Inactive)
REMARK    1  A    between atoms: C_7  and  C_8 
REMARK    2  A    between atoms: C_16  and  C_17 
REMARK    3  A    between atoms: C_20  and  O_21 
REMARK    4  A    between atoms: C_24  and  C_25 
REMARK       I    between atoms: C_25  and  N_26 
REMARK    5  A    between atoms: N_26  and  C_27 
ROOT
HETATM    1  C   UNL     1       1.081  -0.069   0.213  1.00  0.00     0.070 C 
HETATM    2  C   UNL     1       2.572  -0.146   0.437  1.00  0.00     0.037 C 
HETATM    3  N   UNL     1       3.206   1.067   0.705  1.00  0.00    -0.192 N 
HETATM    4  C   UNL     1       4.547   1.205   0.698  1.00  0.00     0.726 A 
HETATM    5  N   UNL     1       5.327   0.091   0.611  1.00  0.00    -0.083 N 
HETATM    6  N   UNL     1       6.636   0.399   0.564  1.00  0.00    -0.135 NA
HETATM    7  C   UNL     1       6.590   1.742   0.653  1.00  0.00     0.200 A 
HETATM    8  N   UNL     1       5.312   2.262   0.748  1.00  0.00    -0.041 NA
HETATM    9  C   UNL     1       4.804  -1.277   0.626  1.00  0.00     0.202 C 
HETATM   10  C   UNL     1       3.298  -1.294   0.381  1.00  0.00     0.062 C 
HETATM   11  H   UNL     1       2.641   1.910   0.634  1.00  0.00     0.184 HD
ENDROOT
BRANCH  10  12
HETATM   12  C   UNL     1       2.687  -2.553  -0.140  1.00  0.00     0.256 C 
HETATM   13  N   UNL     1       3.014  -3.686   0.572  1.00  0.00    -0.323 N 
HETATM   14  H   UNL     1       3.591  -3.588   1.396  1.00  0.00     0.169 HD
HETATM   15  O   UNL     1       1.995  -2.505  -1.151  1.00  0.00    -0.267 OA
BRANCH  13  16
HETATM   16  C   UNL     1       2.638  -5.016   0.284  1.00  0.00     0.035 A 
HETATM   17  C   UNL     1       1.728  -5.377  -0.711  1.00  0.00     0.029 A 
HETATM   18  C   UNL     1       1.412  -6.722  -0.928  1.00  0.00     0.002 A 
HETATM   19  C   UNL     1       2.011  -7.718  -0.160  1.00  0.00     0.000 A 
HETATM   20  C   UNL     1       2.921  -7.369   0.834  1.00  0.00     0.002 A 
HETATM   21  C   UNL     1       3.227  -6.025   1.059  1.00  0.00     0.029 A 
ENDBRANCH  13  16
ENDBRANCH  10  12
BRANCH   9  22
HETATM   22  C   UNL     1       5.212  -1.933   1.947  1.00  0.00    -0.028 A 
HETATM   23  C   UNL     1       4.568  -1.618   3.160  1.00  0.00     0.012 A 
HETATM   24  C   UNL     1       4.958  -2.227   4.355  1.00  0.00     0.037 A 
HETATM   25  C   UNL     1       6.001  -3.145   4.345  1.00  0.00     0.065 A 
HETATM   26  C   UNL     1       6.660  -3.462   3.164  1.00  0.00     0.037 A 
HETATM   27  C   UNL     1       6.271  -2.857   1.968  1.00  0.00     0.012 A 
BRANCH  25  28
HETATM   28  O   UNL     1       6.419  -3.757   5.489  1.00  0.00    -0.361 OA
HETATM   29  H   UNL     1       5.929  -3.384   6.240  1.00  0.00     0.217 HD
ENDBRANCH  25  28
ENDBRANCH   9  22
BRANCH   7  30
HETATM   30  C   UNL     1       7.790   2.564   0.738  1.00  0.00     0.036 A 
HETATM   31  C   UNL     1       7.927   3.794   0.079  1.00  0.00     0.048 A 
HETATM   32 CL   UNL     1       6.718   4.445  -0.974  1.00  0.00    -0.083 Cl
HETATM   33  C   UNL     1       9.107   4.539   0.219  1.00  0.00     0.025 A 
HETATM   34  C   UNL     1      10.155   4.068   1.010  1.00  0.00     0.002 A 
HETATM   35  C   UNL     1      10.034   2.844   1.661  1.00  0.00     0.001 A 
HETATM   36  C   UNL     1       8.863   2.098   1.523  1.00  0.00     0.017 A 
ENDBRANCH   7  30
TORSDOF 5
