REMARK  3 active torsions:
REMARK  status: ('A' for Active; 'I' for Inactive)
REMARK    1  A    between atoms: C_4  and  N_5 
REMARK    2  A    between atoms: N_5  and  C_6 
REMARK    3  A    between atoms: C_14  and  C_15 
REMARK       I    between atoms: C_15  and  N_16 
ROOT
HETATM    1  C   UNL     1      -1.442  -0.593   0.013  1.00  0.00     0.020 A 
HETATM    2  C   UNL     1      -0.289  -1.306   0.277  1.00  0.00     0.119 A 
HETATM    3  N   UNL     1       0.939  -0.748   0.358  1.00  0.00    -0.242 NA
HETATM    4  C   UNL     1       1.066   0.588   0.155  1.00  0.00     0.143 A 
HETATM    5  C   UNL     1      -0.066   1.381  -0.100  1.00  0.00     0.077 A 
HETATM    6  C   UNL     1      -1.329   0.778  -0.178  1.00  0.00     0.022 A 
ENDROOT
BRANCH   4   7
HETATM    7  N   UNL     1       2.340   1.192   0.267  1.00  0.00    -0.339 N 
HETATM    8  H   UNL     1       2.446   1.931  -0.437  1.00  0.00     0.167 HD
BRANCH   7   9
HETATM    9  C   UNL     1       3.575   0.612   0.633  1.00  0.00     0.055 A 
HETATM   10  C   UNL     1       4.782   1.072   0.067  1.00  0.00     0.062 A 
HETATM   11 CL   UNL     1       4.774   2.322  -1.131  1.00  0.00    -0.082 Cl
HETATM   12  C   UNL     1       6.015   0.531   0.439  1.00  0.00     0.050 A 
HETATM   13  C   UNL     1       6.058  -0.474   1.399  1.00  0.00     0.035 A 
HETATM   14 CL   UNL     1       7.572  -1.144   1.870  1.00  0.00    -0.084 Cl
HETATM   15  C   UNL     1       4.885  -0.938   1.986  1.00  0.00     0.026 A 
HETATM   16  C   UNL     1       3.654  -0.395   1.605  1.00  0.00     0.033 A 
ENDBRANCH   7   9
ENDBRANCH   4   7
BRANCH   5  17
HETATM   17  C   UNL     1       0.075   2.836  -0.338  1.00  0.00     0.253 C 
HETATM   18  N   UNL     1      -0.932   3.644   0.114  1.00  0.00    -0.366 N 
HETATM   19  H   UNL     1      -1.625   3.328   0.778  1.00  0.00     0.159 HD
HETATM   20  H   UNL     1      -0.770   4.642   0.048  1.00  0.00     0.159 HD
HETATM   21  O   UNL     1       1.059   3.299  -0.902  1.00  0.00    -0.268 OA
ENDBRANCH   5  17
TORSDOF 3
