REMARK  6 active torsions:
REMARK  status: ('A' for Active; 'I' for Inactive)
REMARK    1  A    between atoms: C_4  and  C_5 
REMARK    2  A    between atoms: C_9  and  C_10 
REMARK       I    between atoms: C_10  and  N_11 
REMARK    3  A    between atoms: N_11  and  C_12 
REMARK    4  A    between atoms: C_12  and  C_13 
REMARK    5  A    between atoms: C_13  and  N_14 
REMARK    6  A    between atoms: C_13  and  C_18 
ROOT
HETATM    1  C   UNL     1      15.157   1.655   5.504  1.00  0.00     0.092 A 
HETATM    2  N   UNL     1      14.757   0.520   4.895  1.00  0.00    -0.246 NA
HETATM    3  C   UNL     1      13.963   0.597   3.819  1.00  0.00     0.069 A 
HETATM    4  C   UNL     1      13.517   1.818   3.264  1.00  0.00     0.008 A 
HETATM    5  C   UNL     1      14.006   2.996   3.889  1.00  0.00     0.046 A 
HETATM    6  C   UNL     1      14.818   2.903   5.025  1.00  0.00     0.052 A 
HETATM    7  C   UNL     1      13.557  -0.602   3.248  1.00  0.00     0.032 A 
HETATM    8  C   UNL     1      12.697  -0.646   2.152  1.00  0.00     0.002 A 
HETATM    9  C   UNL     1      12.213   0.536   1.618  1.00  0.00     0.001 A 
HETATM   10  C   UNL     1      12.609   1.753   2.172  1.00  0.00     0.015 A 
ENDROOT
BRANCH   5  11
HETATM   11  C   UNL     1      13.720   4.398   3.465  1.00  0.00     0.252 C 
HETATM   12  N   UNL     1      13.590   4.674   2.119  1.00  0.00    -0.355 N 
HETATM   13  H   UNL     1      13.919   3.939   1.497  1.00  0.00     0.162 HD
HETATM   14  O   UNL     1      13.671   5.285   4.310  1.00  0.00    -0.268 OA
BRANCH  12  15
HETATM   15  C   UNL     1      13.719   6.032   1.591  1.00  0.00     0.161 C 
BRANCH  15  16
HETATM   16  C   UNL     1      12.520   7.053   1.618  1.00  0.00     0.237 C 
BRANCH  16  17
HETATM   17  N   UNL     1      12.112   7.606   2.980  1.00  0.00    -0.069 N 
HETATM   18  H   UNL     1      11.475   8.376   2.747  1.00  0.00     0.279 HD
HETATM   19  C   UNL     1      11.259   6.704   3.829  1.00  0.00     0.270 C 
HETATM   20  C   UNL     1      13.223   8.273   3.738  1.00  0.00     0.270 C 
ENDBRANCH  16  17
BRANCH  16  21
HETATM   21  C   UNL     1      11.300   6.719   0.772  1.00  0.00    -0.026 A 
HETATM   22  C   UNL     1      10.676   7.744   0.033  1.00  0.00     0.009 A 
HETATM   23  C   UNL     1       9.514   7.497  -0.700  1.00  0.00     0.001 A 
HETATM   24  C   UNL     1       8.952   6.225  -0.705  1.00  0.00     0.000 A 
HETATM   25  C   UNL     1       9.550   5.200   0.022  1.00  0.00     0.001 A 
HETATM   26  C   UNL     1      10.712   5.446   0.758  1.00  0.00     0.009 A 
ENDBRANCH  16  21
ENDBRANCH  15  16
ENDBRANCH  12  15
ENDBRANCH   5  11
BRANCH   1  27
HETATM   27  C   UNL     1      15.944   1.466   6.714  1.00  0.00     0.104 A 
HETATM   28  O   UNL     1      16.346   2.599   7.369  1.00  0.00    -0.313 OA
HETATM   29  C   UNL     1      17.035   2.206   8.476  1.00  0.00     0.050 A 
HETATM   30  C   UNL     1      17.556   3.279   9.348  1.00  0.00     0.076 C 
HETATM   31  C   UNL     1      17.085   0.831   8.540  1.00  0.00     0.035 A 
HETATM   32  C   UNL     1      16.385   0.355   7.405  1.00  0.00     0.042 A 
ENDBRANCH   1  27
TORSDOF 6
