REMARK  7 active torsions:
REMARK  status: ('A' for Active; 'I' for Inactive)
REMARK    1  A    between atoms: O_2  and  C_3 
REMARK    2  A    between atoms: C_6  and  C_7 
REMARK    3  A    between atoms: C_7  and  N_8 
REMARK    4  A    between atoms: N_8  and  C_11 
REMARK    5  A    between atoms: C_11  and  C_12 
REMARK    6  A    between atoms: C_11  and  C_20 
REMARK       I    between atoms: C_12  and  N_13 
REMARK    7  A    between atoms: N_13  and  C_14 
ROOT
HETATM    1  C   UNL     1       7.350   5.996   1.981  1.00  0.00     0.310 C 
ENDROOT
BRANCH   1   2
HETATM    2  N   UNL     1       7.292   6.534   0.564  1.00  0.00    -0.054 N 
HETATM    3  H   UNL     1       6.321   6.857   0.432  1.00  0.00     0.278 HD
HETATM    4  H   UNL     1       7.461   5.795  -0.124  1.00  0.00     0.278 HD
BRANCH   2   5
HETATM    5  C   UNL     1       8.152   7.711   0.254  1.00  0.00     0.272 C 
BRANCH   5   6
HETATM    6  C   UNL     1       7.776   8.305  -1.072  1.00  0.00    -0.033 A 
HETATM    7  C   UNL     1       6.677   9.172  -1.175  1.00  0.00     0.011 A 
HETATM    8  C   UNL     1       6.305   9.708  -2.413  1.00  0.00     0.037 A 
HETATM    9  C   UNL     1       7.024   9.384  -3.562  1.00  0.00     0.068 A 
HETATM   10  C   UNL     1       8.110   8.512  -3.463  1.00  0.00     0.037 A 
HETATM   11  C   UNL     1       8.487   7.973  -2.232  1.00  0.00     0.011 A 
BRANCH   9  12
HETATM   12  O   UNL     1       6.771   9.837  -4.825  1.00  0.00    -0.356 OA
HETATM   13  C   UNL     1       5.758  10.826  -4.969  1.00  0.00     0.210 C 
ENDBRANCH   9  12
ENDBRANCH   5   6
ENDBRANCH   2   5
ENDBRANCH   1   2
BRANCH   1  14
HETATM   14  C   UNL     1       6.604   6.954   2.940  1.00  0.00     0.259 C 
HETATM   15  N   UNL     1       6.721   6.671   4.280  1.00  0.00    -0.304 N 
HETATM   16  H   UNL     1       7.252   5.886   4.637  1.00  0.00     0.171 HD
HETATM   17  O   UNL     1       5.935   7.852   2.423  1.00  0.00    -0.270 OA
BRANCH  15  18
HETATM   18  C   UNL     1       6.188   7.498   5.231  1.00  0.00     0.172 A 
HETATM   19  S   UNL     1       6.477   7.004   6.837  1.00  0.00    -0.062 SA
HETATM   20  C   UNL     1       5.631   8.392   7.390  1.00  0.00     0.072 A 
HETATM   21  C   UNL     1       5.195   9.126   6.307  1.00  0.00     0.126 A 
HETATM   22  N   UNL     1       5.523   8.610   5.067  1.00  0.00    -0.236 NA
ENDBRANCH  15  18
ENDBRANCH   1  14
BRANCH   1  23
HETATM   23  C   UNL     1       8.752   5.596   2.391  1.00  0.00    -0.019 A 
HETATM   24  C   UNL     1       9.205   4.293   2.117  1.00  0.00     0.010 A 
HETATM   25  C   UNL     1      10.503   3.907   2.452  1.00  0.00     0.001 A 
HETATM   26  C   UNL     1      11.368   4.815   3.056  1.00  0.00     0.000 A 
HETATM   27  C   UNL     1      10.939   6.112   3.326  1.00  0.00     0.001 A 
HETATM   28  C   UNL     1       9.642   6.504   2.993  1.00  0.00     0.010 A 
ENDBRANCH   1  23
TORSDOF 7
