REMARK  5 active torsions:
REMARK  status: ('A' for Active; 'I' for Inactive)
REMARK    1  A    between atoms: C_4  and  N_5 
REMARK    2  A    between atoms: C_6  and  O_7 
REMARK    3  A    between atoms: C_6  and  C_8 
REMARK       I    between atoms: C_8  and  N_9 
REMARK    4  A    between atoms: N_9  and  C_10 
REMARK    5  A    between atoms: C_10  and  C_11 
ROOT
HETATM    1  N   UNL     1       2.749   0.257  -0.672  1.00  0.00    -0.254 N 
HETATM    2  C   UNL     1       3.534   1.503  -0.658  1.00  0.00     0.256 C 
HETATM    3  C   UNL     1       4.528   1.569  -1.797  1.00  0.00     0.035 A 
HETATM    4  C   UNL     1       5.047   0.366  -2.264  1.00  0.00     0.048 A 
HETATM    5  N   UNL     1       4.559  -0.818  -1.722  1.00  0.00    -0.308 N 
HETATM    6  C   UNL     1       3.408  -0.929  -0.983  1.00  0.00     0.330 C 
HETATM    7  O   UNL     1       3.020  -2.068  -0.726  1.00  0.00    -0.246 OA
HETATM    8  C   UNL     1       5.023   2.772  -2.326  1.00  0.00     0.034 A 
HETATM    9  C   UNL     1       6.011   2.746  -3.309  1.00  0.00     0.011 A 
HETATM   10 BR   UNL     1       6.667   4.368  -4.023  1.00  0.00    -0.051 Br
HETATM   11  C   UNL     1       6.528   1.533  -3.763  1.00  0.00     0.021 A 
HETATM   12  C   UNL     1       6.049   0.335  -3.233  1.00  0.00     0.031 A 
HETATM   13  H   UNL     1       4.926  -1.709  -2.037  1.00  0.00     0.170 HD
ENDROOT
BRANCH   2  14
HETATM   14  O   UNL     1       2.691   2.654  -0.781  1.00  0.00    -0.359 OA
HETATM   15  H   UNL     1       2.409   2.845   0.137  1.00  0.00     0.213 HD
ENDBRANCH   2  14
BRANCH   2  16
HETATM   16  C   UNL     1       4.275   1.623   0.741  1.00  0.00     0.279 C 
HETATM   17  N   UNL     1       5.391   0.840   0.945  1.00  0.00    -0.352 N 
HETATM   18  H   UNL     1       5.719   0.221   0.214  1.00  0.00     0.162 HD
HETATM   19  O   UNL     1       3.850   2.384   1.617  1.00  0.00    -0.268 OA
BRANCH  17  20
HETATM   20  C   UNL     1       6.216   1.002   2.117  1.00  0.00     0.168 C 
BRANCH  20  21
HETATM   21  C   UNL     1       7.516   0.296   1.891  1.00  0.00     0.000 A 
HETATM   22  S   UNL     1       8.665   0.936   0.787  1.00  0.00    -0.105 SA
HETATM   23  C   UNL     1       9.763  -0.339   1.091  1.00  0.00     0.050 A 
HETATM   24  C   UNL     1       9.272  -1.235   2.013  1.00  0.00     0.008 A 
HETATM   25  C   UNL     1       7.974  -0.870   2.475  1.00  0.00     0.017 A 
ENDBRANCH  20  21
ENDBRANCH  17  20
ENDBRANCH   2  16
BRANCH   1  26
HETATM   26  C   UNL     1       1.457   0.219  -0.050  1.00  0.00     0.042 A 
HETATM   27  C   UNL     1       1.148  -0.711   0.951  1.00  0.00     0.030 A 
HETATM   28  C   UNL     1      -0.131  -0.759   1.517  1.00  0.00     0.002 A 
HETATM   29  C   UNL     1      -1.124   0.115   1.081  1.00  0.00     0.000 A 
HETATM   30  C   UNL     1      -0.841   1.031   0.074  1.00  0.00     0.002 A 
HETATM   31  C   UNL     1       0.437   1.076  -0.491  1.00  0.00     0.030 A 
ENDBRANCH   1  26
TORSDOF 5
