REMARK  6 active torsions:
REMARK  status: ('A' for Active; 'I' for Inactive)
REMARK    1  A    between atoms: O_2  and  C_3 
REMARK    2  A    between atoms: C_3  and  C_4 
REMARK    3  A    between atoms: C_4  and  N_5 
REMARK       I    between atoms: N_5  and  C_6 
REMARK    4  A    between atoms: C_6  and  C_7 
REMARK    5  A    between atoms: C_12  and  C_13 
REMARK    6  A    between atoms: C_22  and  C_23 
ROOT
HETATM    1  C   UNL     1       7.362  -1.690  -1.137  1.00  0.00     0.148 C 
HETATM    2  N   UNL     1       8.516  -2.106  -0.561  1.00  0.00    -0.165 NA
HETATM    3  N   UNL     1       9.110  -0.956  -0.202  1.00  0.00    -0.240 N 
HETATM    4  C   UNL     1       8.333   0.152  -0.376  1.00  0.00     0.123 C 
HETATM    5  N   UNL     1       8.712   1.352   0.108  1.00  0.00    -0.366 N 
HETATM    6  C   UNL     1       9.801   1.500   1.074  1.00  0.00     0.118 C 
HETATM    7  C   UNL     1      10.324   0.137   1.585  1.00  0.00     0.066 C 
HETATM    8  C   UNL     1      10.391  -0.919   0.474  1.00  0.00     0.221 C 
HETATM    9  C   UNL     1       7.231  -0.273  -1.067  1.00  0.00     0.088 C 
HETATM   10  H   UNL     1       8.137   2.181  -0.040  1.00  0.00     0.161 HD
ENDROOT
BRANCH   1  11
HETATM   11  C   UNL     1       6.371  -2.629  -1.684  1.00  0.00     0.272 C 
HETATM   12  N   UNL     1       6.655  -3.950  -1.409  1.00  0.00    -0.354 N 
HETATM   13  H   UNL     1       7.399  -4.092  -0.729  1.00  0.00     0.162 HD
HETATM   14  O   UNL     1       5.362  -2.262  -2.278  1.00  0.00    -0.266 OA
BRANCH  12  15
HETATM   15  C   UNL     1       5.650  -4.978  -1.567  1.00  0.00     0.149 C 
BRANCH  15  16
HETATM   16  C   UNL     1       6.196  -6.363  -1.232  1.00  0.00     0.186 C 
BRANCH  16  17
HETATM   17  O   UNL     1       6.544  -6.399   0.157  1.00  0.00    -0.394 OA
HETATM   18  C   UNL     1       7.012  -7.683   0.547  1.00  0.00     0.201 C 
ENDBRANCH  16  17
ENDBRANCH  15  16
ENDBRANCH  12  15
ENDBRANCH   1  11
BRANCH   8  19
HETATM   19  C   UNL     1      11.498  -0.656  -0.521  1.00  0.00     0.409 C 
HETATM   20  F   UNL     1      11.588  -1.619  -1.463  1.00  0.00    -0.169 F 
HETATM   21  F   UNL     1      11.388   0.531  -1.152  1.00  0.00    -0.169 F 
HETATM   22  F   UNL     1      12.694  -0.636   0.126  1.00  0.00    -0.169 F 
ENDBRANCH   8  19
BRANCH   6  23
HETATM   23  C   UNL     1       9.308   2.353   2.235  1.00  0.00    -0.034 A 
HETATM   24  C   UNL     1      10.009   3.505   2.623  1.00  0.00     0.034 A 
HETATM   25  C   UNL     1       9.558   4.289   3.693  1.00  0.00     0.056 A 
HETATM   26 CL   UNL     1      10.480   5.692   4.101  1.00  0.00    -0.083 Cl
HETATM   27  C   UNL     1       8.400   3.927   4.389  1.00  0.00     0.055 A 
HETATM   28 CL   UNL     1       7.789   4.844   5.719  1.00  0.00    -0.083 Cl
HETATM   29  C   UNL     1       7.694   2.784   4.010  1.00  0.00     0.026 A 
HETATM   30  C   UNL     1       8.143   2.005   2.942  1.00  0.00     0.011 A 
ENDBRANCH   6  23
TORSDOF 6
