REMARK  5 active torsions:
REMARK  status: ('A' for Active; 'I' for Inactive)
REMARK    1  A    between atoms: C_3  and  N_4 
REMARK       I    between atoms: N_4  and  C_5 
REMARK       I    between atoms: C_5  and  N_6 
REMARK    2  A    between atoms: N_6  and  C_7 
REMARK    3  A    between atoms: C_7  and  C_8 
REMARK    4  A    between atoms: C_11  and  N_12 
REMARK       I    between atoms: N_12  and  C_13 
REMARK    5  A    between atoms: C_13  and  C_14 
ROOT
HETATM    1  C   UNL     1       6.945   3.136  -0.134  1.00  0.00    -0.040 A 
HETATM    2  C   UNL     1       7.538   4.267  -0.706  1.00  0.00     0.011 A 
HETATM    3  C   UNL     1       8.915   4.305  -0.956  1.00  0.00     0.030 A 
HETATM    4  C   UNL     1       9.725   3.214  -0.642  1.00  0.00     0.035 A 
HETATM    5  C   UNL     1       9.128   2.073  -0.089  1.00  0.00     0.030 A 
HETATM    6  C   UNL     1       7.752   2.031   0.159  1.00  0.00     0.011 A 
ENDROOT
BRANCH   1   7
HETATM    7  C   UNL     1       5.464   3.102   0.131  1.00  0.00     0.162 C 
BRANCH   7   8
HETATM    8  N   UNL     1       4.739   2.652  -1.035  1.00  0.00    -0.339 N 
HETATM    9  C   UNL     1       3.360   2.632  -0.995  1.00  0.00     0.321 C 
HETATM   10  N   UNL     1       2.853   2.120  -2.168  1.00  0.00    -0.307 N 
HETATM   11  O   UNL     1       2.721   3.060  -0.045  1.00  0.00    -0.247 OA
HETATM   12  H   UNL     1       3.436   2.346  -2.963  1.00  0.00     0.170 HD
HETATM   13  H   UNL     1       5.165   1.910  -1.570  1.00  0.00     0.164 HD
BRANCH  10  14
HETATM   14  C   UNL     1       1.488   1.873  -2.450  1.00  0.00     0.059 A 
HETATM   15  C   UNL     1       0.534   1.379  -1.547  1.00  0.00    -0.032 A 
HETATM   16  C   UNL     1       0.827   0.961  -0.135  1.00  0.00     0.050 C 
HETATM   17  C   UNL     1      -0.792   1.236  -1.994  1.00  0.00     0.028 A 
HETATM   18  C   UNL     1      -1.106   1.519  -3.314  1.00  0.00     0.117 A 
HETATM   19  N   UNL     1      -0.201   1.927  -4.221  1.00  0.00    -0.271 NA
HETATM   20  C   UNL     1       1.064   2.091  -3.767  1.00  0.00     0.146 A 
ENDBRANCH  10  14
ENDBRANCH   7   8
ENDBRANCH   1   7
BRANCH   4  21
HETATM   21  N   UNL     1      11.122   3.175  -0.849  1.00  0.00    -0.323 N 
HETATM   22  C   UNL     1      11.923   4.184  -1.356  1.00  0.00     0.257 C 
HETATM   23  O   UNL     1      11.558   5.310  -1.675  1.00  0.00    -0.267 OA
HETATM   24  H   UNL     1      11.577   2.332  -0.531  1.00  0.00     0.169 HD
BRANCH  22  25
HETATM   25  C   UNL     1      13.367   3.858  -1.496  1.00  0.00     0.049 A 
HETATM   26  C   UNL     1      14.285   4.903  -1.498  1.00  0.00     0.133 A 
HETATM   27  N   UNL     1      15.627   4.736  -1.620  1.00  0.00    -0.272 NA
HETATM   28  C   UNL     1      16.072   3.471  -1.763  1.00  0.00     0.116 A 
HETATM   29  C   UNL     1      15.239   2.364  -1.790  1.00  0.00     0.020 A 
HETATM   30  C   UNL     1      13.863   2.561  -1.660  1.00  0.00     0.020 A 
ENDBRANCH  22  25
ENDBRANCH   4  21
TORSDOF 5
