REMARK  4 active torsions:
REMARK  status: ('A' for Active; 'I' for Inactive)
REMARK    1  A    between atoms: N_4  and  C_5 
REMARK    2  A    between atoms: C_15  and  C_16 
REMARK       I    between atoms: C_16  and  N_17 
REMARK    3  A    between atoms: N_17  and  C_18 
REMARK    4  A    between atoms: C_19  and  C_20 
REMARK       I    between atoms: C_20  and  N_21 
ROOT
HETATM    1  C   UNL     1       1.130  -0.477  -0.408  1.00  0.00     0.073 C 
HETATM    2  C   UNL     1       2.603  -0.300  -0.427  1.00  0.00     0.069 A 
HETATM    3  N   UNL     1       3.409  -1.337  -0.163  1.00  0.00    -0.170 NA
HETATM    4  N   UNL     1       4.683  -0.857  -0.300  1.00  0.00    -0.216 N 
HETATM    5  C   UNL     1       4.653   0.512  -0.525  1.00  0.00     0.145 A 
HETATM    6  C   UNL     1       3.333   0.882  -0.639  1.00  0.00     0.087 A 
HETATM    7  N   UNL     1       5.666   1.412  -0.564  1.00  0.00    -0.349 N 
HETATM    8  C   UNL     1       5.345   2.751  -0.713  1.00  0.00     0.111 A 
HETATM    9  C   UNL     1       4.092   3.233  -0.873  1.00  0.00     0.098 A 
HETATM   10  C   UNL     1       2.946   2.259  -0.861  1.00  0.00     0.205 A 
HETATM   11  O   UNL     1       1.781   2.626  -0.992  1.00  0.00    -0.286 OA
HETATM   12  H   UNL     1       6.608   1.213  -0.228  1.00  0.00     0.167 HD
ENDROOT
BRANCH   9  13
HETATM   13  C   UNL     1       3.914   4.714  -0.980  1.00  0.00     0.261 C 
HETATM   14  N   UNL     1       2.613   5.127  -1.203  1.00  0.00    -0.322 N 
HETATM   15  H   UNL     1       1.897   4.407  -1.088  1.00  0.00     0.169 HD
HETATM   16  O   UNL     1       4.871   5.460  -0.802  1.00  0.00    -0.267 OA
BRANCH  14  17
HETATM   17  C   UNL     1       2.153   6.464  -1.105  1.00  0.00     0.050 A 
HETATM   18  C   UNL     1       2.847   7.624  -1.497  1.00  0.00     0.058 A 
HETATM   19  C   UNL     1       2.315   8.889  -1.183  1.00  0.00     0.019 A 
HETATM   20  C   UNL     1       1.083   9.009  -0.541  1.00  0.00     0.001 A 
HETATM   21  C   UNL     1       0.357   7.867  -0.227  1.00  0.00     0.002 A 
HETATM   22  C   UNL     1       0.884   6.606  -0.514  1.00  0.00     0.030 A 
BRANCH  18  23
HETATM   23  C   UNL     1       4.043   7.658  -2.382  1.00  0.00     0.251 C 
HETATM   24  N   UNL     1       4.079   6.749  -3.404  1.00  0.00    -0.366 N 
HETATM   25  H   UNL     1       3.397   6.011  -3.498  1.00  0.00     0.159 HD
HETATM   26  H   UNL     1       4.902   6.746  -3.989  1.00  0.00     0.159 HD
HETATM   27  O   UNL     1       4.899   8.529  -2.284  1.00  0.00    -0.268 OA
ENDBRANCH  18  23
ENDBRANCH  14  17
ENDBRANCH   9  13
BRANCH   4  28
HETATM   28  C   UNL     1       5.791  -1.746  -0.207  1.00  0.00     0.060 A 
HETATM   29  C   UNL     1       7.050  -1.415  -0.720  1.00  0.00     0.031 A 
HETATM   30  C   UNL     1       8.115  -2.314  -0.603  1.00  0.00     0.002 A 
HETATM   31  C   UNL     1       7.929  -3.547   0.019  1.00  0.00     0.000 A 
HETATM   32  C   UNL     1       6.673  -3.895   0.511  1.00  0.00     0.002 A 
HETATM   33  C   UNL     1       5.604  -3.004   0.391  1.00  0.00     0.031 A 
ENDBRANCH   4  28
TORSDOF 4
