REMARK  5 active torsions:
REMARK  status: ('A' for Active; 'I' for Inactive)
REMARK    1  A    between atoms: O_2  and  C_3 
REMARK    2  A    between atoms: C_4  and  N_5 
REMARK    3  A    between atoms: N_5  and  C_6 
REMARK    4  A    between atoms: C_6  and  C_7 
REMARK    5  A    between atoms: C_15  and  C_16 
ROOT
HETATM    1  C   UNL     1       6.363   2.191   2.010  1.00  0.00     0.120 A 
HETATM    2  N   UNL     1       7.393   2.509   1.290  1.00  0.00    -0.233 NA
HETATM    3  C   UNL     1       7.945   3.788   1.454  1.00  0.00     0.075 A 
HETATM    4  C   UNL     1       7.456   4.705   2.385  1.00  0.00     0.061 A 
HETATM    5  C   UNL     1       6.305   4.290   3.204  1.00  0.00     0.259 A 
HETATM    6  O   UNL     1       5.800   5.029   4.040  1.00  0.00    -0.267 OA
HETATM    7  N   UNL     1       5.827   3.031   2.956  1.00  0.00    -0.310 N 
HETATM    8  C   UNL     1       9.003   4.170   0.626  1.00  0.00     0.048 A 
HETATM    9  C   UNL     1       9.573   5.451   0.723  1.00  0.00     0.050 A 
HETATM   10  C   UNL     1       9.067   6.352   1.676  1.00  0.00     0.017 A 
HETATM   11  C   UNL     1       8.011   5.982   2.509  1.00  0.00     0.020 A 
HETATM   12  H   UNL     1       4.988   2.773   3.457  1.00  0.00     0.170 HD
ENDROOT
BRANCH   1  13
HETATM   13  C   UNL     1       5.659   0.848   1.840  1.00  0.00     0.171 C 
BRANCH  13  14
HETATM   14  N   UNL     1       4.870   0.777   0.593  1.00  0.00    -0.284 NA
HETATM   15  H   UNL     1       4.527  -0.181   0.494  1.00  0.00     0.128 HD
BRANCH  14  16
HETATM   16  C   UNL     1       3.717   1.604   0.604  1.00  0.00     0.042 A 
HETATM   17  C   UNL     1       2.460   1.084   0.972  1.00  0.00     0.089 A 
HETATM   18  C   UNL     1       1.352   1.931   1.057  1.00  0.00     0.038 A 
HETATM   19  C   UNL     1       1.484   3.289   0.754  1.00  0.00     0.003 A 
HETATM   20  C   UNL     1       2.719   3.804   0.368  1.00  0.00     0.002 A 
HETATM   21  C   UNL     1       3.830   2.964   0.295  1.00  0.00     0.026 A 
BRANCH  17  22
HETATM   22  O   UNL     1       2.427  -0.259   1.265  1.00  0.00    -0.354 OA
HETATM   23  C   UNL     1       1.199  -0.907   0.945  1.00  0.00     0.210 C 
ENDBRANCH  17  22
ENDBRANCH  14  16
ENDBRANCH  13  14
ENDBRANCH   1  13
BRANCH   9  24
HETATM   24  C   UNL     1      10.688   5.875  -0.202  1.00  0.00     0.417 C 
HETATM   25  F   UNL     1      11.197   4.857  -0.949  1.00  0.00    -0.166 F 
HETATM   26  F   UNL     1      10.287   6.827  -1.089  1.00  0.00    -0.166 F 
HETATM   27  F   UNL     1      11.745   6.410   0.469  1.00  0.00    -0.166 F 
ENDBRANCH   9  24
TORSDOF 5
