REMARK  4 active torsions:
REMARK  status: ('A' for Active; 'I' for Inactive)
REMARK    1  A    between atoms: C_3  and  C_4 
REMARK    2  A    between atoms: C_5  and  C_6 
REMARK       I    between atoms: C_6  and  N_7 
REMARK    3  A    between atoms: N_7  and  C_8 
REMARK    4  A    between atoms: C_15  and  C_16 
REMARK       I    between atoms: C_16  and  N_17 
ROOT
HETATM    1  C   UNL     1      -2.051   4.982  -2.133  1.00  0.00     0.035 A 
HETATM    2  C   UNL     1      -2.668   4.187  -3.109  1.00  0.00     0.046 A 
HETATM    3  C   UNL     1      -3.944   4.547  -3.598  1.00  0.00     0.030 A 
HETATM    4  C   UNL     1      -4.560   5.685  -3.091  1.00  0.00     0.063 A 
HETATM    5  N   UNL     1      -5.756   5.771  -3.745  1.00  0.00    -0.277 N 
HETATM    6  H   UNL     1      -6.470   6.482  -3.627  1.00  0.00     0.189 HD
HETATM    7  N   UNL     1      -5.977   4.791  -4.636  1.00  0.00    -0.168 NA
HETATM    8  C   UNL     1      -4.865   4.024  -4.555  1.00  0.00     0.156 A 
HETATM    9  C   UNL     1      -3.978   6.496  -2.115  1.00  0.00     0.034 A 
HETATM   10  C   UNL     1      -2.712   6.119  -1.649  1.00  0.00     0.032 A 
ENDROOT
BRANCH   1  11
HETATM   11  N   UNL     1      -0.779   4.707  -1.586  1.00  0.00    -0.327 N 
HETATM   12  C   UNL     1       0.065   3.668  -1.905  1.00  0.00     0.227 C 
HETATM   13  O   UNL     1      -0.100   2.818  -2.768  1.00  0.00    -0.273 OA
HETATM   14  H   UNL     1      -0.446   5.358  -0.890  1.00  0.00     0.169 HD
BRANCH  12  15
HETATM   15  C   UNL     1       1.348   3.643  -1.147  1.00  0.00     0.087 A 
HETATM   16  C   UNL     1       1.568   2.736   0.055  1.00  0.00     0.034 A 
HETATM   17  C   UNL     1       1.551   4.242   0.214  1.00  0.00     0.025 A 
BRANCH  16  18
HETATM   18  C   UNL     1       0.480   1.924   0.745  1.00  0.00    -0.031 A 
HETATM   19  C   UNL     1      -0.384   1.095   0.005  1.00  0.00     0.009 A 
HETATM   20  C   UNL     1      -1.388   0.335   0.615  1.00  0.00     0.001 A 
HETATM   21  C   UNL     1      -1.540   0.360   1.996  1.00  0.00     0.002 A 
HETATM   22  C   UNL     1      -0.680   1.136   2.765  1.00  0.00     0.024 A 
HETATM   23  C   UNL     1       0.319   1.900   2.148  1.00  0.00     0.040 A 
HETATM   24 CL   UNL     1       1.378   2.795   3.188  1.00  0.00    -0.084 Cl
ENDBRANCH  16  18
ENDBRANCH  12  15
ENDBRANCH   1  11
BRANCH   8  25
HETATM   25  C   UNL     1      -4.710   2.822  -5.387  1.00  0.00     0.270 C 
HETATM   26  N   UNL     1      -5.761   2.589  -6.233  1.00  0.00    -0.365 N 
HETATM   27  H   UNL     1      -6.539   3.237  -6.228  1.00  0.00     0.159 HD
HETATM   28  H   UNL     1      -5.739   1.791  -6.847  1.00  0.00     0.159 HD
HETATM   29  O   UNL     1      -3.742   2.070  -5.357  1.00  0.00    -0.266 OA
ENDBRANCH   8  25
TORSDOF 4
