REMARK  5 active torsions:
REMARK  status: ('A' for Active; 'I' for Inactive)
REMARK    1  A    between atoms: C_4  and  N_5 
REMARK    2  A    between atoms: C_9  and  C_10 
REMARK    3  A    between atoms: C_13  and  O_14 
REMARK    4  A    between atoms: C_17  and  C_18 
REMARK       I    between atoms: C_18  and  N_19 
REMARK    5  A    between atoms: N_19  and  C_20 
ROOT
HETATM    1  N   UNL     1       5.300   2.699  -0.277  1.00  0.00    -0.292 N 
HETATM    2  C   UNL     1       4.681   3.963  -0.402  1.00  0.00     0.179 C 
HETATM    3  S   UNL     1       3.113   4.403   0.019  1.00  0.00    -0.040 SA
HETATM    4  N   UNL     1       5.443   4.965  -0.938  1.00  0.00    -0.354 N 
HETATM    5  C   UNL     1       6.888   4.987  -0.932  1.00  0.00     0.158 C 
HETATM    6  C   UNL     1       7.418   3.587  -0.949  1.00  0.00     0.060 C 
HETATM    7  C   UNL     1       6.664   2.512  -0.616  1.00  0.00     0.030 C 
HETATM    8  C   UNL     1       7.214   1.098  -0.590  1.00  0.00     0.070 C 
HETATM    9  H   UNL     1       4.984   5.868  -0.942  1.00  0.00     0.163 HD
ENDROOT
BRANCH   6  10
HETATM   10  C   UNL     1       8.857   3.502  -1.350  1.00  0.00     0.257 C 
HETATM   11  N   UNL     1       9.092   2.638  -2.397  1.00  0.00    -0.306 N 
HETATM   12  H   UNL     1       8.318   2.164  -2.836  1.00  0.00     0.170 HD
HETATM   13  O   UNL     1       9.682   4.198  -0.774  1.00  0.00    -0.267 OA
BRANCH  11  14
HETATM   14  C   UNL     1      10.360   2.215  -2.761  1.00  0.00     0.160 A 
HETATM   15  N   UNL     1      11.511   2.686  -2.273  1.00  0.00    -0.110 NA
HETATM   16  O   UNL     1      12.515   1.927  -2.835  1.00  0.00    -0.216 OA
HETATM   17  C   UNL     1      11.969   0.995  -3.655  1.00  0.00     0.078 A 
HETATM   18  C   UNL     1      12.910   0.056  -4.289  1.00  0.00     0.079 C 
HETATM   19  C   UNL     1      10.606   1.159  -3.673  1.00  0.00     0.087 A 
ENDBRANCH  11  14
ENDBRANCH   6  10
BRANCH   5  20
HETATM   20  C   UNL     1       7.373   5.879   0.201  1.00  0.00    -0.031 A 
HETATM   21  C   UNL     1       7.254   5.501   1.549  1.00  0.00     0.012 A 
HETATM   22  C   UNL     1       7.694   6.347   2.571  1.00  0.00     0.037 A 
HETATM   23  C   UNL     1       8.246   7.582   2.250  1.00  0.00     0.065 A 
HETATM   24  C   UNL     1       8.362   7.985   0.927  1.00  0.00     0.037 A 
HETATM   25  C   UNL     1       7.927   7.138  -0.095  1.00  0.00     0.012 A 
BRANCH  23  26
HETATM   26  O   UNL     1       8.690   8.436   3.215  1.00  0.00    -0.361 OA
HETATM   27  H   UNL     1       8.619   7.990   4.074  1.00  0.00     0.217 HD
ENDBRANCH  23  26
ENDBRANCH   5  20
BRANCH   1  28
HETATM   28  C   UNL     1       4.469   1.573   0.068  1.00  0.00     0.048 A 
HETATM   29  C   UNL     1       3.533   1.129  -0.886  1.00  0.00     0.037 A 
HETATM   30  C   UNL     1       2.681   0.051  -0.620  1.00  0.00    -0.060 A 
HETATM   31  C   UNL     1       1.666  -0.377  -1.638  1.00  0.00     0.048 C 
HETATM   32  C   UNL     1       2.813  -0.627   0.592  1.00  0.00     0.007 A 
HETATM   33  C   UNL     1       3.739  -0.198   1.545  1.00  0.00     0.009 A 
HETATM   34  C   UNL     1       4.559   0.919   1.311  1.00  0.00    -0.035 A 
HETATM   35  C   UNL     1       5.472   1.358   2.422  1.00  0.00     0.050 C 
ENDBRANCH   1  28
TORSDOF 5
