REMARK  2 active torsions:
REMARK  status: ('A' for Active; 'I' for Inactive)
REMARK       I    between atoms: N_8  and  C_9 
REMARK    1  A    between atoms: C_9  and  C_10 
REMARK    2  A    between atoms: N_12  and  C_13 
ROOT
HETATM    1  C   UNL     1       1.091   0.228   0.177  1.00  0.00     0.021 C 
HETATM    2  C   UNL     1       2.613   0.114   0.124  1.00  0.00     0.087 C 
HETATM    3  C   UNL     1       3.034  -1.301  -0.256  1.00  0.00     0.207 C 
HETATM    4  O   UNL     1       2.265  -2.156  -0.680  1.00  0.00    -0.279 OA
HETATM    5  N   UNL     1       4.405  -1.497  -0.139  1.00  0.00    -0.227 NA
HETATM    6  C   UNL     1       5.138  -1.145  -1.307  1.00  0.00     0.042 A 
HETATM    7  C   UNL     1       5.390   0.214  -1.588  1.00  0.00     0.059 A 
HETATM    8  N   UNL     1       4.665   1.231  -0.874  1.00  0.00    -0.309 N 
HETATM    9  C   UNL     1       5.316   2.412  -0.449  1.00  0.00     0.298 C 
HETATM   10  O   UNL     1       6.510   2.622  -0.673  1.00  0.00    -0.264 OA
HETATM   11  C   UNL     1       3.188   1.074  -0.926  1.00  0.00     0.145 C 
HETATM   12  C   UNL     1       5.715  -2.163  -2.064  1.00  0.00     0.026 A 
HETATM   13  C   UNL     1       6.574  -1.831  -3.110  1.00  0.00     0.002 A 
HETATM   14  C   UNL     1       6.863  -0.492  -3.379  1.00  0.00     0.002 A 
HETATM   15  C   UNL     1       6.277   0.528  -2.621  1.00  0.00     0.031 A 
HETATM   16  H   UNL     1       4.738  -0.885   0.603  1.00  0.00     0.136 HD
ENDROOT
BRANCH   9  17
HETATM   17  C   UNL     1       4.531   3.385   0.359  1.00  0.00     0.239 A 
HETATM   18  N   UNL     1       4.857   4.687   0.436  1.00  0.00    -0.140 NA
HETATM   19  N   UNL     1       3.943   5.192   1.294  1.00  0.00    -0.225 N 
HETATM   20  C   UNL     1       3.109   4.185   1.707  1.00  0.00     0.237 A 
HETATM   21  N   UNL     1       3.449   3.045   1.150  1.00  0.00    -0.216 NA
BRANCH  19  22
HETATM   22  C   UNL     1       3.926   6.567   1.646  1.00  0.00     0.059 A 
HETATM   23  C   UNL     1       4.907   7.423   1.121  1.00  0.00     0.031 A 
HETATM   24  C   UNL     1       4.908   8.779   1.453  1.00  0.00     0.002 A 
HETATM   25  C   UNL     1       3.931   9.289   2.305  1.00  0.00     0.000 A 
HETATM   26  C   UNL     1       2.953   8.445   2.829  1.00  0.00     0.002 A 
HETATM   27  C   UNL     1       2.946   7.085   2.504  1.00  0.00     0.031 A 
ENDBRANCH  19  22
ENDBRANCH   9  17
TORSDOF 2
