REMARK  5 active torsions:
REMARK  status: ('A' for Active; 'I' for Inactive)
REMARK    1  A    between atoms: C_4  and  C_5 
REMARK    2  A    between atoms: C_10  and  C_11 
REMARK       I    between atoms: C_11  and  N_12 
REMARK    3  A    between atoms: N_12  and  C_13 
REMARK    4  A    between atoms: C_13  and  C_14 
REMARK    5  A    between atoms: C_22  and  C_23 
ROOT
HETATM    1  C   UNL     1       6.594  -7.935   5.662  1.00  0.00     0.118 C 
HETATM    2  N   UNL     1       5.892  -8.351   4.451  1.00  0.00    -0.365 N 
HETATM    3  C   UNL     1       6.400  -8.116   3.217  1.00  0.00     0.141 A 
HETATM    4  N   UNL     1       7.686  -7.684   3.046  1.00  0.00    -0.238 N 
HETATM    5  N   UNL     1       8.051  -7.540   1.761  1.00  0.00    -0.163 NA
HETATM    6  C   UNL     1       6.924  -7.838   1.065  1.00  0.00     0.165 A 
HETATM    7  C   UNL     1       5.882  -8.215   1.951  1.00  0.00     0.092 A 
HETATM    8 BR   UNL     1       4.137  -8.725   1.502  1.00  0.00    -0.044 Br
HETATM    9  C   UNL     1       8.616  -7.429   4.130  1.00  0.00     0.221 C 
HETATM   10  C   UNL     1       8.113  -8.066   5.440  1.00  0.00     0.066 C 
HETATM   11  H   UNL     1       4.895  -8.535   4.567  1.00  0.00     0.162 HD
ENDROOT
BRANCH   6  12
HETATM   12  C   UNL     1       6.899  -7.717  -0.402  1.00  0.00     0.273 C 
HETATM   13  N   UNL     1       8.090  -7.259  -0.920  1.00  0.00    -0.353 N 
HETATM   14  H   UNL     1       8.794  -6.990  -0.236  1.00  0.00     0.162 HD
HETATM   15  O   UNL     1       5.916  -7.959  -1.096  1.00  0.00    -0.266 OA
BRANCH  13  16
HETATM   16  C   UNL     1       8.269  -6.852  -2.298  1.00  0.00     0.155 C 
BRANCH  16  17
HETATM   17  C   UNL     1       8.177  -5.331  -2.500  1.00  0.00     0.139 C 
HETATM   18  O   UNL     1       9.125  -4.675  -1.631  1.00  0.00    -0.384 OA
HETATM   19  C   UNL     1       8.423  -3.725  -0.819  1.00  0.00     0.168 C 
HETATM   20  C   UNL     1       6.965  -4.119  -0.843  1.00  0.00     0.029 C 
HETATM   21  C   UNL     1       6.812  -4.716  -2.218  1.00  0.00     0.035 C 
ENDBRANCH  16  17
ENDBRANCH  13  16
ENDBRANCH   6  12
BRANCH   9  22
HETATM   22  C   UNL     1       8.903  -5.946   4.237  1.00  0.00     0.409 C 
HETATM   23  F   UNL     1       7.800  -5.178   4.289  1.00  0.00    -0.169 F 
HETATM   24  F   UNL     1       9.625  -5.690   5.359  1.00  0.00    -0.169 F 
HETATM   25  F   UNL     1       9.652  -5.503   3.200  1.00  0.00    -0.169 F 
ENDBRANCH   9  22
BRANCH   1  26
HETATM   26  C   UNL     1       6.132  -6.587   6.192  1.00  0.00    -0.035 A 
HETATM   27  C   UNL     1       5.205  -5.776   5.516  1.00  0.00     0.009 A 
HETATM   28  C   UNL     1       4.803  -4.546   6.043  1.00  0.00     0.001 A 
HETATM   29  C   UNL     1       5.312  -4.108   7.261  1.00  0.00     0.000 A 
HETATM   30  C   UNL     1       6.218  -4.901   7.957  1.00  0.00     0.001 A 
HETATM   31  C   UNL     1       6.621  -6.131   7.430  1.00  0.00     0.009 A 
ENDBRANCH   1  26
TORSDOF 5
