REMARK  3 active torsions:
REMARK  status: ('A' for Active; 'I' for Inactive)
REMARK    1  A    between atoms: C_3  and  O_4 
REMARK    2  A    between atoms: O_4  and  C_5 
REMARK    3  A    between atoms: C_10  and  N_11 
REMARK       I    between atoms: N_11  and  C_12 
REMARK       I    between atoms: C_12  and  N_13 
ROOT
HETATM    1  N   UNL     1       4.886  -2.575  -0.349  1.00  0.00    -0.309 N 
HETATM    2  C   UNL     1       4.371  -3.853  -0.331  1.00  0.00     0.323 C 
HETATM    3  N   UNL     1       2.997  -3.913  -0.145  1.00  0.00    -0.328 N 
HETATM    4  C   UNL     1       2.324  -5.177  -0.465  1.00  0.00     0.185 C 
HETATM    5  C   UNL     1       1.097  -4.834  -1.244  1.00  0.00     0.035 A 
HETATM    6  C   UNL     1       0.506  -3.589  -1.354  1.00  0.00    -0.020 A 
HETATM    7  C   UNL     1       1.088  -2.392  -0.680  1.00  0.00     0.061 C 
HETATM    8  C   UNL     1       2.121  -2.840   0.376  1.00  0.00     0.132 C 
HETATM    9  N   UNL     1       0.376  -5.716  -1.998  1.00  0.00    -0.357 N 
HETATM   10  H   UNL     1       0.585  -6.697  -2.121  1.00  0.00     0.166 HD
HETATM   11  C   UNL     1      -0.677  -5.060  -2.602  1.00  0.00     0.043 A 
HETATM   12  C   UNL     1      -0.619  -3.720  -2.210  1.00  0.00    -0.001 A 
HETATM   13  C   UNL     1      -1.662  -5.550  -3.469  1.00  0.00     0.030 A 
HETATM   14  C   UNL     1      -2.614  -4.644  -3.947  1.00  0.00     0.002 A 
HETATM   15  C   UNL     1      -2.582  -3.303  -3.571  1.00  0.00     0.001 A 
HETATM   16  C   UNL     1      -1.590  -2.828  -2.705  1.00  0.00     0.014 A 
HETATM   17  O   UNL     1       5.031  -4.874  -0.505  1.00  0.00    -0.247 OA
HETATM   18  H   UNL     1       4.214  -1.845  -0.513  1.00  0.00     0.170 HD
ENDROOT
BRANCH   1  19
HETATM   19  C   UNL     1       6.235  -2.204  -0.538  1.00  0.00     0.037 A 
HETATM   20  C   UNL     1       7.305  -3.093  -0.453  1.00  0.00     0.032 A 
HETATM   21  C   UNL     1       8.606  -2.665  -0.738  1.00  0.00     0.039 A 
HETATM   22  C   UNL     1       8.847  -1.344  -1.114  1.00  0.00     0.075 A 
HETATM   23  C   UNL     1       7.799  -0.414  -1.110  1.00  0.00    -0.026 A 
HETATM   24  C   UNL     1       8.032   1.024  -1.479  1.00  0.00     0.051 C 
HETATM   25  C   UNL     1       6.495  -0.860  -0.838  1.00  0.00     0.039 A 
BRANCH  22  26
HETATM   26  O   UNL     1      10.091  -0.887  -1.459  1.00  0.00    -0.346 OA
BRANCH  26  27
HETATM   27  C   UNL     1      10.810  -1.694  -2.407  1.00  0.00     0.121 C 
HETATM   28  C   UNL     1      10.133  -1.682  -3.778  1.00  0.00     0.040 C 
HETATM   29  C   UNL     1      12.208  -1.090  -2.518  1.00  0.00     0.040 C 
ENDBRANCH  26  27
ENDBRANCH  22  26
ENDBRANCH   1  19
TORSDOF 3
