REMARK  8 active torsions:
REMARK  status: ('A' for Active; 'I' for Inactive)
REMARK    1  A    between atoms: O_2  and  C_3 
REMARK    2  A    between atoms: C_10  and  C_11 
REMARK    3  A    between atoms: N_12  and  N_13 
REMARK       I    between atoms: N_13  and  C_14 
REMARK    4  A    between atoms: C_14  and  C_15 
REMARK    5  A    between atoms: N_18  and  C_19 
REMARK    6  A    between atoms: C_23  and  N_24 
REMARK    7  A    between atoms: C_25  and  C_26 
REMARK    8  A    between atoms: C_26  and  N_27 
ROOT
HETATM    1  C   UNL     1       4.153  -3.283   1.756  1.00  0.00     0.176 C 
HETATM    2  N   UNL     1       3.980  -3.729   3.033  1.00  0.00    -0.124 NA
HETATM    3  N   UNL     1       2.919  -3.129   3.538  1.00  0.00    -0.058 NA
HETATM    4  N   UNL     1       2.435  -2.235   2.635  1.00  0.00    -0.191 N 
HETATM    5  C   UNL     1       3.124  -2.406   1.427  1.00  0.00     0.102 C 
ENDROOT
BRANCH   1   6
HETATM    6  C   UNL     1       5.265  -3.711   0.919  1.00  0.00     0.294 C 
HETATM    7  N   UNL     1       6.127  -4.600   1.530  1.00  0.00    -0.242 N 
HETATM    8  H   UNL     1       5.964  -4.895   2.491  1.00  0.00     0.192 HD
HETATM    9  O   UNL     1       5.367  -3.292  -0.234  1.00  0.00    -0.264 OA
BRANCH   7  10
HETATM   10  N   UNL     1       7.202  -5.072   0.840  1.00  0.00    -0.183 NA
HETATM   11  C   UNL     1       7.974  -5.889   1.487  1.00  0.00     0.153 C 
BRANCH  11  12
HETATM   12  C   UNL     1       9.178  -6.470   0.855  1.00  0.00     0.020 A 
HETATM   13  C   UNL     1      10.031  -7.304   1.592  1.00  0.00     0.101 A 
HETATM   14  C   UNL     1      11.126  -7.905   0.953  1.00  0.00     0.069 A 
HETATM   15 CL   UNL     1      12.150  -9.031   1.769  1.00  0.00    -0.081 Cl
HETATM   16  C   UNL     1      11.401  -7.626  -0.388  1.00  0.00     0.050 A 
HETATM   17  C   UNL     1      10.569  -6.764  -1.097  1.00  0.00     0.036 A 
HETATM   18 CL   UNL     1      10.906  -6.420  -2.749  1.00  0.00    -0.084 Cl
HETATM   19  C   UNL     1       9.456  -6.190  -0.489  1.00  0.00     0.039 A 
BRANCH  13  20
HETATM   20  O   UNL     1       9.731  -7.579   2.903  1.00  0.00    -0.353 OA
HETATM   21  C   UNL     1      10.517  -6.773   3.787  1.00  0.00     0.210 C 
ENDBRANCH  13  20
ENDBRANCH  11  12
ENDBRANCH   7  10
ENDBRANCH   1   6
BRANCH   5  22
HETATM   22  C   UNL     1       2.797  -1.658   0.180  1.00  0.00     0.296 C 
BRANCH  22  23
HETATM   23  N   UNL     1       3.164  -2.341  -1.130  1.00  0.00    -0.066 N 
HETATM   24  H   UNL     1       4.146  -2.665  -1.009  1.00  0.00     0.280 HD
HETATM   25  C   UNL     1       2.325  -3.564  -1.390  1.00  0.00     0.235 C 
HETATM   26  C   UNL     1       2.871  -4.413  -2.531  1.00  0.00     0.028 C 
HETATM   27  C   UNL     1       2.619  -3.803  -3.905  1.00  0.00     0.002 C 
HETATM   28  C   UNL     1       3.677  -2.809  -4.366  1.00  0.00     0.002 C 
HETATM   29  C   UNL     1       4.194  -1.805  -3.340  1.00  0.00     0.028 C 
HETATM   30  C   UNL     1       3.198  -1.355  -2.280  1.00  0.00     0.235 C 
ENDBRANCH  22  23
ENDBRANCH   5  22
BRANCH   4  31
HETATM   31  C   UNL     1       1.423  -1.303   2.971  1.00  0.00     0.229 A 
HETATM   32  N   UNL     1       1.056  -0.365   2.096  1.00  0.00    -0.081 NA
HETATM   33  O   UNL     1       0.082   0.367   2.781  1.00  0.00    -0.103 OA
HETATM   34  N   UNL     1      -0.123  -0.141   4.056  1.00  0.00    -0.083 NA
HETATM   35  C   UNL     1       0.711  -1.171   4.177  1.00  0.00     0.201 A 
BRANCH  35  36
HETATM   36  N   UNL     1       0.820  -1.937   5.275  1.00  0.00    -0.379 N 
HETATM   37  H   UNL     1       0.342  -1.661   6.129  1.00  0.00     0.158 HD
HETATM   38  H   UNL     1       1.567  -2.614   5.413  1.00  0.00     0.158 HD
ENDBRANCH  35  36
ENDBRANCH   4  31
TORSDOF 8
