REMARK  4 active torsions:
REMARK  status: ('A' for Active; 'I' for Inactive)
REMARK    1  A    between atoms: C_2  and  O_3 
REMARK    2  A    between atoms: C_2  and  C_12 
REMARK    3  A    between atoms: O_3  and  C_4 
REMARK       I    between atoms: C_12  and  N_13 
REMARK    4  A    between atoms: N_13  and  C_14 
ROOT
HETATM    1  C   UNL     1       1.086  -0.052  -0.347  1.00  0.00     0.050 C 
HETATM    2  C   UNL     1       2.503  -0.054   0.215  1.00  0.00     0.217 C 
ENDROOT
BRANCH   2   3
HETATM    3  O   UNL     1       3.442  -0.029  -0.866  1.00  0.00    -0.336 OA
BRANCH   3   4
HETATM    4  C   UNL     1       3.963  -1.200  -1.343  1.00  0.00     0.087 A 
HETATM    5  C   UNL     1       5.080  -1.089  -2.193  1.00  0.00     0.047 A 
HETATM    6 BR   UNL     1       5.834   0.608  -2.609  1.00  0.00    -0.048 Br
HETATM    7  C   UNL     1       5.675  -2.222  -2.749  1.00  0.00     0.064 A 
HETATM    8  C   UNL     1       5.149  -3.472  -2.458  1.00  0.00     0.117 A 
HETATM    9  F   UNL     1       5.712  -4.564  -2.989  1.00  0.00    -0.206 F 
HETATM   10  C   UNL     1       4.044  -3.607  -1.628  1.00  0.00     0.045 A 
HETATM   11  C   UNL     1       3.447  -2.472  -1.072  1.00  0.00     0.041 A 
ENDBRANCH   3   4
ENDBRANCH   2   3
BRANCH   2  12
HETATM   12  C   UNL     1       2.686   1.211   1.078  1.00  0.00     0.252 C 
HETATM   13  N   UNL     1       3.556   2.121   0.508  1.00  0.00    -0.309 N 
HETATM   14  H   UNL     1       3.994   1.827  -0.358  1.00  0.00     0.170 HD
HETATM   15  O   UNL     1       2.074   1.331   2.136  1.00  0.00    -0.270 OA
BRANCH  13  16
HETATM   16  C   UNL     1       3.898   3.372   1.023  1.00  0.00     0.129 A 
HETATM   17  N   UNL     1       3.344   3.825   2.161  1.00  0.00    -0.242 NA
HETATM   18  C   UNL     1       3.715   5.050   2.604  1.00  0.00     0.142 A 
HETATM   19  C   UNL     1       4.628   5.859   1.952  1.00  0.00     0.051 A 
HETATM   20 CL   UNL     1       5.050   7.402   2.571  1.00  0.00    -0.083 Cl
HETATM   21  C   UNL     1       5.196   5.386   0.778  1.00  0.00     0.029 A 
HETATM   22  C   UNL     1       4.826   4.125   0.305  1.00  0.00     0.052 A 
ENDBRANCH  13  16
ENDBRANCH   2  12
TORSDOF 4
