REMARK  13 active torsions:
REMARK  status: ('A' for Active; 'I' for Inactive)
REMARK    1  A    between atoms: C_2  and  N_3 
REMARK    2  A    between atoms: N_3  and  C_5 
REMARK    3  A    between atoms: N_3  and  C_34 
REMARK    4  A    between atoms: C_5  and  C_6 
REMARK    5  A    between atoms: N_7  and  C_8 
REMARK    6  A    between atoms: C_12  and  N_13 
REMARK    7  A    between atoms: C_16  and  C_17 
REMARK       I    between atoms: C_17  and  N_18 
REMARK    8  A    between atoms: N_18  and  N_19 
REMARK    9  A    between atoms: C_20  and  C_21 
REMARK   10  A    between atoms: C_22  and  O_23 
REMARK   11  A    between atoms: C_25  and  N_26 
REMARK   12  A    between atoms: N_26  and  C_27 
REMARK   13  A    between atoms: N_26  and  C_29 
ROOT
HETATM    1  C   UNL     1       0.601   1.965  -0.848  1.00  0.00     0.096 A 
HETATM    2  N   UNL     1      -0.412   1.052  -1.145  1.00  0.00    -0.215 N 
HETATM    3  N   UNL     1      -1.588   1.733  -1.241  1.00  0.00     0.012 NA
HETATM    4  N   UNL     1      -1.393   3.000  -0.918  1.00  0.00    -0.152 NA
HETATM    5  C   UNL     1      -0.070   3.165  -0.651  1.00  0.00     0.170 A 
ENDROOT
BRANCH   5   6
HETATM    6  C   UNL     1       0.523   4.423  -0.223  1.00  0.00     0.293 C 
HETATM    7  N   UNL     1      -0.312   5.516  -0.346  1.00  0.00    -0.242 N 
HETATM    8  H   UNL     1      -1.260   5.400  -0.699  1.00  0.00     0.192 HD
HETATM    9  O   UNL     1       1.673   4.435   0.215  1.00  0.00    -0.264 OA
BRANCH   7  10
HETATM   10  N   UNL     1       0.152   6.754  -0.022  1.00  0.00    -0.183 NA
HETATM   11  C   UNL     1      -0.690   7.731  -0.164  1.00  0.00     0.153 C 
BRANCH  11  12
HETATM   12  C   UNL     1      -0.301   9.121   0.146  1.00  0.00     0.016 A 
HETATM   13  C   UNL     1       0.986   9.464   0.559  1.00  0.00     0.079 A 
HETATM   14  C   UNL     1       1.305  10.794   0.850  1.00  0.00     0.066 A 
HETATM   15  C   UNL     1       0.362  11.832   0.743  1.00  0.00     0.032 A 
HETATM   16  C   UNL     1      -0.925  11.452   0.318  1.00  0.00     0.030 A 
HETATM   17  C   UNL     1      -1.260  10.122   0.022  1.00  0.00     0.018 A 
BRANCH  13  18
HETATM   18  O   UNL     1       1.995   8.547   0.703  1.00  0.00    -0.360 OA
HETATM   19  H   UNL     1       1.626   7.664   0.489  1.00  0.00     0.217 HD
ENDBRANCH  13  18
BRANCH  15  20
HETATM   20  N   UNL     1       0.677  13.151   1.048  1.00  0.00    -0.382 N 
BRANCH  20  21
HETATM   21  C   UNL     1      -0.124  14.274   0.540  1.00  0.00     0.118 C 
HETATM   22  C   UNL     1      -1.108  14.770   1.588  1.00  0.00     0.026 C 
ENDBRANCH  20  21
BRANCH  20  23
HETATM   23  C   UNL     1       1.855  13.503   1.857  1.00  0.00     0.118 C 
HETATM   24  C   UNL     1       1.682  13.087   3.312  1.00  0.00     0.026 C 
ENDBRANCH  20  23
ENDBRANCH  15  20
ENDBRANCH  11  12
ENDBRANCH   7  10
ENDBRANCH   5   6
BRANCH   1  25
HETATM   25  C   UNL     1       2.062   1.696  -0.843  1.00  0.00     0.296 C 
BRANCH  25  26
HETATM   26  N   UNL     1       2.749   1.962   0.485  1.00  0.00    -0.066 N 
HETATM   27  H   UNL     1       2.470   2.928   0.753  1.00  0.00     0.280 HD
BRANCH  26  28
HETATM   28  C   UNL     1       4.262   1.987   0.335  1.00  0.00     0.231 C 
HETATM   29  C   UNL     1       4.734   3.339  -0.170  1.00  0.00     0.034 C 
ENDBRANCH  26  28
BRANCH  26  30
HETATM   30  C   UNL     1       2.296   1.007   1.568  1.00  0.00     0.231 C 
HETATM   31  C   UNL     1       2.537   1.597   2.947  1.00  0.00     0.034 C 
ENDBRANCH  26  30
ENDBRANCH  25  26
ENDBRANCH   1  25
BRANCH   2  32
HETATM   32  C   UNL     1      -0.349  -0.356  -1.277  1.00  0.00     0.225 A 
HETATM   33  N   UNL     1       0.790  -1.005  -1.027  1.00  0.00    -0.081 NA
HETATM   34  O   UNL     1       0.460  -2.348  -1.230  1.00  0.00    -0.103 OA
HETATM   35  N   UNL     1      -0.877  -2.489  -1.572  1.00  0.00    -0.083 NA
HETATM   36  C   UNL     1      -1.380  -1.257  -1.599  1.00  0.00     0.201 A 
BRANCH  36  37
HETATM   37  N   UNL     1      -2.657  -0.963  -1.887  1.00  0.00    -0.379 N 
HETATM   38  H   UNL     1      -3.336  -1.710  -2.011  1.00  0.00     0.158 HD
HETATM   39  H   UNL     1      -3.061  -0.034  -1.785  1.00  0.00     0.158 HD
ENDBRANCH  36  37
ENDBRANCH   2  32
TORSDOF 13
