REMARK  6 active torsions:
REMARK  status: ('A' for Active; 'I' for Inactive)
REMARK    1  A    between atoms: C_3  and  N_4 
REMARK    2  A    between atoms: N_4  and  C_5 
REMARK    3  A    between atoms: C_5  and  C_6 
REMARK    4  A    between atoms: N_8  and  C_10 
REMARK    5  A    between atoms: C_10  and  C_11 
REMARK    6  A    between atoms: C_16  and  O_17 
ROOT
HETATM    1  C   UNL     1       4.995  -0.524  -0.455  1.00  0.00     0.031 C 
HETATM    2  C   UNL     1       6.027  -1.469   0.156  1.00  0.00     0.241 C 
HETATM    3  N   UNL     1       7.260  -0.610   0.343  1.00  0.00    -0.067 N 
HETATM    4  H   UNL     1       7.584  -0.730   1.315  1.00  0.00     0.280 HD
HETATM    5  C   UNL     1       6.844   0.839   0.179  1.00  0.00     0.235 C 
HETATM    6  C   UNL     1       5.326   0.795   0.238  1.00  0.00     0.035 C 
ENDROOT
BRANCH   3   7
HETATM    7  C   UNL     1       8.437  -1.022  -0.514  1.00  0.00     0.274 C 
BRANCH   7   8
HETATM    8  C   UNL     1       9.687  -0.232  -0.243  1.00  0.00    -0.013 A 
HETATM    9  C   UNL     1      10.435  -0.361   0.940  1.00  0.00     0.019 A 
HETATM   10 BR   UNL     1       9.908  -1.546   2.327  1.00  0.00    -0.051 Br
HETATM   11  C   UNL     1      11.592   0.400   1.142  1.00  0.00     0.022 A 
HETATM   12  C   UNL     1      12.016   1.307   0.170  1.00  0.00     0.038 A 
HETATM   13  C   UNL     1      11.277   1.444  -0.995  1.00  0.00     0.066 A 
HETATM   14  C   UNL     1      10.129   0.687  -1.210  1.00  0.00     0.046 A 
BRANCH  13  15
HETATM   15  O   UNL     1      11.633   2.320  -1.973  1.00  0.00    -0.361 OA
HETATM   16  H   UNL     1      12.489   2.729  -1.749  1.00  0.00     0.217 HD
ENDBRANCH  13  15
ENDBRANCH   7   8
ENDBRANCH   3   7
BRANCH   1  17
HETATM   17  C   UNL     1       3.553  -0.999  -0.245  1.00  0.00     0.127 C 
BRANCH  17  18
HETATM   18  N   UNL     1       2.618  -0.125  -0.961  1.00  0.00    -0.376 N 
HETATM   19  H   UNL     1       2.958   0.227  -1.851  1.00  0.00     0.161 HD
BRANCH  18  20
HETATM   20  C   UNL     1       1.249  -0.322  -0.859  1.00  0.00     0.100 A 
HETATM   21  C   UNL     1       0.616  -0.972   0.209  1.00  0.00     0.048 A 
HETATM   22  C   UNL     1      -0.773  -1.101   0.235  1.00  0.00     0.005 A 
HETATM   23  C   UNL     1      -1.531  -0.568  -0.797  1.00  0.00     0.017 A 
HETATM   24  C   UNL     1      -0.880   0.089  -1.826  1.00  0.00     0.089 A 
HETATM   25  N   UNL     1       0.459   0.194  -1.820  1.00  0.00    -0.353 N 
HETATM   26  H   UNL     1       0.898   0.705  -2.579  1.00  0.00     0.166 HD
ENDBRANCH  18  20
ENDBRANCH  17  18
ENDBRANCH   1  17
TORSDOF 6
