REMARK  7 active torsions:
REMARK  status: ('A' for Active; 'I' for Inactive)
REMARK    1  A    between atoms: C_2  and  O_3 
REMARK    2  A    between atoms: O_3  and  C_4 
REMARK    3  A    between atoms: C_4  and  C_5 
REMARK    4  A    between atoms: C_6  and  C_7 
REMARK    5  A    between atoms: C_18  and  S_19 
REMARK    6  A    between atoms: S_19  and  C_20 
REMARK    7  A    between atoms: C_20  and  C_21 
ROOT
HETATM    1  C   UNL     1       5.247   0.263  -0.283  1.00  0.00     0.070 A 
HETATM    2  C   UNL     1       6.294   0.984   0.562  1.00  0.00     0.203 A 
HETATM    3  N   UNL     1       7.144   0.033   1.290  1.00  0.00    -0.082 N 
HETATM    4  C   UNL     1       7.019  -1.326   1.213  1.00  0.00     0.726 A 
HETATM    5  N   UNL     1       6.066  -1.856   0.426  1.00  0.00    -0.192 N 
HETATM    6  N   UNL     1       8.187   0.384   2.066  1.00  0.00    -0.128 NA
HETATM    7  C   UNL     1       8.596  -0.815   2.497  1.00  0.00     0.226 A 
HETATM    8  N   UNL     1       7.920  -1.891   1.976  1.00  0.00    -0.035 NA
HETATM    9  C   UNL     1       5.177  -1.092  -0.323  1.00  0.00     0.037 A 
HETATM   10  C   UNL     1       4.199  -1.874  -1.167  1.00  0.00     0.070 C 
HETATM   11  H   UNL     1       5.975  -2.867   0.378  1.00  0.00     0.184 HD
ENDROOT
BRANCH   7  12
HETATM   12  S   UNL     1       9.885  -0.949   3.657  1.00  0.00    -0.083 SA
BRANCH  12  13
HETATM   13  C   UNL     1      10.192  -2.735   3.601  1.00  0.00     0.121 C 
BRANCH  13  14
HETATM   14  C   UNL     1      11.225  -3.154   4.622  1.00  0.00    -0.048 A 
HETATM   15  C   UNL     1      12.582  -2.841   4.438  1.00  0.00     0.020 A 
HETATM   16  C   UNL     1      13.549  -3.200   5.391  1.00  0.00    -0.025 A 
HETATM   17  C   UNL     1      13.151  -3.901   6.551  1.00  0.00    -0.026 A 
HETATM   18  C   UNL     1      14.904  -2.871   5.220  1.00  0.00     0.012 A 
HETATM   19  C   UNL     1      11.796  -4.219   6.728  1.00  0.00     0.013 A 
HETATM   20  C   UNL     1      14.118  -4.257   7.506  1.00  0.00     0.012 A 
HETATM   21  C   UNL     1      10.843  -3.846   5.777  1.00  0.00     0.009 A 
HETATM   22  C   UNL     1      15.460  -3.922   7.320  1.00  0.00     0.001 A 
HETATM   23  C   UNL     1      15.853  -3.229   6.179  1.00  0.00     0.001 A 
ENDBRANCH  13  14
ENDBRANCH  12  13
ENDBRANCH   7  12
BRANCH   2  24
HETATM   24  C   UNL     1       5.708   2.003   1.540  1.00  0.00    -0.028 A 
HETATM   25  C   UNL     1       4.657   1.673   2.414  1.00  0.00     0.012 A 
HETATM   26  C   UNL     1       4.143   2.630   3.292  1.00  0.00     0.043 A 
HETATM   27  C   UNL     1       4.681   3.911   3.308  1.00  0.00     0.116 A 
HETATM   28  F   UNL     1       4.185   4.826   4.151  1.00  0.00    -0.206 F 
HETATM   29  C   UNL     1       5.728   4.256   2.464  1.00  0.00     0.043 A 
HETATM   30  C   UNL     1       6.243   3.305   1.583  1.00  0.00     0.012 A 
ENDBRANCH   2  24
BRANCH   1  31
HETATM   31  C   UNL     1       4.272   1.109  -1.007  1.00  0.00     0.293 C 
HETATM   32  O   UNL     1       3.098   0.817  -1.168  1.00  0.00    -0.259 OA
BRANCH  31  33
HETATM   33  O   UNL     1       4.873   2.250  -1.425  1.00  0.00    -0.318 OA
BRANCH  33  34
HETATM   34  C   UNL     1       4.007   3.204  -2.062  1.00  0.00     0.174 C 
HETATM   35  C   UNL     1       3.259   4.023  -1.025  1.00  0.00     0.034 C 
ENDBRANCH  33  34
ENDBRANCH  31  33
ENDBRANCH   1  31
TORSDOF 7
