REMARK  3 active torsions:
REMARK  status: ('A' for Active; 'I' for Inactive)
REMARK    1  A    between atoms: C_2  and  C_3 
REMARK    2  A    between atoms: C_10  and  C_12 
REMARK    3  A    between atoms: C_10  and  O_11 
ROOT
HETATM    1  C   UNL     1       2.675   1.150   1.142  1.00  0.00    -0.058 A 
HETATM    2  C   UNL     1       2.348   2.396   0.584  1.00  0.00     0.020 A 
HETATM    3  C   UNL     1       2.764   3.546   1.238  1.00  0.00     0.018 A 
HETATM    4  C   UNL     1       3.473   3.458   2.438  1.00  0.00     0.045 A 
HETATM    5  N   UNL     1       3.798   4.723   2.903  1.00  0.00    -0.323 N 
HETATM    6  C   UNL     1       3.342   5.720   2.038  1.00  0.00     0.266 A 
HETATM    7  O   UNL     1       3.496   6.917   2.229  1.00  0.00    -0.269 OA
HETATM    8  C   UNL     1       2.567   5.002   0.875  1.00  0.00     0.198 A 
HETATM    9  C   UNL     1       3.799   2.252   3.019  1.00  0.00     0.031 A 
HETATM   10  C   UNL     1       3.398   1.089   2.355  1.00  0.00     0.009 A 
HETATM   11  H   UNL     1       4.323   4.932   3.739  1.00  0.00     0.169 HD
ENDROOT
BRANCH   8  12
HETATM   12  C   UNL     1       3.187   5.225  -0.481  1.00  0.00     0.018 A 
HETATM   13  C   UNL     1       4.538   4.962  -0.920  1.00  0.00     0.002 A 
HETATM   14  C   UNL     1       4.620   5.318  -2.268  1.00  0.00     0.043 A 
HETATM   15  C   UNL     1       5.700   4.444  -0.307  1.00  0.00     0.014 A 
HETATM   16  C   UNL     1       5.789   5.177  -3.027  1.00  0.00     0.030 A 
HETATM   17  N   UNL     1       3.389   5.801  -2.638  1.00  0.00    -0.365 N 
HETATM   18  C   UNL     1       6.918   4.654  -2.393  1.00  0.00     0.002 A 
HETATM   19  C   UNL     1       6.877   4.293  -1.051  1.00  0.00     0.001 A 
HETATM   20  H   UNL     1       3.162   6.146  -3.560  1.00  0.00     0.165 HD
HETATM   21  C   UNL     1       2.525   5.746  -1.584  1.00  0.00     0.100 A 
ENDBRANCH   8  12
BRANCH   8  22
HETATM   22  O   UNL     1       1.172   5.300   0.900  1.00  0.00    -0.371 OA
HETATM   23  H   UNL     1       0.806   4.837   1.671  1.00  0.00     0.212 HD
ENDBRANCH   8  22
BRANCH   1  24
HETATM   24  C   UNL     1       2.295  -0.120   0.420  1.00  0.00     0.034 C 
HETATM   25  C   UNL     1       3.294  -0.462  -0.676  1.00  0.00     0.010 C 
ENDBRANCH   1  24
TORSDOF 3
