REMARK  5 active torsions:
REMARK  status: ('A' for Active; 'I' for Inactive)
REMARK    1  A    between atoms: C_7  and  C_8 
REMARK    2  A    between atoms: N_9  and  N_10 
REMARK       I    between atoms: N_10  and  C_11 
REMARK    3  A    between atoms: C_11  and  C_12 
REMARK    4  A    between atoms: C_12  and  N_13 
REMARK    5  A    between atoms: N_13  and  C_14 
ROOT
HETATM    1  N   UNL     1       3.005  -4.663  -0.101  1.00  0.00    -0.246 N 
HETATM    2  C   UNL     1       1.834  -5.136   0.485  1.00  0.00     0.250 C 
HETATM    3  O   UNL     1       0.927  -4.444   0.945  1.00  0.00    -0.270 OA
HETATM    4  H   UNL     1       3.733  -5.332  -0.336  1.00  0.00     0.192 HD
ENDROOT
BRANCH   1   5
HETATM    5  N   UNL     1       3.453  -3.364  -0.063  1.00  0.00    -0.184 NA
HETATM    6  C   UNL     1       2.587  -2.401  -0.040  1.00  0.00     0.153 C 
BRANCH   6   7
HETATM    7  C   UNL     1       3.031  -1.020   0.082  1.00  0.00     0.018 A 
HETATM    8  C   UNL     1       4.338  -0.552   0.154  1.00  0.00     0.018 A 
HETATM    9  C   UNL     1       5.640  -1.269   0.127  1.00  0.00     0.069 C 
HETATM   10  N   UNL     1       4.286   0.815   0.272  1.00  0.00    -0.358 N 
HETATM   11  H   UNL     1       5.090   1.422   0.347  1.00  0.00     0.166 HD
HETATM   12  C   UNL     1       2.985   1.255   0.283  1.00  0.00     0.043 A 
HETATM   13  C   UNL     1       2.172   0.129   0.164  1.00  0.00     0.004 A 
HETATM   14  C   UNL     1       2.475   2.554   0.393  1.00  0.00     0.030 A 
HETATM   15  C   UNL     1       0.772   0.314   0.157  1.00  0.00     0.014 A 
HETATM   16  C   UNL     1       0.244   1.606   0.266  1.00  0.00     0.001 A 
HETATM   17  C   UNL     1       1.086   2.709   0.382  1.00  0.00     0.002 A 
ENDBRANCH   6   7
ENDBRANCH   1   5
BRANCH   2  18
HETATM   18  C   UNL     1       1.743  -6.667   0.500  1.00  0.00     0.197 C 
BRANCH  18  19
HETATM   19  N   UNL     1       0.958  -7.167  -0.634  1.00  0.00    -0.282 NA
HETATM   20  H   UNL     1       0.116  -6.598  -0.771  1.00  0.00     0.128 HD
BRANCH  19  21
HETATM   21  C   UNL     1       1.609  -7.369  -1.862  1.00  0.00     0.047 A 
HETATM   22  C   UNL     1       0.987  -6.969  -3.057  1.00  0.00     0.137 A 
HETATM   23  F   UNL     1      -0.193  -6.330  -3.000  1.00  0.00    -0.204 F 
HETATM   24  C   UNL     1       1.563  -7.200  -4.304  1.00  0.00     0.044 A 
HETATM   25  C   UNL     1       2.782  -7.867  -4.382  1.00  0.00     0.003 A 
HETATM   26  C   UNL     1       3.407  -8.302  -3.214  1.00  0.00     0.002 A 
HETATM   27  C   UNL     1       2.821  -8.062  -1.965  1.00  0.00     0.026 A 
ENDBRANCH  19  21
ENDBRANCH  18  19
ENDBRANCH   2  18
TORSDOF 5
