REMARK  5 active torsions:
REMARK  status: ('A' for Active; 'I' for Inactive)
REMARK    1  A    between atoms: C_2  and  O_3 
REMARK    2  A    between atoms: O_3  and  C_4 
REMARK    3  A    between atoms: C_6  and  C_7 
REMARK    4  A    between atoms: C_7  and  N_8 
REMARK       I    between atoms: N_8  and  C_9 
REMARK       I    between atoms: C_9  and  N_10 
REMARK    5  A    between atoms: N_10  and  C_11 
ROOT
HETATM    1  N   UNL     1       7.844   4.425  -0.203  1.00  0.00    -0.335 N 
HETATM    2  C   UNL     1       8.247   3.276  -0.813  1.00  0.00     0.321 C 
HETATM    3  N   UNL     1       7.837   2.109  -0.233  1.00  0.00    -0.307 N 
HETATM    4  O   UNL     1       8.950   3.383  -1.813  1.00  0.00    -0.247 OA
HETATM    5  H   UNL     1       8.265   5.236  -0.639  1.00  0.00     0.165 HD
HETATM    6  H   UNL     1       7.695   2.180   0.760  1.00  0.00     0.170 HD
ENDROOT
BRANCH   1   7
HETATM    7  C   UNL     1       7.117   4.659   1.040  1.00  0.00     0.115 C 
HETATM    8  C   UNL     1       5.983   5.652   0.771  1.00  0.00     0.037 C 
BRANCH   7   9
HETATM    9  C   UNL     1       8.100   5.071   2.126  1.00  0.00    -0.033 A 
HETATM   10  C   UNL     1       8.984   4.107   2.646  1.00  0.00     0.046 A 
HETATM   11  C   UNL     1       9.948   4.430   3.605  1.00  0.00     0.069 A 
HETATM   12  C   UNL     1      10.018   5.730   4.094  1.00  0.00     0.037 A 
HETATM   13  C   UNL     1       9.149   6.702   3.598  1.00  0.00     0.003 A 
HETATM   14  C   UNL     1       8.206   6.380   2.617  1.00  0.00     0.009 A 
BRANCH  11  15
HETATM   15  O   UNL     1      10.743   3.387   3.990  1.00  0.00    -0.352 OA
BRANCH  15  16
HETATM   16  C   UNL     1      12.013   3.733   4.540  1.00  0.00     0.171 C 
HETATM   17  C   UNL     1      12.879   2.486   4.523  1.00  0.00     0.034 C 
ENDBRANCH  15  16
ENDBRANCH  11  15
ENDBRANCH   7   9
ENDBRANCH   1   7
BRANCH   3  18
HETATM   18  C   UNL     1       8.118   0.799  -0.694  1.00  0.00     0.059 A 
HETATM   19  C   UNL     1       8.161   0.378  -2.030  1.00  0.00    -0.032 A 
HETATM   20  C   UNL     1       7.818   1.240  -3.212  1.00  0.00     0.050 C 
HETATM   21  C   UNL     1       8.521  -0.956  -2.295  1.00  0.00     0.028 A 
HETATM   22  C   UNL     1       8.753  -1.827  -1.243  1.00  0.00     0.117 A 
HETATM   23  N   UNL     1       8.647  -1.474   0.050  1.00  0.00    -0.271 NA
HETATM   24  C   UNL     1       8.333  -0.179   0.287  1.00  0.00     0.146 A 
ENDBRANCH   3  18
TORSDOF 5
