REMARK  4 active torsions:
REMARK  status: ('A' for Active; 'I' for Inactive)
REMARK    1  A    between atoms: C_2  and  C_3 
REMARK    2  A    between atoms: C_5  and  C_6 
REMARK       I    between atoms: C_6  and  N_7 
REMARK    3  A    between atoms: N_7  and  C_8 
REMARK    4  A    between atoms: C_10  and  C_11 
ROOT
HETATM    1  C   UNL     1       2.443   4.610   0.908  1.00  0.00     0.035 A 
HETATM    2  C   UNL     1       2.599   3.543   0.018  1.00  0.00     0.042 A 
HETATM    3  C   UNL     1       2.244   3.670  -1.337  1.00  0.00    -0.021 A 
HETATM    4  C   UNL     1       1.708   4.884  -1.784  1.00  0.00     0.012 A 
HETATM    5  C   UNL     1       1.543   5.952  -0.902  1.00  0.00     0.003 A 
HETATM    6  C   UNL     1       1.913   5.816   0.436  1.00  0.00     0.029 A 
ENDROOT
BRANCH   1   7
HETATM    7  N   UNL     1       2.803   4.560   2.268  1.00  0.00    -0.321 N 
HETATM    8  C   UNL     1       3.297   3.488   2.991  1.00  0.00     0.279 C 
HETATM    9  O   UNL     1       3.464   2.352   2.560  1.00  0.00    -0.265 OA
HETATM   10  H   UNL     1       2.695   5.413   2.807  1.00  0.00     0.169 HD
BRANCH   8  11
HETATM   11  C   UNL     1       3.608   3.841   4.366  1.00  0.00     0.143 A 
HETATM   12  O   UNL     1       3.488   5.148   4.769  1.00  0.00    -0.310 OA
HETATM   13  C   UNL     1       3.866   5.202   6.078  1.00  0.00     0.053 A 
HETATM   14  C   UNL     1       4.207   3.945   6.527  1.00  0.00     0.036 A 
HETATM   15  C   UNL     1       4.045   3.071   5.426  1.00  0.00     0.045 A 
BRANCH  13  16
HETATM   16  C   UNL     1       3.846   6.540   6.718  1.00  0.00     0.060 C 
HETATM   17  C   UNL     1       5.165   7.270   6.515  1.00  0.00     0.012 C 
ENDBRANCH  13  16
ENDBRANCH   8  11
ENDBRANCH   1   7
BRANCH   3  18
HETATM   18  C   UNL     1       2.429   2.569  -2.270  1.00  0.00     0.010 A 
HETATM   19  C   UNL     1       1.783   2.268  -3.493  1.00  0.00     0.152 A 
HETATM   20  N   UNL     1       2.259   1.163  -4.076  1.00  0.00    -0.187 NA
HETATM   21  N   UNL     1       3.212   0.748  -3.226  1.00  0.00    -0.289 N 
HETATM   22  H   UNL     1       3.729  -0.093  -3.456  1.00  0.00     0.188 HD
HETATM   23  C   UNL     1       3.357   1.556  -2.136  1.00  0.00     0.123 A 
ENDBRANCH   3  18
TORSDOF 4
