REMARK  6 active torsions:
REMARK  status: ('A' for Active; 'I' for Inactive)
REMARK    1  A    between atoms: C_4  and  N_5 
REMARK    2  A    between atoms: C_6  and  S_7 
REMARK    3  A    between atoms: S_7  and  C_8 
REMARK    4  A    between atoms: C_8  and  C_9 
REMARK       I    between atoms: C_9  and  N_10 
REMARK    5  A    between atoms: N_10  and  C_11 
REMARK    6  A    between atoms: C_24  and  C_25 
ROOT
HETATM    1  N   UNL     1       2.616   0.148   0.331  1.00  0.00    -0.271 N 
HETATM    2  C   UNL     1       3.407   1.246   0.641  1.00  0.00     0.197 A 
HETATM    3  N   UNL     1       4.672   0.975   0.422  1.00  0.00    -0.122 NA
HETATM    4  N   UNL     1       4.755  -0.305  -0.037  1.00  0.00    -0.128 NA
HETATM    5  C   UNL     1       3.540  -0.826  -0.063  1.00  0.00     0.169 A 
ENDROOT
BRANCH   2   6
HETATM    6  S   UNL     1       2.838   2.830   1.073  1.00  0.00    -0.080 SA
BRANCH   6   7
HETATM    7  C   UNL     1       4.378   3.783   0.891  1.00  0.00     0.185 C 
BRANCH   7   8
HETATM    8  C   UNL     1       4.166   5.230   1.305  1.00  0.00     0.231 C 
HETATM    9  N   UNL     1       3.823   5.367   2.643  1.00  0.00    -0.326 N 
HETATM   10  H   UNL     1       3.610   4.507   3.135  1.00  0.00     0.169 HD
HETATM   11  O   UNL     1       4.345   6.147   0.508  1.00  0.00    -0.272 OA
BRANCH   9  12
HETATM   12  C   UNL     1       3.670   6.564   3.374  1.00  0.00     0.037 A 
HETATM   13  C   UNL     1       3.957   7.831   2.852  1.00  0.00     0.061 A 
HETATM   14  C   UNL     1       3.783   8.910   3.690  1.00  0.00     0.065 A 
HETATM   15  C   UNL     1       3.339   8.774   5.002  1.00  0.00     0.063 A 
HETATM   16  N   UNL     1       3.997  10.263   3.449  1.00  0.00    -0.306 N 
HETATM   17  N   UNL     1       3.277  10.042   5.568  1.00  0.00    -0.307 N 
HETATM   18  C   UNL     1       3.045   7.551   5.548  1.00  0.00     0.034 A 
HETATM   19  C   UNL     1       3.686  10.983   4.611  1.00  0.00     0.325 A 
HETATM   20  H   UNL     1       2.996  10.284   6.504  1.00  0.00     0.170 HD
HETATM   21  O   UNL     1       3.759  12.189   4.765  1.00  0.00    -0.247 OA
HETATM   22  C   UNL     1       3.219   6.435   4.716  1.00  0.00     0.032 A 
HETATM   23  H   UNL     1       4.322  10.685   2.594  1.00  0.00     0.170 HD
ENDBRANCH   9  12
ENDBRANCH   7   8
ENDBRANCH   6   7
ENDBRANCH   2   6
BRANCH   1  24
HETATM   24  C   UNL     1       1.197   0.028   0.365  1.00  0.00     0.043 A 
HETATM   25  C   UNL     1       0.528  -0.664  -0.655  1.00  0.00     0.030 A 
HETATM   26  C   UNL     1      -0.861  -0.805  -0.614  1.00  0.00     0.002 A 
HETATM   27  C   UNL     1      -1.589  -0.258   0.440  1.00  0.00     0.000 A 
HETATM   28  C   UNL     1      -0.930   0.432   1.456  1.00  0.00     0.002 A 
HETATM   29  C   UNL     1       0.459   0.577   1.422  1.00  0.00     0.030 A 
ENDBRANCH   1  24
BRANCH   5  30
HETATM   30  C   UNL     1       3.281  -2.234  -0.377  1.00  0.00     0.012 A 
HETATM   31  C   UNL     1       2.514  -3.051   0.467  1.00  0.00     0.017 A 
HETATM   32  C   UNL     1       2.300  -4.396   0.150  1.00  0.00     0.025 A 
HETATM   33  C   UNL     1       2.864  -4.935  -1.004  1.00  0.00     0.034 A 
HETATM   34 CL   UNL     1       2.600  -6.589  -1.393  1.00  0.00    -0.084 Cl
HETATM   35  C   UNL     1       3.647  -4.143  -1.841  1.00  0.00     0.025 A 
HETATM   36  C   UNL     1       3.859  -2.799  -1.524  1.00  0.00     0.017 A 
ENDBRANCH   5  30
TORSDOF 6
