REMARK  7 active torsions:
REMARK  status: ('A' for Active; 'I' for Inactive)
REMARK    1  A    between atoms: C_4  and  C_5 
REMARK    2  A    between atoms: C_5  and  C_6 
REMARK       I    between atoms: C_6  and  N_7 
REMARK    3  A    between atoms: N_7  and  C_8 
REMARK    4  A    between atoms: C_11  and  C_12 
REMARK       I    between atoms: C_12  and  N_13 
REMARK    5  A    between atoms: N_13  and  C_14 
REMARK    6  A    between atoms: C_15  and  C_16 
REMARK       I    between atoms: C_16  and  N_17 
REMARK    7  A    between atoms: N_20  and  C_21 
ROOT
HETATM    1  C   UNL     1      -3.090  -3.021   2.058  1.00  0.00     0.256 C 
HETATM    2  N   UNL     1      -3.952  -3.434   1.037  1.00  0.00    -0.322 N 
HETATM    3  O   UNL     1      -1.941  -3.436   2.201  1.00  0.00    -0.267 OA
HETATM    4  H   UNL     1      -4.913  -3.519   1.339  1.00  0.00     0.169 HD
ENDROOT
BRANCH   2   5
HETATM    5  C   UNL     1      -3.496  -4.430   0.136  1.00  0.00     0.050 C 
HETATM    6  C   UNL     1      -2.369  -4.289  -0.704  1.00  0.00     0.059 C 
HETATM    7  C   UNL     1      -1.799  -5.461  -1.227  1.00  0.00     0.019 C 
HETATM    8  C   UNL     1      -2.432  -6.701  -1.095  1.00  0.00     0.001 C 
HETATM    9  C   UNL     1      -3.638  -6.793  -0.413  1.00  0.00     0.002 C 
HETATM   10  C   UNL     1      -4.164  -5.665   0.212  1.00  0.00     0.030 C 
BRANCH   6  11
HETATM   11  C   UNL     1      -1.795  -2.940  -1.066  1.00  0.00     0.256 C 
HETATM   12  N   UNL     1      -1.298  -2.682  -2.361  1.00  0.00    -0.345 N 
HETATM   13  C   UNL     1      -1.339  -3.593  -3.518  1.00  0.00     0.146 C 
HETATM   14  C   UNL     1      -0.347  -1.562  -2.478  1.00  0.00     0.146 C 
HETATM   15  C   UNL     1      -1.282  -2.887  -4.889  1.00  0.00     0.143 C 
HETATM   16  N   UNL     1      -0.161  -1.928  -4.907  1.00  0.00    -0.378 N 
HETATM   17  C   UNL     1      -0.313  -0.897  -3.865  1.00  0.00     0.143 C 
HETATM   18  O   UNL     1      -1.794  -2.031  -0.236  1.00  0.00    -0.267 OA
BRANCH  16  19
HETATM   19  C   UNL     1       0.293  -1.558  -6.174  1.00  0.00     0.030 A 
HETATM   20  C   UNL     1       0.269  -0.242  -6.655  1.00  0.00     0.029 A 
HETATM   21  C   UNL     1       0.783   0.084  -7.916  1.00  0.00     0.002 A 
HETATM   22  C   UNL     1       1.340  -0.903  -8.723  1.00  0.00     0.000 A 
HETATM   23  C   UNL     1       1.381  -2.216  -8.269  1.00  0.00     0.002 A 
HETATM   24  C   UNL     1       0.861  -2.535  -7.011  1.00  0.00     0.029 A 
ENDBRANCH  16  19
ENDBRANCH   6  11
ENDBRANCH   2   5
BRANCH   1  25
HETATM   25  C   UNL     1      -3.669  -2.145   3.124  1.00  0.00     0.032 A 
HETATM   26  C   UNL     1      -4.942  -1.571   3.049  1.00  0.00     0.019 A 
HETATM   27  C   UNL     1      -5.463  -0.856   4.140  1.00  0.00     0.030 A 
HETATM   28  C   UNL     1      -4.713  -0.685   5.305  1.00  0.00     0.034 A 
HETATM   29  C   UNL     1      -3.415  -1.203   5.352  1.00  0.00     0.030 A 
HETATM   30  C   UNL     1      -2.901  -1.930   4.276  1.00  0.00     0.019 A 
BRANCH  28  31
HETATM   31  N   UNL     1      -5.182  -0.041   6.467  1.00  0.00    -0.327 N 
HETATM   32  C   UNL     1      -6.456   0.445   6.712  1.00  0.00     0.226 C 
HETATM   33  O   UNL     1      -7.395   0.462   5.922  1.00  0.00    -0.273 OA
HETATM   34  H   UNL     1      -4.514   0.045   7.222  1.00  0.00     0.169 HD
BRANCH  32  35
HETATM   35  C   UNL     1      -6.622   0.954   8.138  1.00  0.00     0.141 C 
BRANCH  35  36
HETATM   36  C   UNL     1      -6.241   2.403   8.290  1.00  0.00    -0.050 A 
HETATM   37  C   UNL     1      -7.133   3.408   7.890  1.00  0.00     0.007 A 
HETATM   38  C   UNL     1      -6.789   4.753   8.023  1.00  0.00     0.001 A 
HETATM   39  C   UNL     1      -5.549   5.108   8.549  1.00  0.00     0.000 A 
HETATM   40  C   UNL     1      -4.651   4.117   8.943  1.00  0.00     0.001 A 
HETATM   41  C   UNL     1      -4.994   2.770   8.815  1.00  0.00     0.007 A 
ENDBRANCH  35  36
ENDBRANCH  32  35
ENDBRANCH  28  31
ENDBRANCH   1  25
TORSDOF 7
