REMARK  3 active torsions:
REMARK  status: ('A' for Active; 'I' for Inactive)
REMARK    1  A    between atoms: C_2  and  C_3 
REMARK    2  A    between atoms: C_5  and  N_6 
REMARK       I    between atoms: N_6  and  C_7 
REMARK    3  A    between atoms: C_7  and  C_8 
ROOT
HETATM    1  C   UNL     1       6.502  -0.605   2.169  1.00  0.00     0.155 A 
HETATM    2  N   UNL     1       5.199  -0.427   1.839  1.00  0.00    -0.168 NA
HETATM    3  N   UNL     1       4.947   0.858   2.178  1.00  0.00    -0.276 N 
HETATM    4  H   UNL     1       4.015   1.225   2.022  1.00  0.00     0.189 HD
HETATM    5  C   UNL     1       6.025   1.493   2.705  1.00  0.00     0.074 A 
HETATM    6  C   UNL     1       7.048   0.585   2.703  1.00  0.00     0.031 A 
HETATM    7  C   UNL     1       8.393   0.926   3.215  1.00  0.00     0.219 A 
HETATM    8  O   UNL     1       8.570   2.309   3.637  1.00  0.00    -0.346 OA
HETATM    9  C   UNL     1       7.488   3.163   3.658  1.00  0.00     0.081 A 
HETATM   10  C   UNL     1       6.194   2.832   3.208  1.00  0.00     0.026 A 
HETATM   11  C   UNL     1       7.739   4.439   4.162  1.00  0.00     0.038 A 
HETATM   12  C   UNL     1       6.711   5.381   4.226  1.00  0.00     0.003 A 
HETATM   13  C   UNL     1       5.429   5.050   3.783  1.00  0.00     0.001 A 
HETATM   14  C   UNL     1       5.167   3.776   3.272  1.00  0.00     0.016 A 
ENDROOT
BRANCH   1  15
HETATM   15  C   UNL     1       7.187  -1.898   1.983  1.00  0.00     0.277 C 
HETATM   16  N   UNL     1       6.342  -2.851   1.454  1.00  0.00    -0.322 N 
HETATM   17  H   UNL     1       5.405  -2.498   1.269  1.00  0.00     0.169 HD
HETATM   18  O   UNL     1       8.365  -2.042   2.289  1.00  0.00    -0.266 OA
BRANCH  16  19
HETATM   19  C   UNL     1       6.608  -4.200   1.169  1.00  0.00     0.035 A 
HETATM   20  C   UNL     1       7.841  -4.816   1.400  1.00  0.00     0.036 A 
HETATM   21  C   UNL     1       8.035  -6.176   1.102  1.00  0.00    -0.056 A 
HETATM   22  C   UNL     1       6.979  -6.914   0.555  1.00  0.00     0.007 A 
HETATM   23  C   UNL     1       5.748  -6.307   0.321  1.00  0.00     0.003 A 
HETATM   24  C   UNL     1       5.563  -4.958   0.628  1.00  0.00     0.029 A 
BRANCH  21  25
HETATM   25  C   UNL     1       9.375  -6.822   1.349  1.00  0.00     0.034 C 
HETATM   26  C   UNL     1      10.338  -6.588   0.195  1.00  0.00     0.010 C 
ENDBRANCH  21  25
ENDBRANCH  16  19
ENDBRANCH   1  15
TORSDOF 3
