REMARK  3 active torsions:
REMARK  status: ('A' for Active; 'I' for Inactive)
REMARK    1  A    between atoms: N_1  and  C_5 
REMARK    2  A    between atoms: C_8  and  C_10 
REMARK       I    between atoms: C_10  and  N_12 
REMARK    3  A    between atoms: N_12  and  C_13 
ROOT
HETATM    1  C   UNL     1       4.497  -0.746   5.110  1.00  0.00     0.057 A 
HETATM    2  C   UNL     1       3.337  -1.273   5.691  1.00  0.00     0.043 A 
HETATM    3  C   UNL     1       3.238  -1.403   7.086  1.00  0.00    -0.017 A 
HETATM    4  C   UNL     1       2.039  -1.972   7.709  1.00  0.00     0.029 A 
HETATM    5  C   UNL     1       1.983  -2.088   9.041  1.00  0.00     0.092 A 
HETATM    6  N   UNL     1       3.020  -1.681   9.838  1.00  0.00    -0.333 N 
HETATM    7  C   UNL     1       4.194  -1.133   9.371  1.00  0.00     0.256 A 
HETATM    8  O   UNL     1       5.096  -0.780  10.119  1.00  0.00    -0.267 OA
HETATM    9  C   UNL     1       4.307  -0.991   7.897  1.00  0.00     0.044 A 
HETATM   10  C   UNL     1       5.469  -0.462   7.335  1.00  0.00     0.044 A 
HETATM   11  C   UNL     1       5.560  -0.348   5.950  1.00  0.00     0.061 A 
HETATM   12 CL   UNL     1       7.014   0.309   5.276  1.00  0.00    -0.082 Cl
HETATM   13  H   UNL     1       2.955  -1.779  10.846  1.00  0.00     0.168 HD
ENDROOT
BRANCH   1  14
HETATM   14  N   UNL     1       4.675  -0.610   3.711  1.00  0.00    -0.325 N 
HETATM   15  C   UNL     1       3.759  -0.813   2.708  1.00  0.00     0.226 C 
HETATM   16  O   UNL     1       2.558  -1.051   2.837  1.00  0.00    -0.273 OA
HETATM   17  H   UNL     1       5.606  -0.293   3.448  1.00  0.00     0.169 HD
BRANCH  15  18
HETATM   18  C   UNL     1       4.348  -0.597   1.312  1.00  0.00     0.080 C 
HETATM   19  C   UNL     1       4.424   0.893   0.988  1.00  0.00     0.016 C 
HETATM   20  C   UNL     1       3.017   1.260   0.503  1.00  0.00     0.033 C 
HETATM   21  C   UNL     1       2.393  -0.038  -0.018  1.00  0.00     0.184 C 
HETATM   22  C   UNL     1       3.442  -1.131   0.198  1.00  0.00     0.046 C 
BRANCH  21  23
HETATM   23  N   UNL     1       1.173  -0.358   0.765  1.00  0.00    -0.075 N 
HETATM   24  H   UNL     1       0.498   0.416   0.793  1.00  0.00     0.274 HD
HETATM   25  H   UNL     1       0.688  -1.188   0.403  1.00  0.00     0.274 HD
HETATM   26  H   UNL     1       1.418  -0.587   1.753  1.00  0.00     0.274 HD
ENDBRANCH  21  23
ENDBRANCH  15  18
ENDBRANCH   1  14
TORSDOF 3
