REMARK  5 active torsions:
REMARK  status: ('A' for Active; 'I' for Inactive)
REMARK    1  A    between atoms: C_2  and  C_3 
REMARK    2  A    between atoms: C_3  and  C_4 
REMARK    3  A    between atoms: C_3  and  C_29 
REMARK       I    between atoms: C_4  and  N_5 
REMARK    4  A    between atoms: N_5  and  C_6 
REMARK    5  A    between atoms: C_18  and  C_19 
ROOT
HETATM    1  C   UNL     1       4.952   3.212   0.081  1.00  0.00     0.088 C 
HETATM    2  C   UNL     1       5.711   4.526   0.085  1.00  0.00     0.060 C 
HETATM    3  C   UNL     1       7.245   4.394  -0.002  1.00  0.00     0.181 C 
HETATM    4  N   UNL     1       7.827   3.185   0.601  1.00  0.00    -0.334 N 
HETATM    5  C   UNL     1       9.156   2.817   0.351  1.00  0.00     0.256 C 
HETATM    6  O   UNL     1       9.581   1.698   0.649  1.00  0.00    -0.267 OA
HETATM    7  C   UNL     1      10.103   3.730  -0.338  1.00  0.00     0.059 A 
HETATM    8  C   UNL     1      10.154   5.113  -0.160  1.00  0.00     0.050 A 
HETATM    9  N   UNL     1       9.207   5.876   0.527  1.00  0.00    -0.324 N 
HETATM   10  C   UNL     1       7.869   5.646   0.657  1.00  0.00     0.245 C 
HETATM   11  O   UNL     1       7.201   6.541   1.183  1.00  0.00    -0.271 OA
HETATM   12  C   UNL     1      11.104   3.099  -1.107  1.00  0.00     0.031 A 
HETATM   13  C   UNL     1      12.150   3.823  -1.689  1.00  0.00    -0.024 A 
HETATM   14  C   UNL     1      12.219   5.197  -1.458  1.00  0.00     0.014 A 
HETATM   15  C   UNL     1      11.238   5.831  -0.692  1.00  0.00     0.031 A 
HETATM   16  C   UNL     1       6.976   2.045   0.957  1.00  0.00     0.129 C 
HETATM   17  C   UNL     1       5.511   2.343   1.197  1.00  0.00     0.045 C 
HETATM   18  H   UNL     1       9.456   6.817   0.810  1.00  0.00     0.169 HD
ENDROOT
BRANCH   1  19
HETATM   19  N   UNL     1       4.979   2.557  -1.220  1.00  0.00    -0.356 N 
HETATM   20  C   UNL     1       3.993   1.665  -1.589  1.00  0.00     0.222 C 
HETATM   21  O   UNL     1       3.013   1.426  -0.890  1.00  0.00    -0.273 OA
HETATM   22  H   UNL     1       5.840   2.557  -1.749  1.00  0.00     0.162 HD
BRANCH  20  23
HETATM   23  C   UNL     1       4.196   0.975  -2.939  1.00  0.00     0.077 C 
BRANCH  23  24
HETATM   24  C   UNL     1       5.441   0.071  -2.932  1.00  0.00     0.009 C 
HETATM   25  C   UNL     1       5.358  -1.041  -1.894  1.00  0.00     0.006 C 
ENDBRANCH  23  24
BRANCH  23  26
HETATM   26  C   UNL     1       4.276   1.993  -4.091  1.00  0.00     0.009 C 
HETATM   27  C   UNL     1       2.989   2.790  -4.261  1.00  0.00     0.006 C 
ENDBRANCH  23  26
ENDBRANCH  20  23
ENDBRANCH   1  19
BRANCH  13  28
HETATM   28  C   UNL     1      13.153   3.137  -2.498  1.00  0.00    -0.019 A 
HETATM   29  C   UNL     1      13.633   3.671  -3.680  1.00  0.00     0.061 A 
HETATM   30  S   UNL     1      14.775   2.654  -4.450  1.00  0.00    -0.113 SA
HETATM   31  C   UNL     1      14.636   1.477  -3.220  1.00  0.00     0.050 A 
HETATM   32  C   UNL     1      13.741   1.854  -2.243  1.00  0.00     0.020 A 
ENDBRANCH  13  28
TORSDOF 5
