REMARK  5 active torsions:
REMARK  status: ('A' for Active; 'I' for Inactive)
REMARK    1  A    between atoms: C_2  and  C_3 
REMARK    2  A    between atoms: C_3  and  N_4 
REMARK    3  A    between atoms: C_3  and  C_19 
REMARK       I    between atoms: N_4  and  C_5 
REMARK    4  A    between atoms: C_5  and  C_6 
REMARK    5  A    between atoms: C_7  and  C_8 
ROOT
HETATM    1  N   UNL     1       2.710  -2.220   0.050  1.00  0.00    -0.345 N 
HETATM    2  C   UNL     1       1.426  -2.694   0.096  1.00  0.00     0.255 C 
HETATM    3  O   UNL     1       1.126  -3.850  -0.176  1.00  0.00    -0.268 OA
HETATM    4  H   UNL     1       2.904  -1.246   0.259  1.00  0.00     0.163 HD
ENDROOT
BRANCH   2   5
HETATM    5  C   UNL     1       0.468  -1.705   0.550  1.00  0.00     0.075 A 
HETATM    6  C   UNL     1      -0.726  -1.187  -0.047  1.00  0.00     0.076 A 
HETATM    7  N   UNL     1      -1.281  -0.255   0.751  1.00  0.00    -0.178 NA
HETATM    8  N   UNL     1      -0.500  -0.211   1.832  1.00  0.00    -0.288 N 
HETATM    9  H   UNL     1      -0.756   0.422   2.583  1.00  0.00     0.188 HD
HETATM   10  C   UNL     1       0.574  -1.034   1.756  1.00  0.00     0.128 A 
BRANCH   6  11
HETATM   11  C   UNL     1      -1.338  -1.413  -1.423  1.00  0.00     0.040 C 
HETATM   12  C   UNL     1      -1.212  -2.834  -1.992  1.00  0.00     0.011 C 
HETATM   13  C   UNL     1      -2.087  -3.841  -1.250  1.00  0.00     0.001 C 
HETATM   14  C   UNL     1      -3.555  -3.421  -1.276  1.00  0.00     0.000 C 
HETATM   15  C   UNL     1      -3.748  -1.992  -0.777  1.00  0.00     0.001 C 
HETATM   16  C   UNL     1      -2.831  -1.007  -1.505  1.00  0.00     0.011 C 
ENDBRANCH   6  11
ENDBRANCH   2   5
BRANCH   1  17
HETATM   17  C   UNL     1       3.842  -3.039  -0.326  1.00  0.00     0.154 C 
BRANCH  17  18
HETATM   18  C   UNL     1       3.893  -3.334  -1.834  1.00  0.00     0.028 C 
HETATM   19  C   UNL     1       3.939  -2.097  -2.726  1.00  0.00     0.007 C 
ENDBRANCH  17  18
BRANCH  17  20
HETATM   20  C   UNL     1       5.074  -2.326   0.154  1.00  0.00     0.127 A 
HETATM   21  N   UNL     1       5.212  -1.025   0.337  1.00  0.00    -0.237 NA
HETATM   22  C   UNL     1       6.501  -0.840   0.774  1.00  0.00     0.048 A 
HETATM   23  C   UNL     1       7.018   0.515   1.065  1.00  0.00     0.072 C 
HETATM   24  C   UNL     1       7.148  -2.051   0.874  1.00  0.00     0.116 A 
HETATM   25  N   UNL     1       6.231  -2.987   0.484  1.00  0.00    -0.351 N 
HETATM   26  H   UNL     1       6.375  -3.987   0.441  1.00  0.00     0.166 HD
ENDBRANCH  17  20
ENDBRANCH   1  17
TORSDOF 5
