REMARK  9 active torsions:
REMARK  status: ('A' for Active; 'I' for Inactive)
REMARK    1  A    between atoms: C_5  and  O_6 
REMARK    2  A    between atoms: O_6  and  C_7 
REMARK    3  A    between atoms: C_7  and  C_8 
REMARK    4  A    between atoms: N_9  and  C_10 
REMARK    5  A    between atoms: C_10  and  C_11 
REMARK    6  A    between atoms: C_11  and  C_12 
REMARK    7  A    between atoms: C_18  and  S_19 
REMARK    8  A    between atoms: S_19  and  C_20 
REMARK    9  A    between atoms: C_20  and  C_21 
REMARK       I    between atoms: C_21  and  N_22 
ROOT
HETATM    1  C   UNL     1       8.883  -1.113  -0.937  1.00  0.00     0.155 A 
HETATM    2  N   UNL     1       9.322   0.131  -1.349  1.00  0.00    -0.309 N 
HETATM    3  C   UNL     1      10.679  -0.002  -1.491  1.00  0.00     0.192 A 
HETATM    4  N   UNL     1      11.047  -1.215  -1.155  1.00  0.00    -0.123 NA
HETATM    5  N   UNL     1       9.925  -1.915  -0.819  1.00  0.00    -0.132 NA
ENDROOT
BRANCH   1   6
HETATM    6  C   UNL     1       7.481  -1.496  -0.609  1.00  0.00     0.256 C 
BRANCH   6   7
HETATM    7  O   UNL     1       6.649  -1.085  -1.689  1.00  0.00    -0.344 OA
BRANCH   7   8
HETATM    8  C   UNL     1       5.338  -1.472  -1.630  1.00  0.00     0.069 A 
HETATM    9  C   UNL     1       4.606  -1.233  -2.794  1.00  0.00     0.037 A 
HETATM   10  C   UNL     1       3.260  -1.596  -2.876  1.00  0.00     0.009 A 
HETATM   11  C   UNL     1       2.623  -2.191  -1.784  1.00  0.00    -0.062 A 
HETATM   12  C   UNL     1       1.190  -2.627  -1.871  1.00  0.00     0.048 C 
HETATM   13  C   UNL     1       3.357  -2.426  -0.616  1.00  0.00     0.009 A 
HETATM   14  C   UNL     1       4.706  -2.063  -0.536  1.00  0.00     0.037 A 
ENDBRANCH   7   8
ENDBRANCH   6   7
ENDBRANCH   1   6
BRANCH   2  15
HETATM   15  C   UNL     1       8.516   1.314  -1.592  1.00  0.00     0.137 C 
BRANCH  15  16
HETATM   16  C   UNL     1       7.902   1.890  -0.315  1.00  0.00     0.059 C 
BRANCH  16  17
HETATM   17  C   UNL     1       7.393   3.295  -0.515  1.00  0.00    -0.057 A 
HETATM   18  C   UNL     1       6.150   3.528  -1.117  1.00  0.00     0.007 A 
HETATM   19  C   UNL     1       5.692   4.834  -1.304  1.00  0.00     0.001 A 
HETATM   20  C   UNL     1       6.471   5.915  -0.895  1.00  0.00     0.000 A 
HETATM   21  C   UNL     1       7.711   5.692  -0.300  1.00  0.00     0.001 A 
HETATM   22  C   UNL     1       8.172   4.389  -0.114  1.00  0.00     0.007 A 
ENDBRANCH  16  17
ENDBRANCH  15  16
ENDBRANCH   2  15
BRANCH   3  23
HETATM   23  S   UNL     1      11.747   1.239  -2.046  1.00  0.00    -0.081 SA
BRANCH  23  24
HETATM   24  C   UNL     1      13.262   0.282  -2.352  1.00  0.00     0.185 C 
BRANCH  24  25
HETATM   25  C   UNL     1      13.123  -0.568  -3.605  1.00  0.00     0.226 C 
HETATM   26  N   UNL     1      12.700  -1.862  -3.376  1.00  0.00    -0.365 N 
HETATM   27  C   UNL     1      12.420  -2.750  -4.474  1.00  0.00     0.149 C 
HETATM   28  H   UNL     1      12.201  -2.031  -2.501  1.00  0.00     0.161 HD
HETATM   29  O   UNL     1      13.379  -0.132  -4.725  1.00  0.00    -0.273 OA
ENDBRANCH  24  25
ENDBRANCH  23  24
ENDBRANCH   3  23
TORSDOF 9
