REMARK  8 active torsions:
REMARK  status: ('A' for Active; 'I' for Inactive)
REMARK    1  A    between atoms: C_3  and  N_4 
REMARK       I    between atoms: N_4  and  C_5 
REMARK    2  A    between atoms: C_5  and  C_6 
REMARK    3  A    between atoms: C_6  and  N_7 
REMARK    4  A    between atoms: C_10  and  C_11 
REMARK       I    between atoms: C_11  and  N_12 
REMARK    5  A    between atoms: N_12  and  C_13 
REMARK    6  A    between atoms: C_13  and  C_14 
REMARK    7  A    between atoms: C_17  and  O_18 
REMARK    8  A    between atoms: C_23  and  N_24 
ROOT
HETATM    1  N   UNL     1       4.593   1.627  -0.264  1.00  0.00    -0.248 N 
HETATM    2  N   UNL     1       5.437   0.960   0.553  1.00  0.00     0.007 NA
HETATM    3  N   UNL     1       5.286  -0.333   0.307  1.00  0.00    -0.150 NA
HETATM    4  C   UNL     1       4.335  -0.480  -0.683  1.00  0.00     0.186 A 
HETATM    5  C   UNL     1       3.868   0.772  -1.052  1.00  0.00     0.151 A 
ENDROOT
BRANCH   1   6
HETATM    6  C   UNL     1       4.546   3.068  -0.201  1.00  0.00     0.251 C 
BRANCH   6   7
HETATM    7  C   UNL     1       3.575   3.542   0.857  1.00  0.00     0.241 C 
HETATM    8  N   UNL     1       3.789   2.983   2.105  1.00  0.00    -0.325 N 
HETATM    9  H   UNL     1       4.668   2.480   2.211  1.00  0.00     0.169 HD
HETATM   10  O   UNL     1       2.766   4.427   0.590  1.00  0.00    -0.271 OA
BRANCH   8  11
HETATM   11  C   UNL     1       3.067   3.183   3.303  1.00  0.00     0.042 A 
HETATM   12  C   UNL     1       1.699   3.495   3.412  1.00  0.00    -0.035 A 
HETATM   13  C   UNL     1       0.737   3.561   2.258  1.00  0.00     0.050 C 
HETATM   14  C   UNL     1       1.151   3.713   4.695  1.00  0.00     0.011 A 
HETATM   15  C   UNL     1       1.919   3.566   5.849  1.00  0.00     0.024 A 
HETATM   16  C   UNL     1       3.249   3.192   5.734  1.00  0.00     0.036 A 
HETATM   17  C   UNL     1       3.817   2.993   4.478  1.00  0.00     0.053 A 
HETATM   18 CL   UNL     1       4.206   2.983   7.149  1.00  0.00    -0.084 Cl
ENDBRANCH   8  11
ENDBRANCH   6   7
ENDBRANCH   1   6
BRANCH   5  19
HETATM   19  N   UNL     1       2.947   1.173  -1.957  1.00  0.00    -0.382 N 
HETATM   20  H   UNL     1       2.387   0.459  -2.432  1.00  0.00     0.157 HD
HETATM   21  H   UNL     1       2.494   2.084  -1.947  1.00  0.00     0.157 HD
ENDBRANCH   5  19
BRANCH   4  22
HETATM   22  C   UNL     1       3.932  -1.774  -1.214  1.00  0.00     0.275 C 
HETATM   23  N   UNL     1       4.585  -2.838  -0.631  1.00  0.00    -0.351 N 
HETATM   24  H   UNL     1       5.273  -2.636   0.086  1.00  0.00     0.163 HD
HETATM   25  O   UNL     1       3.097  -1.897  -2.106  1.00  0.00    -0.266 OA
BRANCH  23  26
HETATM   26  C   UNL     1       4.431  -4.194  -1.097  1.00  0.00     0.161 C 
BRANCH  26  27
HETATM   27  C   UNL     1       3.795  -5.141  -0.108  1.00  0.00    -0.040 A 
HETATM   28  C   UNL     1       3.366  -4.763   1.170  1.00  0.00     0.011 A 
HETATM   29  C   UNL     1       2.782  -5.701   2.029  1.00  0.00     0.037 A 
HETATM   30  C   UNL     1       2.608  -7.028   1.632  1.00  0.00     0.068 A 
HETATM   31  C   UNL     1       3.032  -7.415   0.364  1.00  0.00     0.037 A 
HETATM   32  C   UNL     1       3.620  -6.480  -0.495  1.00  0.00     0.011 A 
BRANCH  30  33
HETATM   33  O   UNL     1       2.019  -7.837   2.565  1.00  0.00    -0.356 OA
HETATM   34  C   UNL     1       1.741  -9.174   2.169  1.00  0.00     0.210 C 
ENDBRANCH  30  33
ENDBRANCH  26  27
ENDBRANCH  23  26
ENDBRANCH   4  22
TORSDOF 8
