REMARK  8 active torsions:
REMARK  status: ('A' for Active; 'I' for Inactive)
REMARK    1  A    between atoms: O_2  and  C_3 
REMARK    2  A    between atoms: C_3  and  C_4 
REMARK    3  A    between atoms: N_7  and  C_8 
REMARK    4  A    between atoms: N_10  and  C_12 
REMARK    5  A    between atoms: C_22  and  C_23 
REMARK       I    between atoms: C_23  and  N_24 
REMARK    6  A    between atoms: N_24  and  C_25 
REMARK    7  A    between atoms: C_25  and  C_26 
REMARK    8  A    between atoms: C_26  and  C_27 
ROOT
HETATM    1  C   UNL     1       1.785   5.739  -1.280  1.00  0.00     0.134 C 
HETATM    2  C   UNL     1       2.214   6.380   0.030  1.00  0.00     0.263 C 
HETATM    3  N   UNL     1       2.163   7.875  -0.258  1.00  0.00    -0.051 N 
HETATM    4  H   UNL     1       1.826   8.336   0.613  1.00  0.00     0.281 HD
HETATM    5  C   UNL     1       0.964   8.026  -1.248  1.00  0.00     0.281 C 
HETATM    6  C   UNL     1       0.623   6.613  -1.721  1.00  0.00     0.072 C 
ENDROOT
BRANCH   5   7
HETATM    7  C   UNL     1      -0.216   8.663  -0.494  1.00  0.00     0.248 C 
HETATM    8  N   UNL     1      -1.374   8.860  -1.201  1.00  0.00    -0.359 N 
HETATM    9  H   UNL     1      -1.396   8.777  -2.211  1.00  0.00     0.162 HD
HETATM   10  O   UNL     1      -0.070   8.941   0.697  1.00  0.00    -0.271 OA
BRANCH   8  11
HETATM   11  C   UNL     1      -2.543   9.446  -0.553  1.00  0.00     0.127 C 
BRANCH  11  12
HETATM   12  C   UNL     1      -3.782   9.416  -1.449  1.00  0.00     0.060 C 
BRANCH  12  13
HETATM   13  C   UNL     1      -4.984   9.983  -0.770  1.00  0.00    -0.029 A 
HETATM   14  C   UNL     1      -5.314  11.370  -0.628  1.00  0.00    -0.002 A 
HETATM   15  C   UNL     1      -6.514  11.443   0.079  1.00  0.00     0.042 A 
HETATM   16  C   UNL     1      -4.700  12.574  -1.033  1.00  0.00     0.014 A 
HETATM   17  C   UNL     1      -7.131  12.656   0.404  1.00  0.00     0.030 A 
HETATM   18  N   UNL     1      -6.906  10.153   0.349  1.00  0.00    -0.365 N 
HETATM   19  C   UNL     1      -6.502  13.834  -0.007  1.00  0.00     0.002 A 
HETATM   20  C   UNL     1      -5.304  13.797  -0.716  1.00  0.00     0.001 A 
HETATM   21  H   UNL     1      -7.750   9.904   0.847  1.00  0.00     0.165 HD
HETATM   22  C   UNL     1      -5.991   9.266  -0.155  1.00  0.00     0.096 A 
ENDBRANCH  12  13
ENDBRANCH  11  12
ENDBRANCH   8  11
ENDBRANCH   5   7
BRANCH   3  23
HETATM   23  C   UNL     1       3.469   8.538  -0.678  1.00  0.00     0.197 C 
HETATM   24  C   UNL     1       3.291  10.057  -0.961  1.00  0.00     0.017 C 
HETATM   25  C   UNL     1       2.950  10.842   0.321  1.00  0.00     0.011 C 
HETATM   26  C   UNL     1       4.624  10.602  -1.520  1.00  0.00     0.011 C 
HETATM   27  C   UNL     1       4.059  10.659   1.367  1.00  0.00    -0.013 C 
HETATM   28  C   UNL     1       4.212   9.164   1.688  1.00  0.00     0.011 C 
HETATM   29  C   UNL     1       5.383  11.194   0.795  1.00  0.00     0.009 C 
HETATM   30  C   UNL     1       4.569   8.379   0.410  1.00  0.00     0.017 C 
HETATM   31  C   UNL     1       5.895   8.935  -0.152  1.00  0.00     0.011 C 
HETATM   32  C   UNL     1       5.748  10.427  -0.486  1.00  0.00    -0.013 C 
ENDBRANCH   3  23
BRANCH   1  33
HETATM   33  N   UNL     1       1.431   4.349  -1.163  1.00  0.00    -0.276 N 
HETATM   34  N   UNL     1       0.775   3.912  -0.080  1.00  0.00     0.005 NA
HETATM   35  N   UNL     1       0.516   2.625  -0.267  1.00  0.00    -0.152 NA
HETATM   36  C   UNL     1       1.011   2.255  -1.495  1.00  0.00     0.166 A 
HETATM   37  C   UNL     1       1.609   3.360  -2.075  1.00  0.00     0.147 A 
BRANCH  36  38
HETATM   38  C   UNL     1       0.895   0.923  -2.068  1.00  0.00     0.314 C 
HETATM   39  O   UNL     1       1.342   0.639  -3.174  1.00  0.00    -0.257 OA
BRANCH  38  40
HETATM   40  O   UNL     1       0.234   0.055  -1.252  1.00  0.00    -0.321 OA
HETATM   41  C   UNL     1       0.081  -1.257  -1.793  1.00  0.00     0.213 C 
ENDBRANCH  38  40
ENDBRANCH  36  38
ENDBRANCH   1  33
TORSDOF 8
