REMARK  5 active torsions:
REMARK  status: ('A' for Active; 'I' for Inactive)
REMARK    1  A    between atoms: C_4  and  N_5 
REMARK    2  A    between atoms: C_7  and  C_8 
REMARK       I    between atoms: C_8  and  N_9 
REMARK    3  A    between atoms: N_9  and  N_10 
REMARK       I    between atoms: N_10  and  C_11 
REMARK    4  A    between atoms: C_11  and  C_12 
REMARK    5  A    between atoms: C_16  and  C_17 
ROOT
HETATM    1  C   UNL     1       4.500   6.011  -0.153  1.00  0.00     0.286 C 
HETATM    2  N   UNL     1       5.169   7.142  -0.560  1.00  0.00    -0.262 N 
HETATM    3  O   UNL     1       3.389   6.012   0.361  1.00  0.00    -0.264 OA
HETATM    4  H   UNL     1       6.106   7.116  -0.964  1.00  0.00     0.190 HD
ENDROOT
BRANCH   2   5
HETATM    5  N   UNL     1       4.550   8.376  -0.356  1.00  0.00    -0.262 N 
HETATM    6  C   UNL     1       5.249   9.548  -0.550  1.00  0.00     0.288 C 
HETATM    7  O   UNL     1       6.409   9.562  -0.956  1.00  0.00    -0.264 OA
HETATM    8  H   UNL     1       3.604   8.351   0.016  1.00  0.00     0.190 HD
BRANCH   6   9
HETATM    9  C   UNL     1       4.512  10.745  -0.244  1.00  0.00     0.121 A 
HETATM   10  N   UNL     1       5.039  11.993  -0.423  1.00  0.00    -0.272 N 
HETATM   11  H   UNL     1       5.967  12.221  -0.768  1.00  0.00     0.189 HD
HETATM   12  N   UNL     1       4.202  12.994  -0.108  1.00  0.00    -0.174 NA
HETATM   13  C   UNL     1       3.086  12.384   0.321  1.00  0.00     0.089 A 
HETATM   14  C   UNL     1       3.241  10.972   0.246  1.00  0.00     0.071 A 
BRANCH  13  15
HETATM   15  C   UNL     1       1.910  13.135   0.773  1.00  0.00    -0.006 A 
HETATM   16  C   UNL     1       1.719  14.467   0.375  1.00  0.00     0.014 A 
HETATM   17  C   UNL     1       0.589  15.181   0.785  1.00  0.00     0.001 A 
HETATM   18  C   UNL     1      -0.361  14.574   1.602  1.00  0.00     0.000 A 
HETATM   19  C   UNL     1      -0.182  13.255   2.014  1.00  0.00     0.001 A 
HETATM   20  C   UNL     1       0.946  12.540   1.602  1.00  0.00     0.014 A 
ENDBRANCH  13  15
ENDBRANCH   6   9
ENDBRANCH   2   5
BRANCH   1  21
HETATM   21  C   UNL     1       5.241   4.704  -0.387  1.00  0.00     0.125 C 
HETATM   22  N   UNL     1       6.412   4.732  -0.947  1.00  0.00    -0.164 NA
HETATM   23  N   UNL     1       7.094   3.531  -1.134  1.00  0.00    -0.201 N 
HETATM   24  C   UNL     1       6.474   2.277  -0.967  1.00  0.00     0.245 C 
HETATM   25  C   UNL     1       4.974   2.344  -0.826  1.00  0.00     0.111 C 
HETATM   26  O   UNL     1       7.014   1.171  -0.974  1.00  0.00    -0.271 OA
HETATM   27  C   UNL     1       4.589   3.455   0.111  1.00  0.00     0.076 C 
BRANCH  23  28
HETATM   28  C   UNL     1       8.468   3.696  -1.536  1.00  0.00     0.062 A 
HETATM   29  C   UNL     1       9.256   2.630  -2.001  1.00  0.00     0.038 A 
HETATM   30  C   UNL     1      10.596   2.809  -2.391  1.00  0.00    -0.060 A 
HETATM   31  C   UNL     1      11.399   1.652  -2.912  1.00  0.00     0.048 C 
HETATM   32  C   UNL     1      11.160   4.084  -2.336  1.00  0.00     0.007 A 
HETATM   33  C   UNL     1      10.401   5.159  -1.887  1.00  0.00     0.003 A 
HETATM   34  C   UNL     1       9.072   4.967  -1.495  1.00  0.00     0.032 A 
ENDBRANCH  23  28
ENDBRANCH   1  21
TORSDOF 5
