REMARK  6 active torsions:
REMARK  status: ('A' for Active; 'I' for Inactive)
REMARK    1  A    between atoms: C_2  and  C_3 
REMARK    2  A    between atoms: C_2  and  C_9 
REMARK    3  A    between atoms: C_9  and  N_10 
REMARK       I    between atoms: N_10  and  C_11 
REMARK       I    between atoms: C_11  and  N_12 
REMARK    4  A    between atoms: N_12  and  C_13 
REMARK    5  A    between atoms: C_15  and  N_16 
REMARK       I    between atoms: N_16  and  C_17 
REMARK    6  A    between atoms: C_17  and  C_18 
ROOT
HETATM    1  N   UNL     1       2.093   1.695   1.820  1.00  0.00    -0.342 N 
HETATM    2  C   UNL     1       2.612   2.557   2.762  1.00  0.00     0.320 C 
HETATM    3  N   UNL     1       2.950   1.868   3.906  1.00  0.00    -0.309 N 
HETATM    4  O   UNL     1       2.673   3.767   2.593  1.00  0.00    -0.247 OA
HETATM    5  H   UNL     1       2.368   0.725   1.862  1.00  0.00     0.164 HD
HETATM    6  H   UNL     1       2.503   0.967   3.998  1.00  0.00     0.170 HD
ENDROOT
BRANCH   3   7
HETATM    7  C   UNL     1       3.475   2.422   5.090  1.00  0.00     0.038 A 
HETATM    8  C   UNL     1       3.282   1.697   6.276  1.00  0.00     0.059 A 
HETATM    9  C   UNL     1       3.721   2.196   7.504  1.00  0.00     0.037 A 
HETATM   10  C   UNL     1       4.412   3.413   7.528  1.00  0.00     0.029 A 
HETATM   11  C   UNL     1       4.635   4.126   6.348  1.00  0.00     0.004 A 
HETATM   12  C   UNL     1       4.159   3.635   5.132  1.00  0.00     0.029 A 
BRANCH   9  13
HETATM   13  N   UNL     1       3.479   1.566   8.746  1.00  0.00    -0.323 N 
HETATM   14  C   UNL     1       2.776   0.394   8.974  1.00  0.00     0.258 C 
HETATM   15  O   UNL     1       2.323  -0.342   8.104  1.00  0.00    -0.267 OA
HETATM   16  H   UNL     1       3.824   2.062   9.553  1.00  0.00     0.169 HD
BRANCH  14  17
HETATM   17  C   UNL     1       2.574   0.059  10.382  1.00  0.00     0.056 A 
HETATM   18  C   UNL     1       2.983   0.745  11.510  1.00  0.00     0.158 A 
HETATM   19  O   UNL     1       2.582   0.109  12.642  1.00  0.00    -0.334 OA
HETATM   20  C   UNL     1       1.904  -0.999  12.256  1.00  0.00     0.142 A 
HETATM   21  C   UNL     1       1.870  -1.080  10.885  1.00  0.00     0.043 A 
ENDBRANCH  14  17
ENDBRANCH   9  13
ENDBRANCH   3   7
BRANCH   1  22
HETATM   22  C   UNL     1       1.383   2.167   0.642  1.00  0.00     0.138 C 
BRANCH  22  23
HETATM   23  C   UNL     1      -0.169   2.071   0.787  1.00  0.00    -0.004 C 
HETATM   24  C   UNL     1      -0.663   2.884   2.008  1.00  0.00     0.021 C 
HETATM   25  C   UNL     1      -0.547   0.592   1.052  1.00  0.00     0.021 C 
BRANCH  23  26
HETATM   26  C   UNL     1      -0.827   2.638  -0.487  1.00  0.00    -0.046 A 
HETATM   27  C   UNL     1      -0.663   3.993  -0.824  1.00  0.00     0.027 A 
HETATM   28  C   UNL     1      -1.274   4.496  -1.964  1.00  0.00     0.116 A 
HETATM   29  N   UNL     1      -2.032   3.758  -2.797  1.00  0.00    -0.273 NA
HETATM   30  C   UNL     1      -2.185   2.460  -2.470  1.00  0.00     0.116 A 
HETATM   31  C   UNL     1      -1.613   1.866  -1.352  1.00  0.00     0.027 A 
ENDBRANCH  23  26
ENDBRANCH  22  23
ENDBRANCH   1  22
TORSDOF 6
