REMARK  7 active torsions:
REMARK  status: ('A' for Active; 'I' for Inactive)
REMARK    1  A    between atoms: C_8  and  C_9 
REMARK    2  A    between atoms: C_9  and  C_10 
REMARK    3  A    between atoms: C_10  and  C_11 
REMARK       I    between atoms: C_11  and  N_12 
REMARK    4  A    between atoms: N_12  and  C_13 
REMARK    5  A    between atoms: C_13  and  C_14 
REMARK    6  A    between atoms: C_14  and  N_15 
REMARK    7  A    between atoms: C_14  and  C_19 
ROOT
HETATM    1  C   UNL     1       0.814  -6.307   0.175  1.00  0.00     0.217 C 
HETATM    2  N   UNL     1       1.748  -5.611   0.900  1.00  0.00    -0.359 N 
HETATM    3  O   UNL     1       1.097  -6.822  -0.905  1.00  0.00    -0.274 OA
HETATM    4  H   UNL     1       1.421  -5.117   1.727  1.00  0.00     0.162 HD
ENDROOT
BRANCH   2   5
HETATM    5  C   UNL     1       3.065  -5.237   0.378  1.00  0.00     0.160 C 
BRANCH   5   6
HETATM    6  C   UNL     1       4.036  -6.423   0.019  1.00  0.00     0.239 C 
BRANCH   6   7
HETATM    7  N   UNL     1       3.601  -7.129  -1.273  1.00  0.00    -0.069 N 
HETATM    8  H   UNL     1       2.562  -7.167  -1.208  1.00  0.00     0.279 HD
HETATM    9  C   UNL     1       3.859  -6.415  -2.562  1.00  0.00     0.270 C 
HETATM   10  C   UNL     1       4.023  -8.565  -1.344  1.00  0.00     0.270 C 
ENDBRANCH   6   7
BRANCH   6  11
HETATM   11  C   UNL     1       5.500  -6.000   0.024  1.00  0.00    -0.004 A 
HETATM   12  C   UNL     1       6.503  -6.782   0.632  1.00  0.00     0.042 A 
HETATM   13 CL   UNL     1       6.154  -8.270   1.438  1.00  0.00    -0.084 Cl
HETATM   14  C   UNL     1       7.843  -6.379   0.609  1.00  0.00     0.024 A 
HETATM   15  C   UNL     1       8.209  -5.189  -0.014  1.00  0.00     0.002 A 
HETATM   16  C   UNL     1       7.237  -4.397  -0.614  1.00  0.00     0.001 A 
HETATM   17  C   UNL     1       5.898  -4.795  -0.594  1.00  0.00     0.011 A 
ENDBRANCH   6  11
ENDBRANCH   5   6
ENDBRANCH   2   5
BRANCH   1  18
HETATM   18  C   UNL     1      -0.564  -6.379   0.782  1.00  0.00     0.107 C 
BRANCH  18  19
HETATM   19  C   UNL     1      -1.364  -5.144   0.387  1.00  0.00     0.052 C 
BRANCH  19  20
HETATM   20  C   UNL     1      -2.804  -5.269   0.747  1.00  0.00    -0.008 A 
HETATM   21  C   UNL     1      -3.436  -4.862   1.908  1.00  0.00     0.032 A 
HETATM   22  C   UNL     1      -2.936  -4.192   3.130  1.00  0.00     0.070 C 
HETATM   23  N   UNL     1      -4.753  -5.198   1.754  1.00  0.00    -0.282 N 
HETATM   24  H   UNL     1      -5.522  -5.048   2.401  1.00  0.00     0.189 HD
HETATM   25  N   UNL     1      -5.020  -5.802   0.590  1.00  0.00    -0.179 NA
HETATM   26  C   UNL     1      -3.844  -5.841  -0.041  1.00  0.00     0.059 A 
HETATM   27  C   UNL     1      -3.749  -6.444  -1.394  1.00  0.00     0.073 C 
ENDBRANCH  19  20
ENDBRANCH  18  19
ENDBRANCH   1  18
TORSDOF 7
