REMARK  6 active torsions:
REMARK  status: ('A' for Active; 'I' for Inactive)
REMARK    1  A    between atoms: C_4  and  C_5 
REMARK    2  A    between atoms: C_5  and  N_6 
REMARK    3  A    between atoms: C_10  and  C_11 
REMARK    4  A    between atoms: C_11  and  C_12 
REMARK    5  A    between atoms: N_21  and  C_22 
REMARK    6  A    between atoms: C_22  and  C_23 
ROOT
HETATM    1  C   UNL     1       7.819   3.942   1.843  1.00  0.00     0.164 C 
HETATM    2  N   UNL     1       6.854   4.373   2.850  1.00  0.00    -0.319 N 
HETATM    3  C   UNL     1       6.104   3.331   3.341  1.00  0.00     0.326 C 
HETATM    4  O   UNL     1       5.389   3.400   4.324  1.00  0.00    -0.247 OA
HETATM    5  N   UNL     1       6.299   2.252   2.543  1.00  0.00    -0.265 N 
HETATM    6  C   UNL     1       7.286   2.511   1.637  1.00  0.00     0.263 C 
HETATM    7  O   UNL     1       7.667   1.745   0.759  1.00  0.00    -0.270 OA
HETATM    8  H   UNL     1       7.032   5.170   3.454  1.00  0.00     0.166 HD
ENDROOT
BRANCH   1   9
HETATM    9  C   UNL     1       7.712   4.870   0.578  1.00  0.00     0.033 C 
HETATM   10  C   UNL     1       6.354   4.866  -0.143  1.00  0.00     0.036 C 
HETATM   11  C   UNL     1       6.108   3.666  -1.043  1.00  0.00     0.235 C 
HETATM   12  N   UNL     1       7.261   3.389  -1.975  1.00  0.00    -0.067 N 
HETATM   13  H   UNL     1       7.182   4.080  -2.730  1.00  0.00     0.280 HD
HETATM   14  C   UNL     1       8.652   3.509  -1.401  1.00  0.00     0.235 C 
HETATM   15  C   UNL     1       8.804   4.715  -0.494  1.00  0.00     0.036 C 
BRANCH  12  16
HETATM   16  C   UNL     1       7.127   2.016  -2.643  1.00  0.00     0.274 C 
BRANCH  16  17
HETATM   17  C   UNL     1       5.797   1.767  -3.310  1.00  0.00    -0.026 A 
HETATM   18  C   UNL     1       4.800   1.085  -2.578  1.00  0.00     0.016 A 
HETATM   19  C   UNL     1       3.524   0.870  -3.105  1.00  0.00    -0.061 A 
HETATM   20  C   UNL     1       2.465   0.157  -2.316  1.00  0.00     0.048 C 
HETATM   21  C   UNL     1       3.248   1.319  -4.396  1.00  0.00     0.007 A 
HETATM   22  C   UNL     1       4.229   1.973  -5.144  1.00  0.00     0.008 A 
HETATM   23  C   UNL     1       5.506   2.215  -4.614  1.00  0.00    -0.054 A 
HETATM   24  C   UNL     1       6.535   2.871  -5.493  1.00  0.00     0.049 C 
ENDBRANCH  16  17
ENDBRANCH  12  16
ENDBRANCH   1   9
BRANCH   1  25
HETATM   25  C   UNL     1       9.211   3.993   2.475  1.00  0.00     0.072 A 
HETATM   26  N   UNL     1       9.630   5.238   2.837  1.00  0.00    -0.262 NA
HETATM   27  C   UNL     1      10.832   5.355   3.446  1.00  0.00     0.117 A 
HETATM   28  C   UNL     1      11.663   4.284   3.709  1.00  0.00     0.019 A 
HETATM   29  C   UNL     1      11.235   3.018   3.331  1.00  0.00     0.003 A 
HETATM   30  C   UNL     1       9.996   2.864   2.710  1.00  0.00     0.030 A 
ENDBRANCH   1  25
BRANCH   5  31
HETATM   31  C   UNL     1       5.645   0.966   2.711  1.00  0.00     0.168 C 
BRANCH  31  32
HETATM   32  C   UNL     1       6.484  -0.014   3.539  1.00  0.00     0.140 C 
HETATM   33  O   UNL     1       7.755  -0.250   2.894  1.00  0.00    -0.384 OA
HETATM   34  C   UNL     1       7.922  -1.661   2.710  1.00  0.00     0.168 C 
HETATM   35  C   UNL     1       6.975  -2.326   3.680  1.00  0.00     0.029 C 
HETATM   36  C   UNL     1       5.806  -1.373   3.672  1.00  0.00     0.036 C 
ENDBRANCH  31  32
ENDBRANCH   5  31
TORSDOF 6
