REMARK  5 active torsions:
REMARK  status: ('A' for Active; 'I' for Inactive)
REMARK    1  A    between atoms: C_9  and  C_10 
REMARK    2  A    between atoms: C_11  and  O_12 
REMARK    3  A    between atoms: O_12  and  C_13 
REMARK    4  A    between atoms: C_20  and  C_21 
REMARK       I    between atoms: C_21  and  N_22 
REMARK    5  A    between atoms: N_22  and  C_23 
ROOT
HETATM    1  C   UNL     1       1.134   0.132   0.965  1.00  0.00     0.070 C 
HETATM    2  C   UNL     1       2.439  -0.024   0.227  1.00  0.00     0.037 A 
HETATM    3  N   UNL     1       3.018   1.155  -0.228  1.00  0.00    -0.192 N 
HETATM    4  C   UNL     1       4.248   1.213  -0.774  1.00  0.00     0.725 A 
HETATM    5  N   UNL     1       4.947   0.054  -0.983  1.00  0.00    -0.084 N 
HETATM    6  N   UNL     1       6.185   0.309  -1.462  1.00  0.00    -0.149 NA
HETATM    7  C   UNL     1       6.143   1.643  -1.555  1.00  0.00     0.275 A 
HETATM    8  N   UNL     1       4.974   2.234  -1.152  1.00  0.00    -0.054 NA
HETATM    9  C   UNL     1       4.445  -1.281  -0.638  1.00  0.00     0.205 A 
HETATM   10  C   UNL     1       3.081  -1.203   0.035  1.00  0.00     0.063 A 
HETATM   11  H   UNL     1       2.531   2.027  -0.039  1.00  0.00     0.184 HD
ENDROOT
BRANCH   9  12
HETATM   12  C   UNL     1       4.469  -2.193  -1.867  1.00  0.00     0.005 A 
HETATM   13  C   UNL     1       3.690  -1.948  -3.017  1.00  0.00     0.083 A 
HETATM   14  C   UNL     1       3.760  -2.827  -4.104  1.00  0.00     0.037 A 
HETATM   15  C   UNL     1       4.610  -3.934  -4.066  1.00  0.00     0.003 A 
HETATM   16  C   UNL     1       5.385  -4.181  -2.939  1.00  0.00     0.001 A 
HETATM   17  C   UNL     1       5.313  -3.320  -1.846  1.00  0.00     0.012 A 
BRANCH  13  18
HETATM   18  O   UNL     1       2.850  -0.869  -2.969  1.00  0.00    -0.290 OA
BRANCH  18  19
HETATM   19  C   UNL     1       2.513  -0.278  -4.214  1.00  0.00     0.505 C 
HETATM   20  F   UNL     1       1.546  -1.026  -4.803  1.00  0.00    -0.184 F 
HETATM   21  F   UNL     1       1.947   0.926  -3.944  1.00  0.00    -0.184 F 
ENDBRANCH  18  19
ENDBRANCH  13  18
ENDBRANCH   9  12
BRANCH  10  22
HETATM   22  C   UNL     1       2.580  -2.511   0.526  1.00  0.00     0.256 C 
HETATM   23  N   UNL     1       1.348  -2.846   0.009  1.00  0.00    -0.323 N 
HETATM   24  H   UNL     1       0.938  -2.196  -0.651  1.00  0.00     0.169 HD
HETATM   25  O   UNL     1       3.290  -3.169   1.275  1.00  0.00    -0.267 OA
BRANCH  23  26
HETATM   26  C   UNL     1       0.590  -4.001   0.287  1.00  0.00     0.035 A 
HETATM   27  C   UNL     1       1.021  -5.035   1.121  1.00  0.00     0.029 A 
HETATM   28  C   UNL     1       0.203  -6.145   1.355  1.00  0.00     0.002 A 
HETATM   29  C   UNL     1      -1.054  -6.228   0.763  1.00  0.00     0.000 A 
HETATM   30  C   UNL     1      -1.494  -5.203  -0.069  1.00  0.00     0.002 A 
HETATM   31  C   UNL     1      -0.674  -4.097  -0.309  1.00  0.00     0.029 A 
ENDBRANCH  23  26
ENDBRANCH  10  22
TORSDOF 5
