REMARK  9 active torsions:
REMARK  status: ('A' for Active; 'I' for Inactive)
REMARK    1  A    between atoms: C_2  and  O_3 
REMARK    2  A    between atoms: O_3  and  C_4 
REMARK    3  A    between atoms: C_5  and  C_6 
REMARK    4  A    between atoms: N_7  and  C_9 
REMARK    5  A    between atoms: C_9  and  C_10 
REMARK       I    between atoms: C_10  and  N_11 
REMARK    6  A    between atoms: N_11  and  C_12 
REMARK    7  A    between atoms: C_20  and  C_21 
REMARK    8  A    between atoms: C_21  and  O_22 
REMARK    9  A    between atoms: C_28  and  O_29 
ROOT
HETATM    1  C   UNL     1       4.361   3.979  -1.148  1.00  0.00     0.231 C 
HETATM    2  N   UNL     1       3.194   3.698  -0.174  1.00  0.00    -0.054 N 
HETATM    3  H   UNL     1       2.591   3.072  -0.732  1.00  0.00     0.281 HD
HETATM    4  C   UNL     1       2.373   4.888   0.228  1.00  0.00     0.239 C 
HETATM    5  C   UNL     1       3.251   6.016   0.741  1.00  0.00     0.066 C 
HETATM    6  C   UNL     1       4.270   6.448  -0.317  1.00  0.00     0.065 C 
HETATM    7  C   UNL     1       5.147   5.245  -0.708  1.00  0.00     0.055 C 
HETATM    8  C   UNL     1       5.138   7.603   0.221  1.00  0.00     0.038 C 
HETATM    9  C   UNL     1       6.272   7.991  -0.730  1.00  0.00     0.003 C 
HETATM   10  C   UNL     1       7.109   6.786  -1.145  1.00  0.00     0.001 C 
HETATM   11  C   UNL     1       6.251   5.651  -1.702  1.00  0.00     0.010 C 
ENDROOT
BRANCH   2  12
HETATM   12  C   UNL     1       3.593   2.823   1.027  1.00  0.00     0.338 C 
BRANCH  12  13
HETATM   13  C   UNL     1       3.809   1.353   0.650  1.00  0.00     0.248 C 
HETATM   14  N   UNL     1       3.897   0.521   1.748  1.00  0.00    -0.319 N 
HETATM   15  H   UNL     1       3.392   0.773   2.600  1.00  0.00     0.169 HD
HETATM   16  O   UNL     1       3.835   1.026  -0.533  1.00  0.00    -0.271 OA
BRANCH  14  17
HETATM   17  C   UNL     1       4.295  -0.809   1.707  1.00  0.00     0.094 A 
HETATM   18  S   UNL     1       5.412  -1.325   0.540  1.00  0.00    -0.075 SA
HETATM   19  C   UNL     1       5.474  -2.884   1.204  1.00  0.00    -0.008 A 
HETATM   20  C   UNL     1       4.652  -3.032   2.308  1.00  0.00    -0.026 A 
HETATM   21  C   UNL     1       6.373  -3.942   0.639  1.00  0.00     0.047 C 
HETATM   22  C   UNL     1       4.553  -4.349   3.031  1.00  0.00     0.041 C 
HETATM   23  C   UNL     1       3.945  -1.805   2.610  1.00  0.00     0.080 A 
HETATM   24  C   UNL     1       5.696  -5.307   2.663  1.00  0.00     0.005 C 
HETATM   25  C   UNL     1       5.961  -5.327   1.153  1.00  0.00     0.005 C 
BRANCH  23  26
HETATM   26  C   UNL     1       2.962  -1.553   3.669  1.00  0.00     0.296 C 
HETATM   27  O   UNL     1       2.555  -0.421   3.922  1.00  0.00    -0.259 OA
BRANCH  26  28
HETATM   28  O   UNL     1       2.529  -2.683   4.290  1.00  0.00    -0.322 OA
HETATM   29  C   UNL     1       1.509  -2.475   5.269  1.00  0.00     0.213 C 
ENDBRANCH  26  28
ENDBRANCH  23  26
ENDBRANCH  14  17
ENDBRANCH  12  13
ENDBRANCH   2  12
BRANCH   1  30
HETATM   30  C   UNL     1       3.979   3.849  -2.623  1.00  0.00     0.006 A 
HETATM   31  C   UNL     1       4.752   3.026  -3.481  1.00  0.00     0.077 A 
HETATM   32  C   UNL     1       4.399   2.886  -4.829  1.00  0.00     0.037 A 
HETATM   33  C   UNL     1       3.293   3.556  -5.347  1.00  0.00     0.003 A 
HETATM   34  C   UNL     1       2.537   4.378  -4.526  1.00  0.00     0.001 A 
HETATM   35  C   UNL     1       2.878   4.524  -3.180  1.00  0.00     0.012 A 
BRANCH  31  36
HETATM   36  O   UNL     1       5.837   2.419  -2.904  1.00  0.00    -0.351 OA
BRANCH  36  37
HETATM   37  C   UNL     1       6.638   1.514  -3.668  1.00  0.00     0.171 C 
HETATM   38  C   UNL     1       6.021   0.126  -3.707  1.00  0.00     0.034 C 
ENDBRANCH  36  37
ENDBRANCH  31  36
ENDBRANCH   1  30
BRANCH   6  39
HETATM   39  O   UNL     1       3.518   6.919  -1.431  1.00  0.00    -0.389 OA
HETATM   40  H   UNL     1       4.097   7.411  -2.043  1.00  0.00     0.210 HD
ENDBRANCH   6  39
TORSDOF 9
