REMARK  7 active torsions:
REMARK  status: ('A' for Active; 'I' for Inactive)
REMARK    1  A    between atoms: C_2  and  O_3 
REMARK    2  A    between atoms: O_3  and  C_4 
REMARK    3  A    between atoms: C_4  and  C_5 
REMARK    4  A    between atoms: C_10  and  N_11 
REMARK       I    between atoms: N_11  and  C_12 
REMARK    5  A    between atoms: C_12  and  C_13 
REMARK    6  A    between atoms: C_13  and  N_14 
REMARK    7  A    between atoms: N_18  and  C_19 
ROOT
HETATM    1  N   UNL     1       3.310   2.607   2.428  1.00  0.00    -0.323 N 
HETATM    2  C   UNL     1       3.778   1.457   1.844  1.00  0.00     0.248 C 
HETATM    3  O   UNL     1       4.037   1.264   0.657  1.00  0.00    -0.271 OA
HETATM    4  H   UNL     1       2.831   2.546   3.329  1.00  0.00     0.169 HD
ENDROOT
BRANCH   1   5
HETATM    5  C   UNL     1       3.206   3.855   1.818  1.00  0.00     0.080 A 
HETATM    6  C   UNL     1       2.400   4.844   2.366  1.00  0.00     0.137 A 
HETATM    7  N   UNL     1       2.473   5.938   1.539  1.00  0.00    -0.349 N 
HETATM    8  H   UNL     1       1.968   6.802   1.691  1.00  0.00     0.166 HD
HETATM    9  C   UNL     1       3.368   5.723   0.521  1.00  0.00     0.048 A 
HETATM   10  C   UNL     1       3.858   4.413   0.666  1.00  0.00     0.023 A 
HETATM   11  C   UNL     1       3.778   6.604  -0.494  1.00  0.00     0.070 A 
HETATM   12  C   UNL     1       4.848   3.974  -0.246  1.00  0.00     0.055 A 
HETATM   13  C   UNL     1       5.254   4.852  -1.236  1.00  0.00     0.106 A 
HETATM   14  C   UNL     1       4.736   6.113  -1.357  1.00  0.00     0.107 A 
HETATM   15  O   UNL     1       6.202   4.585  -2.177  1.00  0.00    -0.323 OA
HETATM   16  O   UNL     1       5.287   6.804  -2.391  1.00  0.00    -0.323 OA
HETATM   17  C   UNL     1       6.216   5.830  -2.908  1.00  0.00     0.352 A 
BRANCH   6  18
HETATM   18  C   UNL     1       1.601   4.786   3.566  1.00  0.00     0.312 C 
HETATM   19  O   UNL     1       1.584   3.824   4.325  1.00  0.00    -0.258 OA
BRANCH  18  20
HETATM   20  O   UNL     1       0.906   5.944   3.713  1.00  0.00    -0.317 OA
BRANCH  20  21
HETATM   21  C   UNL     1       0.099   6.068   4.894  1.00  0.00     0.175 C 
HETATM   22  C   UNL     1       0.829   6.939   5.898  1.00  0.00     0.034 C 
ENDBRANCH  20  21
ENDBRANCH  18  20
ENDBRANCH   6  18
ENDBRANCH   1   5
BRANCH   2  23
HETATM   23  C   UNL     1       3.987   0.294   2.819  1.00  0.00     0.337 C 
BRANCH  23  24
HETATM   24  N   UNL     1       4.917  -0.745   2.198  1.00  0.00    -0.060 N 
HETATM   25  H   UNL     1       4.616  -0.802   1.209  1.00  0.00     0.280 HD
HETATM   26  C   UNL     1       6.372  -0.280   2.146  1.00  0.00     0.255 C 
HETATM   27  C   UNL     1       7.233  -1.301   1.376  1.00  0.00     0.150 C 
HETATM   28  N   UNL     1       7.052  -2.674   1.876  1.00  0.00    -0.377 N 
HETATM   29  C   UNL     1       5.660  -3.140   2.032  1.00  0.00     0.150 C 
HETATM   30  C   UNL     1       4.805  -2.123   2.818  1.00  0.00     0.255 C 
BRANCH  28  31
HETATM   31  C   UNL     1       8.003  -3.246   2.722  1.00  0.00     0.037 A 
HETATM   32  C   UNL     1       8.355  -4.612   2.601  1.00  0.00    -0.035 A 
HETATM   33  C   UNL     1       7.788  -5.502   1.523  1.00  0.00     0.050 C 
HETATM   34  C   UNL     1       9.280  -5.189   3.494  1.00  0.00     0.011 A 
HETATM   35  C   UNL     1       9.894  -4.423   4.480  1.00  0.00     0.024 A 
HETATM   36  C   UNL     1       9.586  -3.075   4.578  1.00  0.00     0.036 A 
HETATM   37 CL   UNL     1      10.339  -2.107   5.784  1.00  0.00    -0.084 Cl
HETATM   38  C   UNL     1       8.657  -2.492   3.711  1.00  0.00     0.053 A 
ENDBRANCH  28  31
ENDBRANCH  23  24
ENDBRANCH   2  23
TORSDOF 7
