REMARK  5 active torsions:
REMARK  status: ('A' for Active; 'I' for Inactive)
REMARK    1  A    between atoms: C_4  and  N_5 
REMARK       I    between atoms: N_5  and  C_6 
REMARK    2  A    between atoms: C_6  and  C_7 
REMARK    3  A    between atoms: N_9  and  C_10 
REMARK    4  A    between atoms: C_10  and  C_11 
REMARK    5  A    between atoms: C_14  and  O_15 
ROOT
HETATM    1  C   UNL     1       2.466   3.230  -0.002  1.00  0.00     0.105 C 
HETATM    2  C   UNL     1       1.502   2.093   0.284  1.00  0.00     0.140 C 
HETATM    3  N   UNL     1       0.320   2.770   0.761  1.00  0.00    -0.347 N 
HETATM    4  C   UNL     1       0.604   4.023   1.276  1.00  0.00     0.221 C 
HETATM    5  O   UNL     1      -0.161   4.750   1.887  1.00  0.00    -0.273 OA
HETATM    6  C   UNL     1       2.041   4.350   0.949  1.00  0.00     0.118 C 
ENDROOT
BRANCH   1   7
HETATM    7  C   UNL     1       2.424   3.650  -1.469  1.00  0.00     0.228 C 
HETATM    8  N   UNL     1       1.176   4.005  -1.925  1.00  0.00    -0.325 N 
HETATM    9  H   UNL     1       0.386   3.982  -1.279  1.00  0.00     0.169 HD
HETATM   10  O   UNL     1       3.456   3.640  -2.135  1.00  0.00    -0.273 OA
BRANCH   8  11
HETATM   11  C   UNL     1       0.774   4.399  -3.224  1.00  0.00     0.065 A 
HETATM   12  C   UNL     1       1.647   4.491  -4.313  1.00  0.00     0.038 A 
HETATM   13  C   UNL     1       1.171   4.872  -5.572  1.00  0.00    -0.059 A 
HETATM   14  C   UNL     1       2.107   4.993  -6.739  1.00  0.00     0.048 C 
HETATM   15  C   UNL     1      -0.183   5.191  -5.720  1.00  0.00     0.020 A 
HETATM   16  C   UNL     1      -1.064   5.104  -4.629  1.00  0.00    -0.005 A 
HETATM   17  C   UNL     1      -0.591   4.697  -3.365  1.00  0.00     0.093 A 
HETATM   18  C   UNL     1      -2.424   5.418  -4.756  1.00  0.00     0.015 A 
HETATM   19  N   UNL     1      -1.414   4.592  -2.293  1.00  0.00    -0.258 NA
HETATM   20  C   UNL     1      -2.717   4.912  -2.454  1.00  0.00     0.117 A 
HETATM   21  C   UNL     1      -3.264   5.325  -3.653  1.00  0.00     0.020 A 
ENDBRANCH   8  11
ENDBRANCH   1   7
BRANCH   3  22
HETATM   22  C   UNL     1      -0.944   2.087   0.954  1.00  0.00     0.164 C 
BRANCH  22  23
HETATM   23  C   UNL     1      -0.923   1.128   2.117  1.00  0.00    -0.040 A 
HETATM   24  C   UNL     1      -1.034   1.605   3.428  1.00  0.00     0.011 A 
HETATM   25  C   UNL     1      -1.044   0.716   4.505  1.00  0.00     0.037 A 
HETATM   26  C   UNL     1      -0.948  -0.660   4.292  1.00  0.00     0.068 A 
HETATM   27  C   UNL     1      -0.803  -1.141   2.990  1.00  0.00     0.037 A 
HETATM   28  C   UNL     1      -0.791  -0.252   1.909  1.00  0.00     0.011 A 
BRANCH  26  29
HETATM   29  O   UNL     1      -0.994  -1.424   5.425  1.00  0.00    -0.356 OA
HETATM   30  C   UNL     1      -1.243  -2.813   5.242  1.00  0.00     0.210 C 
ENDBRANCH  26  29
ENDBRANCH  22  23
ENDBRANCH   3  22
TORSDOF 5
