REMARK  6 active torsions:
REMARK  status: ('A' for Active; 'I' for Inactive)
REMARK    1  A    between atoms: C_2  and  C_3 
REMARK       I    between atoms: C_3  and  N_4 
REMARK    2  A    between atoms: N_4  and  C_5 
REMARK    3  A    between atoms: C_7  and  N_8 
REMARK       I    between atoms: N_8  and  C_9 
REMARK    4  A    between atoms: C_9  and  C_10 
REMARK    5  A    between atoms: C_12  and  O_13 
REMARK    6  A    between atoms: O_13  and  C_14 
ROOT
HETATM    1  N   UNL     1      -2.205  -5.022  -0.423  1.00  0.00    -0.322 N 
HETATM    2  C   UNL     1      -1.509  -6.189  -0.692  1.00  0.00     0.256 C 
HETATM    3  O   UNL     1      -0.311  -6.252  -0.952  1.00  0.00    -0.267 OA
HETATM    4  H   UNL     1      -3.210  -5.039  -0.470  1.00  0.00     0.169 HD
ENDROOT
BRANCH   1   5
HETATM    5  C   UNL     1      -1.624  -3.763  -0.117  1.00  0.00     0.043 A 
HETATM    6  C   UNL     1      -0.303  -3.663   0.357  1.00  0.00     0.059 A 
HETATM    7  C   UNL     1       0.248  -2.435   0.731  1.00  0.00     0.036 A 
HETATM    8  C   UNL     1      -0.528  -1.283   0.600  1.00  0.00     0.030 A 
HETATM    9  C   UNL     1      -1.842  -1.363   0.136  1.00  0.00     0.011 A 
HETATM   10  C   UNL     1      -2.407  -2.597  -0.224  1.00  0.00    -0.035 A 
HETATM   11  C   UNL     1      -3.832  -2.615  -0.704  1.00  0.00     0.050 C 
BRANCH   7  12
HETATM   12  N   UNL     1       1.554  -2.278   1.246  1.00  0.00    -0.327 N 
HETATM   13  C   UNL     1       2.445  -3.274   1.605  1.00  0.00     0.221 C 
HETATM   14  O   UNL     1       2.229  -4.482   1.624  1.00  0.00    -0.273 OA
HETATM   15  H   UNL     1       1.844  -1.326   1.428  1.00  0.00     0.169 HD
BRANCH  13  16
HETATM   16  C   UNL     1       3.785  -2.732   2.073  1.00  0.00     0.098 C 
HETATM   17  C   UNL     1       4.501  -1.929   1.002  1.00  0.00     0.014 C 
ENDBRANCH  13  16
ENDBRANCH   7  12
ENDBRANCH   1   5
BRANCH   2  18
HETATM   18  C   UNL     1      -2.275  -7.470  -0.679  1.00  0.00     0.037 A 
HETATM   19  C   UNL     1      -3.666  -7.556  -0.733  1.00  0.00     0.075 A 
HETATM   20  C   UNL     1      -4.235  -8.817  -0.676  1.00  0.00     0.165 A 
HETATM   21  N   UNL     1      -3.536  -9.965  -0.577  1.00  0.00    -0.237 NA
HETATM   22  C   UNL     1      -2.195  -9.859  -0.539  1.00  0.00     0.120 A 
HETATM   23  C   UNL     1      -1.528  -8.651  -0.587  1.00  0.00     0.036 A 
BRANCH  20  24
HETATM   24  O   UNL     1      -5.616  -8.879  -0.726  1.00  0.00    -0.329 OA
BRANCH  24  25
HETATM   25  C   UNL     1      -6.190 -10.199  -0.590  1.00  0.00     0.130 C 
HETATM   26  C   UNL     1      -6.118 -11.134  -1.828  1.00  0.00     0.032 C 
HETATM   27  C   UNL     1      -7.537 -11.610  -1.471  1.00  0.00     0.005 C 
HETATM   28  C   UNL     1      -7.732 -10.262  -0.752  1.00  0.00     0.032 C 
ENDBRANCH  24  25
ENDBRANCH  20  24
ENDBRANCH   2  18
TORSDOF 6
