REMARK  10 active torsions:
REMARK  status: ('A' for Active; 'I' for Inactive)
REMARK    1  A    between atoms: C_2  and  C_3 
REMARK    2  A    between atoms: C_3  and  O_4 
REMARK    3  A    between atoms: O_4  and  C_5 
REMARK    4  A    between atoms: C_7  and  C_8 
REMARK       I    between atoms: C_8  and  N_9 
REMARK    5  A    between atoms: N_9  and  C_10 
REMARK    6  A    between atoms: C_10  and  N_11 
REMARK    7  A    between atoms: N_11  and  C_12 
REMARK    8  A    between atoms: C_15  and  N_16 
REMARK    9  A    between atoms: N_19  and  C_21 
REMARK   10  A    between atoms: C_21  and  C_22 
ROOT
HETATM    1  C   UNL     1       7.640   4.150   3.105  1.00  0.00     0.034 A 
HETATM    2  C   UNL     1       7.543   2.879   3.669  1.00  0.00     0.032 A 
HETATM    3  C   UNL     1       7.320   1.757   2.860  1.00  0.00     0.031 A 
HETATM    4  C   UNL     1       7.154   1.866   1.471  1.00  0.00     0.030 A 
HETATM    5  C   UNL     1       7.208   3.160   0.932  1.00  0.00     0.031 A 
HETATM    6  C   UNL     1       7.442   4.288   1.735  1.00  0.00     0.032 A 
ENDROOT
BRANCH   1   7
HETATM    7  N   UNL     1       7.871   5.231   3.977  1.00  0.00    -0.333 N 
HETATM    8  H   UNL     1       7.572   5.075   4.934  1.00  0.00     0.168 HD
BRANCH   7   9
HETATM    9  C   UNL     1       8.155   6.523   3.704  1.00  0.00     0.179 C 
HETATM   10  S   UNL     1       7.529   7.715   4.700  1.00  0.00    -0.040 SA
BRANCH   9  11
HETATM   11  N   UNL     1       8.999   6.910   2.706  1.00  0.00    -0.299 N 
HETATM   12  C   UNL     1      10.113   6.241   2.201  1.00  0.00     0.257 C 
HETATM   13  O   UNL     1      10.298   5.033   2.155  1.00  0.00    -0.267 OA
HETATM   14  H   UNL     1       9.037   7.919   2.637  1.00  0.00     0.171 HD
BRANCH  12  15
HETATM   15  C   UNL     1      11.129   7.128   1.578  1.00  0.00     0.035 A 
HETATM   16  C   UNL     1      11.567   8.293   2.222  1.00  0.00     0.053 A 
HETATM   17  C   UNL     1      12.534   9.089   1.609  1.00  0.00     0.069 A 
HETATM   18  C   UNL     1      13.033   8.748   0.351  1.00  0.00     0.037 A 
HETATM   19  C   UNL     1      12.616   7.575  -0.277  1.00  0.00     0.004 A 
HETATM   20  C   UNL     1      11.671   6.756   0.341  1.00  0.00     0.017 A 
BRANCH  17  21
HETATM   21  O   UNL     1      13.012  10.249   2.152  1.00  0.00    -0.351 OA
BRANCH  21  22
HETATM   22  C   UNL     1      13.387  10.135   3.530  1.00  0.00     0.175 C 
BRANCH  22  23
HETATM   23  C   UNL     1      14.387  11.248   3.831  1.00  0.00     0.022 C 
HETATM   24  C   UNL     1      14.889  11.186   5.262  1.00  0.00     0.007 C 
ENDBRANCH  22  23
ENDBRANCH  21  22
ENDBRANCH  17  21
ENDBRANCH  12  15
ENDBRANCH   9  11
ENDBRANCH   7   9
ENDBRANCH   1   7
BRANCH   4  25
HETATM   25  N   UNL     1       7.014   0.714   0.690  1.00  0.00    -0.378 N 
HETATM   26  C   UNL     1       5.938  -0.217   1.079  1.00  0.00     0.150 C 
HETATM   27  C   UNL     1       6.243  -1.628   0.532  1.00  0.00     0.255 C 
HETATM   28  N   UNL     1       6.484  -1.596  -0.975  1.00  0.00    -0.064 N 
HETATM   29  H   UNL     1       5.608  -1.285  -1.417  1.00  0.00     0.280 HD
HETATM   30  C   UNL     1       7.568  -0.582  -1.338  1.00  0.00     0.255 C 
HETATM   31  C   UNL     1       7.244   0.810  -0.761  1.00  0.00     0.150 C 
BRANCH  28  32
HETATM   32  C   UNL     1       6.777  -2.976  -1.514  1.00  0.00     0.276 C 
BRANCH  32  33
HETATM   33  C   UNL     1       6.801  -3.053  -3.011  1.00  0.00     0.006 A 
HETATM   34  C   UNL     1       5.658  -2.711  -3.740  1.00  0.00     0.124 A 
HETATM   35  F   UNL     1       4.574  -2.279  -3.079  1.00  0.00    -0.206 F 
HETATM   36  C   UNL     1       5.633  -2.771  -5.128  1.00  0.00     0.043 A 
HETATM   37  C   UNL     1       6.775  -3.183  -5.813  1.00  0.00     0.003 A 
HETATM   38  C   UNL     1       7.926  -3.530  -5.105  1.00  0.00     0.001 A 
HETATM   39  C   UNL     1       7.942  -3.470  -3.709  1.00  0.00     0.012 A 
ENDBRANCH  32  33
ENDBRANCH  28  32
ENDBRANCH   4  25
TORSDOF 10
