REMARK  3 active torsions:
REMARK  status: ('A' for Active; 'I' for Inactive)
REMARK    1  A    between atoms: C_2  and  N_3 
REMARK       I    between atoms: N_3  and  C_4 
REMARK    2  A    between atoms: C_4  and  C_5 
REMARK    3  A    between atoms: C_5  and  C_6 
ROOT
HETATM    1  C   UNL     1      -0.882   1.758   0.355  1.00  0.00     0.286 C 
HETATM    2  N   UNL     1      -1.801   1.818  -0.858  1.00  0.00    -0.056 N 
HETATM    3  H   UNL     1      -2.682   1.343  -0.568  1.00  0.00     0.278 HD
HETATM    4  H   UNL     1      -2.058   2.789  -1.072  1.00  0.00     0.278 HD
HETATM    5  C   UNL     1      -1.204   1.131  -2.061  1.00  0.00     0.209 C 
HETATM    6  C   UNL     1      -0.909  -0.350  -1.707  1.00  0.00     0.115 C 
HETATM    7  N   UNL     1      -0.169  -0.483  -0.451  1.00  0.00    -0.353 N 
HETATM    8  C   UNL     1      -0.346   0.338   0.638  1.00  0.00     0.249 C 
HETATM    9  O   UNL     1       0.017  -0.026   1.750  1.00  0.00    -0.271 OA
HETATM   10  C   UNL     1      -2.150   1.285  -3.252  1.00  0.00     0.035 C 
HETATM   11  C   UNL     1      -3.400   0.417  -3.146  1.00  0.00     0.002 C 
HETATM   12  C   UNL     1      -3.043  -1.044  -2.896  1.00  0.00     0.002 C 
HETATM   13  C   UNL     1      -2.184  -1.204  -1.647  1.00  0.00     0.027 C 
HETATM   14  H   UNL     1       0.201  -1.400  -0.209  1.00  0.00     0.163 HD
ENDROOT
BRANCH   1  15
HETATM   15  C   UNL     1      -1.544   2.369   1.598  1.00  0.00     0.146 C 
BRANCH  15  16
HETATM   16  C   UNL     1      -2.849   1.684   1.910  1.00  0.00     0.224 C 
HETATM   17  N   UNL     1      -3.463   1.788   3.116  1.00  0.00    -0.327 N 
HETATM   18  H   UNL     1      -4.275   1.177   3.170  1.00  0.00     0.169 HD
HETATM   19  O   UNL     1      -3.399   1.031   1.011  1.00  0.00    -0.273 OA
BRANCH  17  20
HETATM   20  C   UNL     1      -3.208   2.532   4.285  1.00  0.00     0.034 A 
HETATM   21  C   UNL     1      -2.286   3.575   4.401  1.00  0.00     0.032 A 
HETATM   22  C   UNL     1      -2.123   4.248   5.619  1.00  0.00     0.044 A 
HETATM   23  C   UNL     1      -2.890   3.889   6.718  1.00  0.00     0.116 A 
HETATM   24  C   UNL     1      -3.825   2.872   6.623  1.00  0.00     0.044 A 
HETATM   25  F   UNL     1      -2.730   4.538   7.877  1.00  0.00    -0.206 F 
HETATM   26  C   UNL     1      -3.986   2.200   5.408  1.00  0.00     0.032 A 
ENDBRANCH  17  20
ENDBRANCH  15  16
ENDBRANCH   1  15
TORSDOF 3
