REMARK  5 active torsions:
REMARK  status: ('A' for Active; 'I' for Inactive)
REMARK    1  A    between atoms: O_2  and  C_3 
REMARK    2  A    between atoms: C_10  and  C_11 
REMARK    3  A    between atoms: C_11  and  C_12 
REMARK       I    between atoms: C_12  and  N_13 
REMARK    4  A    between atoms: N_13  and  C_14 
REMARK    5  A    between atoms: C_16  and  C_17 
ROOT
HETATM    1  C   UNL     1       2.345   3.067   0.633  1.00  0.00     0.035 A 
HETATM    2  C   UNL     1       2.836   4.167  -0.086  1.00  0.00     0.046 A 
HETATM    3  C   UNL     1       3.723   3.995  -1.166  1.00  0.00     0.036 A 
HETATM    4  C   UNL     1       4.109   2.699  -1.531  1.00  0.00     0.048 A 
HETATM    5 CL   UNL     1       5.211   2.392  -2.827  1.00  0.00    -0.083 Cl
HETATM    6  C   UNL     1       3.620   1.601  -0.823  1.00  0.00     0.027 A 
HETATM    7  C   UNL     1       2.746   1.786   0.254  1.00  0.00     0.031 A 
ENDROOT
BRANCH   1   8
HETATM    8  N   UNL     1       1.425   3.325   1.673  1.00  0.00    -0.327 N 
HETATM    9  C   UNL     1       0.823   2.391   2.509  1.00  0.00     0.226 C 
HETATM   10  O   UNL     1       1.142   1.209   2.608  1.00  0.00    -0.273 OA
HETATM   11  H   UNL     1       1.161   4.293   1.815  1.00  0.00     0.169 HD
BRANCH   9  12
HETATM   12  C   UNL     1      -0.362   2.949   3.271  1.00  0.00     0.144 C 
BRANCH  12  13
HETATM   13  C   UNL     1      -0.140   3.370   4.692  1.00  0.00    -0.021 A 
HETATM   14  C   UNL     1       0.947   3.121   5.602  1.00  0.00     0.001 A 
HETATM   15  C   UNL     1       2.194   2.460   5.528  1.00  0.00     0.051 A 
HETATM   16  C   UNL     1       0.593   3.681   6.834  1.00  0.00     0.043 A 
HETATM   17  C   UNL     1       3.031   2.379   6.655  1.00  0.00     0.069 A 
HETATM   18  C   UNL     1       2.630   2.945   7.862  1.00  0.00     0.039 A 
HETATM   19  C   UNL     1       1.404   3.606   7.972  1.00  0.00     0.033 A 
HETATM   20  N   UNL     1      -0.641   4.261   6.684  1.00  0.00    -0.365 N 
HETATM   21  H   UNL     1      -1.148   4.728   7.423  1.00  0.00     0.165 HD
HETATM   22  C   UNL     1      -1.087   4.088   5.407  1.00  0.00     0.097 A 
BRANCH  17  23
HETATM   23  O   UNL     1       4.213   1.720   6.439  1.00  0.00    -0.356 OA
HETATM   24  C   UNL     1       5.065   1.540   7.564  1.00  0.00     0.210 C 
ENDBRANCH  17  23
ENDBRANCH  12  13
ENDBRANCH   9  12
ENDBRANCH   1   8
BRANCH   3  25
HETATM   25  C   UNL     1       4.199   5.169  -1.889  1.00  0.00     0.165 A 
HETATM   26  N   UNL     1       5.177   6.041  -1.458  1.00  0.00    -0.316 N 
HETATM   27  C   UNL     1       5.309   6.984  -2.448  1.00  0.00     0.130 A 
HETATM   28  C   UNL     1       5.862   5.974  -0.184  1.00  0.00     0.132 C 
HETATM   29  C   UNL     1       6.248   8.140  -2.442  1.00  0.00     0.081 C 
HETATM   30  N   UNL     1       4.458   6.706  -3.413  1.00  0.00    -0.134 NA
HETATM   31  C   UNL     1       6.315   8.837  -1.088  1.00  0.00     0.008 C 
HETATM   32  C   UNL     1       7.230   8.138  -0.081  1.00  0.00     0.002 C 
HETATM   33  C   UNL     1       7.247   6.610  -0.139  1.00  0.00     0.020 C 
HETATM   34  N   UNL     1       3.765   5.577  -3.064  1.00  0.00    -0.129 NA
ENDBRANCH   3  25
TORSDOF 5
