REMARK  8 active torsions:
REMARK  status: ('A' for Active; 'I' for Inactive)
REMARK    1  A    between atoms: C_2  and  C_3 
REMARK    2  A    between atoms: C_3  and  N_4 
REMARK    3  A    between atoms: C_12  and  C_13 
REMARK    4  A    between atoms: C_13  and  N_14 
REMARK    5  A    between atoms: C_22  and  C_23 
REMARK    6  A    between atoms: C_23  and  C_24 
REMARK    7  A    between atoms: C_24  and  N_25 
REMARK       I    between atoms: N_25  and  C_26 
REMARK    8  A    between atoms: C_26  and  C_27 
ROOT
HETATM    1  N   UNL     1       1.126  -2.761  -0.283  1.00  0.00    -0.065 N 
HETATM    2  H   UNL     1       0.343  -2.975   0.352  1.00  0.00     0.280 HD
HETATM    3  C   UNL     1       0.491  -2.118  -1.514  1.00  0.00     0.255 C 
HETATM    4  C   UNL     1       1.348  -2.246  -2.767  1.00  0.00     0.159 C 
HETATM    5  N   UNL     1       1.155  -3.511  -3.441  1.00  0.00    -0.319 N 
HETATM    6  C   UNL     1       1.037  -4.745  -2.843  1.00  0.00     0.131 A 
HETATM    7  C   UNL     1       1.003  -5.040  -1.384  1.00  0.00     0.108 C 
HETATM    8  C   UNL     1       1.835  -4.093  -0.532  1.00  0.00     0.243 C 
HETATM    9  C   UNL     1       1.034  -3.729  -4.792  1.00  0.00     0.131 A 
HETATM   10  N   UNL     1       0.910  -5.024  -4.992  1.00  0.00    -0.135 NA
HETATM   11  N   UNL     1       0.900  -5.653  -3.780  1.00  0.00    -0.135 NA
ENDROOT
BRANCH   1  12
HETATM   12  C   UNL     1       2.018  -1.820   0.511  1.00  0.00     0.280 C 
BRANCH  12  13
HETATM   13  C   UNL     1       1.300  -0.648   1.122  1.00  0.00     0.009 A 
HETATM   14  S   UNL     1      -0.091  -0.872   2.101  1.00  0.00    -0.096 SA
HETATM   15  C   UNL     1      -0.222   0.805   2.450  1.00  0.00     0.009 A 
HETATM   16  C   UNL     1       0.773   1.521   1.813  1.00  0.00     0.017 A 
HETATM   17  C   UNL     1       1.640   0.688   1.043  1.00  0.00     0.017 A 
BRANCH  15  18
HETATM   18  C   UNL     1      -1.290   1.300   3.389  1.00  0.00     0.280 C 
BRANCH  18  19
HETATM   19  N   UNL     1      -2.104   2.456   2.841  1.00  0.00    -0.067 N 
HETATM   20  H   UNL     1      -1.434   3.170   2.532  1.00  0.00     0.280 HD
HETATM   21  C   UNL     1      -2.949   2.068   1.649  1.00  0.00     0.235 C 
HETATM   22  C   UNL     1      -3.634   3.305   1.087  1.00  0.00     0.028 C 
HETATM   23  C   UNL     1      -4.468   4.016   2.146  1.00  0.00     0.003 C 
HETATM   24  C   UNL     1      -3.634   4.334   3.381  1.00  0.00     0.028 C 
HETATM   25  C   UNL     1      -2.944   3.094   3.931  1.00  0.00     0.235 C 
ENDBRANCH  18  19
ENDBRANCH  15  18
ENDBRANCH  12  13
ENDBRANCH   1  12
BRANCH   9  26
HETATM   26  C   UNL     1       1.030  -2.688  -5.860  1.00  0.00     0.100 C 
BRANCH  26  27
HETATM   27  C   UNL     1      -0.174  -2.802  -6.798  1.00  0.00     0.130 C 
BRANCH  27  28
HETATM   28  N   UNL     1      -1.505  -2.846  -6.201  1.00  0.00    -0.360 N 
HETATM   29  C   UNL     1      -1.947  -2.105  -5.132  1.00  0.00     0.222 C 
HETATM   30  O   UNL     1      -1.216  -1.418  -4.422  1.00  0.00    -0.273 OA
HETATM   31  H   UNL     1      -2.203  -3.327  -6.758  1.00  0.00     0.162 HD
BRANCH  29  32
HETATM   32  C   UNL     1      -3.449  -2.267  -4.867  1.00  0.00     0.082 C 
HETATM   33  C   UNL     1      -3.781  -3.686  -4.395  1.00  0.00     0.040 C 
HETATM   34  C   UNL     1      -3.302  -3.911  -2.967  1.00  0.00     0.168 C 
HETATM   35  O   UNL     1      -3.845  -2.940  -2.071  1.00  0.00    -0.391 OA
HETATM   36  C   UNL     1      -3.533  -1.598  -2.426  1.00  0.00     0.168 C 
HETATM   37  C   UNL     1      -3.966  -1.252  -3.844  1.00  0.00     0.040 C 
ENDBRANCH  29  32
ENDBRANCH  27  28
ENDBRANCH  26  27
ENDBRANCH   9  26
TORSDOF 8
