REMARK  6 active torsions:
REMARK  status: ('A' for Active; 'I' for Inactive)
REMARK    1  A    between atoms: C_3  and  C_4 
REMARK    2  A    between atoms: C_4  and  C_5 
REMARK    3  A    between atoms: N_8  and  C_10 
REMARK    4  A    between atoms: C_10  and  C_11 
REMARK    5  A    between atoms: N_24  and  C_25 
REMARK    6  A    between atoms: C_25  and  C_26 
ROOT
HETATM    1  C   UNL     1       8.231   2.575   1.209  1.00  0.00     0.164 C 
HETATM    2  N   UNL     1       7.298   1.520   0.857  1.00  0.00    -0.319 N 
HETATM    3  C   UNL     1       6.050   1.696   1.407  1.00  0.00     0.326 C 
HETATM    4  O   UNL     1       5.071   1.050   1.085  1.00  0.00    -0.247 OA
HETATM    5  N   UNL     1       6.109   2.754   2.262  1.00  0.00    -0.265 N 
HETATM    6  C   UNL     1       7.367   3.283   2.270  1.00  0.00     0.263 C 
HETATM    7  O   UNL     1       7.716   4.237   2.955  1.00  0.00    -0.270 OA
HETATM    8  H   UNL     1       7.491   0.762   0.211  1.00  0.00     0.166 HD
ENDROOT
BRANCH   1   9
HETATM    9  C   UNL     1       9.513   1.977   1.792  1.00  0.00     0.072 A 
HETATM   10  C   UNL     1       9.590   1.520   3.111  1.00  0.00     0.030 A 
HETATM   11  C   UNL     1      10.783   0.966   3.573  1.00  0.00     0.003 A 
HETATM   12  C   UNL     1      11.866   0.854   2.713  1.00  0.00     0.019 A 
HETATM   13  C   UNL     1      11.710   1.298   1.415  1.00  0.00     0.117 A 
HETATM   14  N   UNL     1      10.568   1.849   0.942  1.00  0.00    -0.262 NA
ENDBRANCH   1   9
BRANCH   1  15
HETATM   15  C   UNL     1       8.491   3.485  -0.062  1.00  0.00     0.033 C 
HETATM   16  C   UNL     1       9.376   4.726   0.169  1.00  0.00     0.036 C 
HETATM   17  C   UNL     1       8.666   5.982   0.658  1.00  0.00     0.235 C 
HETATM   18  N   UNL     1       7.423   6.275  -0.146  1.00  0.00    -0.067 N 
HETATM   19  H   UNL     1       7.731   6.583  -1.080  1.00  0.00     0.280 HD
HETATM   20  C   UNL     1       6.507   5.098  -0.335  1.00  0.00     0.235 C 
HETATM   21  C   UNL     1       7.261   3.907  -0.890  1.00  0.00     0.036 C 
BRANCH  18  22
HETATM   22  C   UNL     1       6.626   7.437   0.444  1.00  0.00     0.278 C 
BRANCH  22  23
HETATM   23  C   UNL     1       7.375   8.722   0.623  1.00  0.00     0.028 A 
HETATM   24  C   UNL     1       7.883   9.468  -0.447  1.00  0.00     0.045 A 
HETATM   25 CL   UNL     1       7.721   8.910  -2.073  1.00  0.00    -0.084 Cl
HETATM   26  C   UNL     1       8.551  10.675  -0.221  1.00  0.00     0.024 A 
HETATM   27  C   UNL     1       8.717  11.153   1.081  1.00  0.00     0.005 A 
HETATM   28  C   UNL     1       8.220  10.421   2.154  1.00  0.00     0.043 A 
HETATM   29  C   UNL     1       7.556   9.223   1.917  1.00  0.00     0.126 A 
HETATM   30  F   UNL     1       7.088   8.527   2.962  1.00  0.00    -0.205 F 
ENDBRANCH  22  23
ENDBRANCH  18  22
ENDBRANCH   1  15
BRANCH   5  31
HETATM   31  C   UNL     1       5.002   3.241   3.073  1.00  0.00     0.168 C 
BRANCH  31  32
HETATM   32  C   UNL     1       4.868   2.477   4.401  1.00  0.00     0.140 C 
HETATM   33  O   UNL     1       4.281   1.192   4.147  1.00  0.00    -0.384 OA
HETATM   34  C   UNL     1       2.859   1.286   4.345  1.00  0.00     0.168 C 
HETATM   35  C   UNL     1       2.562   2.676   4.877  1.00  0.00     0.029 C 
HETATM   36  C   UNL     1       3.908   3.147   5.369  1.00  0.00     0.036 C 
ENDBRANCH  31  32
ENDBRANCH   5  31
TORSDOF 6
