REMARK  2 active torsions:
REMARK  status: ('A' for Active; 'I' for Inactive)
REMARK    1  A    between atoms: C_8  and  S_9 
REMARK    2  A    between atoms: S_9  and  C_10 
ROOT
HETATM    1  C   UNL     1       5.026  -3.480  -0.433  1.00  0.00     0.002 A 
HETATM    2  C   UNL     1       4.832  -2.106  -0.583  1.00  0.00     0.034 A 
HETATM    3  C   UNL     1       5.057  -1.474  -1.800  1.00  0.00     0.087 A 
HETATM    4  C   UNL     1       5.507  -2.249  -2.904  1.00  0.00     0.087 A 
HETATM    5  N   UNL     1       5.770  -1.684  -4.099  1.00  0.00    -0.231 NA
HETATM    6  C   UNL     1       5.617  -0.346  -4.202  1.00  0.00     0.167 A 
HETATM    7 CL   UNL     1       6.025   0.272  -5.742  1.00  0.00    -0.059 Cl
HETATM    8  C   UNL     1       5.167   0.390  -3.132  1.00  0.00     0.193 A 
HETATM    9  N   UNL     1       4.849  -0.144  -1.914  1.00  0.00    -0.232 NA
HETATM   10  C   UNL     1       5.681  -3.617  -2.744  1.00  0.00     0.034 A 
HETATM   11  C   UNL     1       5.444  -4.239  -1.518  1.00  0.00     0.002 A 
ENDROOT
BRANCH   8  12
HETATM   12  S   UNL     1       4.913   2.124  -3.250  1.00  0.00     0.201 S 
HETATM   13  O   UNL     1       6.211   2.758  -3.146  1.00  0.00    -0.221 OA
HETATM   14  O   UNL     1       4.023   2.374  -4.368  1.00  0.00    -0.221 OA
BRANCH  12  15
HETATM   15  C   UNL     1       3.977   2.587  -1.792  1.00  0.00     0.141 C 
HETATM   16  C   UNL     1       2.555   2.052  -1.919  1.00  0.00     0.252 C 
HETATM   17  N   UNL     1       1.710   2.527  -0.767  1.00  0.00    -0.074 N 
HETATM   18  H   UNL     1       2.045   2.117   0.118  1.00  0.00     0.277 HD
HETATM   19  H   UNL     1       0.751   2.167  -0.888  1.00  0.00     0.277 HD
HETATM   20  C   UNL     1       1.644   4.015  -0.642  1.00  0.00     0.232 C 
HETATM   21  C   UNL     1       3.055   4.556  -0.478  1.00  0.00     0.029 C 
HETATM   22  C   UNL     1       3.966   4.115  -1.624  1.00  0.00     0.024 C 
ENDBRANCH  12  15
ENDBRANCH   8  12
TORSDOF 2
