REMARK  4 active torsions:
REMARK  status: ('A' for Active; 'I' for Inactive)
REMARK    1  A    between atoms: C_5  and  N_6 
REMARK       I    between atoms: N_6  and  C_7 
REMARK    2  A    between atoms: C_7  and  C_8 
REMARK    3  A    between atoms: C_8  and  N_9 
REMARK    4  A    between atoms: C_11  and  C_12 
REMARK       I    between atoms: C_12  and  N_13 
ROOT
HETATM    1  N   UNL     1       1.466  -3.100   0.717  1.00  0.00    -0.325 N 
HETATM    2  C   UNL     1       1.973  -3.016  -0.570  1.00  0.00     0.240 C 
HETATM    3  O   UNL     1       1.355  -3.205  -1.614  1.00  0.00    -0.271 OA
HETATM    4  H   UNL     1       2.050  -2.791   1.482  1.00  0.00     0.169 HD
ENDROOT
BRANCH   2   5
HETATM    5  C   UNL     1       3.443  -2.632  -0.623  1.00  0.00     0.230 C 
BRANCH   5   6
HETATM    6  N   UNL     1       3.881  -2.556  -2.040  1.00  0.00    -0.357 N 
HETATM    7  C   UNL     1       4.218  -3.696  -2.692  1.00  0.00     0.108 A 
HETATM    8  C   UNL     1       4.554  -3.673  -4.045  1.00  0.00     0.047 A 
HETATM    9  C   UNL     1       4.563  -2.457  -4.723  1.00  0.00     0.020 A 
HETATM   10  C   UNL     1       4.213  -1.297  -4.037  1.00  0.00     0.018 A 
HETATM   11  C   UNL     1       3.862  -1.370  -2.692  1.00  0.00     0.091 A 
BRANCH   8  12
HETATM   12  C   UNL     1       4.904  -4.966  -4.663  1.00  0.00     0.250 C 
HETATM   13  N   UNL     1       4.858  -5.075  -6.020  1.00  0.00    -0.366 N 
HETATM   14  H   UNL     1       4.460  -4.390  -6.647  1.00  0.00     0.159 HD
HETATM   15  H   UNL     1       5.040  -5.994  -6.412  1.00  0.00     0.159 HD
HETATM   16  O   UNL     1       5.199  -5.911  -3.944  1.00  0.00    -0.268 OA
ENDBRANCH   8  12
ENDBRANCH   5   6
ENDBRANCH   2   5
BRANCH   1  17
HETATM   17  C   UNL     1       0.164  -3.537   1.100  1.00  0.00     0.045 A 
HETATM   18  C   UNL     1      -0.271  -3.354   2.454  1.00  0.00     0.001 A 
HETATM   19  C   UNL     1      -1.556  -3.837   2.821  1.00  0.00    -0.024 A 
HETATM   20  C   UNL     1       0.477  -2.705   3.476  1.00  0.00     0.014 A 
HETATM   21  C   UNL     1      -2.033  -3.682   4.132  1.00  0.00     0.012 A 
HETATM   22  C   UNL     1      -2.368  -4.472   1.875  1.00  0.00     0.012 A 
HETATM   23  C   UNL     1      -1.268  -3.047   5.106  1.00  0.00     0.001 A 
HETATM   24  C   UNL     1      -0.014  -2.557   4.778  1.00  0.00     0.001 A 
HETATM   25  C   UNL     1      -1.937  -4.639   0.566  1.00  0.00     0.003 A 
HETATM   26  C   UNL     1      -0.682  -4.176   0.182  1.00  0.00     0.030 A 
ENDBRANCH   1  17
TORSDOF 4
