REMARK  6 active torsions:
REMARK  status: ('A' for Active; 'I' for Inactive)
REMARK    1  A    between atoms: C_5  and  N_6 
REMARK    2  A    between atoms: C_8  and  C_9 
REMARK    3  A    between atoms: C_11  and  O_12 
REMARK    4  A    between atoms: C_17  and  C_18 
REMARK       I    between atoms: C_18  and  N_19 
REMARK    5  A    between atoms: N_19  and  N_20 
REMARK       I    between atoms: N_20  and  C_21 
REMARK    6  A    between atoms: C_21  and  C_22 
ROOT
HETATM    1  N   UNL     1       6.597   0.009  -0.867  1.00  0.00    -0.244 N 
HETATM    2  N   UNL     1       7.215   1.140  -1.260  1.00  0.00    -0.166 NA
HETATM    3  C   UNL     1       8.499   0.812  -1.479  1.00  0.00     0.105 A 
HETATM    4  C   UNL     1       8.724  -0.573  -1.199  1.00  0.00     0.082 A 
HETATM    5  C   UNL     1       7.479  -1.041  -0.806  1.00  0.00     0.138 A 
ENDROOT
BRANCH   4   6
HETATM    6  C   UNL     1       9.951  -1.356  -1.257  1.00  0.00     0.274 C 
HETATM    7  N   UNL     1       9.762  -2.727  -1.248  1.00  0.00    -0.263 N 
HETATM    8  H   UNL     1       8.850  -3.154  -1.386  1.00  0.00     0.190 HD
HETATM    9  O   UNL     1      11.077  -0.867  -1.325  1.00  0.00    -0.266 OA
BRANCH   7  10
HETATM   10  N   UNL     1      10.862  -3.564  -1.487  1.00  0.00    -0.262 N 
HETATM   11  C   UNL     1      10.618  -4.851  -1.920  1.00  0.00     0.286 C 
HETATM   12  O   UNL     1       9.469  -5.286  -2.018  1.00  0.00    -0.264 OA
HETATM   13  H   UNL     1      11.783  -3.135  -1.481  1.00  0.00     0.190 HD
BRANCH  11  14
HETATM   14  C   UNL     1      11.782  -5.639  -2.253  1.00  0.00     0.102 A 
HETATM   15  N   UNL     1      11.662  -6.942  -2.690  1.00  0.00    -0.361 N 
HETATM   16  H   UNL     1      10.774  -7.418  -2.803  1.00  0.00     0.165 HD
HETATM   17  C   UNL     1      12.896  -7.476  -2.939  1.00  0.00     0.088 A 
HETATM   18  C   UNL     1      13.836  -6.511  -2.663  1.00  0.00     0.019 A 
HETATM   19  C   UNL     1      13.138  -5.355  -2.230  1.00  0.00     0.036 A 
ENDBRANCH  11  14
ENDBRANCH   7  10
ENDBRANCH   4   6
BRANCH   3  20
HETATM   20  C   UNL     1       9.423   1.854  -1.950  1.00  0.00    -0.002 A 
HETATM   21  C   UNL     1      10.421   1.583  -2.897  1.00  0.00     0.050 A 
HETATM   22  C   UNL     1      11.285   2.593  -3.330  1.00  0.00     0.069 A 
HETATM   23  C   UNL     1      11.115   3.897  -2.864  1.00  0.00     0.037 A 
HETATM   24  C   UNL     1      10.115   4.188  -1.940  1.00  0.00     0.004 A 
HETATM   25  C   UNL     1       9.278   3.170  -1.482  1.00  0.00     0.014 A 
BRANCH  22  26
HETATM   26  O   UNL     1      12.304   2.425  -4.229  1.00  0.00    -0.356 OA
HETATM   27  C   UNL     1      12.855   1.113  -4.289  1.00  0.00     0.210 C 
ENDBRANCH  22  26
ENDBRANCH   3  20
BRANCH   1  28
HETATM   28  C   UNL     1       5.203  -0.001  -0.575  1.00  0.00     0.058 A 
HETATM   29  C   UNL     1       4.466   1.186  -0.695  1.00  0.00     0.032 A 
HETATM   30  C   UNL     1       3.094   1.198  -0.425  1.00  0.00     0.009 A 
HETATM   31  C   UNL     1       2.440   0.028  -0.024  1.00  0.00    -0.062 A 
HETATM   32  C   UNL     1       0.962   0.025   0.232  1.00  0.00     0.048 C 
HETATM   33  C   UNL     1       3.175  -1.157   0.086  1.00  0.00     0.009 A 
HETATM   34  C   UNL     1       4.548  -1.176  -0.183  1.00  0.00     0.032 A 
ENDBRANCH   1  28
TORSDOF 6
