REMARK  6 active torsions:
REMARK  status: ('A' for Active; 'I' for Inactive)
REMARK    1  A    between atoms: C_5  and  C_6 
REMARK    2  A    between atoms: C_12  and  C_13 
REMARK       I    between atoms: C_13  and  N_14 
REMARK    3  A    between atoms: N_14  and  C_15 
REMARK    4  A    between atoms: C_18  and  C_19 
REMARK    5  A    between atoms: C_19  and  O_20 
REMARK    6  A    between atoms: C_25  and  C_26 
ROOT
HETATM    1  C   UNL     1       1.924  -3.560  -1.580  1.00  0.00     0.097 C 
HETATM    2  N   UNL     1       1.730  -2.887  -2.881  1.00  0.00    -0.268 NA
HETATM    3  C   UNL     1       1.569  -3.711  -3.961  1.00  0.00     0.118 C 
HETATM    4  N   UNL     1       2.006  -5.018  -3.911  1.00  0.00    -0.245 N 
HETATM    5  N   UNL     1       1.648  -5.747  -4.975  1.00  0.00    -0.182 NA
HETATM    6  C   UNL     1       1.101  -4.845  -5.792  1.00  0.00     0.159 C 
HETATM    7  C   UNL     1       1.038  -3.544  -5.227  1.00  0.00     0.091 C 
HETATM    8  C   UNL     1       2.721  -5.618  -2.798  1.00  0.00     0.221 C 
HETATM    9  C   UNL     1       3.074  -4.560  -1.733  1.00  0.00     0.061 C 
HETATM   10  H   UNL     1       2.382  -2.105  -2.990  1.00  0.00     0.130 HD
ENDROOT
BRANCH   7  11
HETATM   11  C   UNL     1       0.497  -2.372  -5.899  1.00  0.00     0.261 C 
HETATM   12  N   UNL     1       0.541  -1.213  -5.151  1.00  0.00    -0.323 N 
HETATM   13  H   UNL     1       0.814  -1.331  -4.182  1.00  0.00     0.169 HD
HETATM   14  O   UNL     1       0.080  -2.468  -7.048  1.00  0.00    -0.267 OA
BRANCH  12  15
HETATM   15  C   UNL     1       0.329   0.104  -5.609  1.00  0.00     0.035 A 
HETATM   16  C   UNL     1      -0.037   0.424  -6.917  1.00  0.00     0.030 A 
HETATM   17  C   UNL     1      -0.151   1.758  -7.329  1.00  0.00     0.012 A 
HETATM   18  C   UNL     1       0.106   2.809  -6.443  1.00  0.00    -0.030 A 
HETATM   19  C   UNL     1       0.440   2.482  -5.119  1.00  0.00     0.012 A 
HETATM   20  C   UNL     1       0.547   1.148  -4.705  1.00  0.00     0.030 A 
BRANCH  18  21
HETATM   21  C   UNL     1       0.036   4.270  -6.841  1.00  0.00     0.147 C 
HETATM   22  C   UNL     1      -0.114   4.561  -8.332  1.00  0.00     0.044 C 
BRANCH  21  23
HETATM   23  O   UNL     1      -1.059   4.892  -6.168  1.00  0.00    -0.391 OA
HETATM   24  H   UNL     1      -1.709   4.197  -5.968  1.00  0.00     0.210 HD
ENDBRANCH  21  23
ENDBRANCH  18  21
ENDBRANCH  12  15
ENDBRANCH   7  11
BRANCH   1  25
HETATM   25  C   UNL     1       2.069  -2.530  -0.476  1.00  0.00    -0.040 A 
HETATM   26  C   UNL     1       0.952  -1.743  -0.143  1.00  0.00     0.009 A 
HETATM   27  C   UNL     1       0.992  -0.847   0.928  1.00  0.00     0.007 A 
HETATM   28  C   UNL     1       2.156  -0.703   1.687  1.00  0.00    -0.062 A 
HETATM   29  C   UNL     1       2.175   0.197   2.887  1.00  0.00     0.048 C 
HETATM   30  C   UNL     1       3.277  -1.468   1.354  1.00  0.00     0.007 A 
HETATM   31  C   UNL     1       3.238  -2.364   0.280  1.00  0.00     0.009 A 
ENDBRANCH   1  25
BRANCH   8  32
HETATM   32  C   UNL     1       3.990  -6.300  -3.264  1.00  0.00     0.409 C 
HETATM   33  F   UNL     1       4.821  -5.445  -3.905  1.00  0.00    -0.169 F 
HETATM   34  F   UNL     1       4.677  -6.764  -2.184  1.00  0.00    -0.169 F 
HETATM   35  F   UNL     1       3.778  -7.365  -4.060  1.00  0.00    -0.169 F 
ENDBRANCH   8  32
TORSDOF 6
