REMARK  5 active torsions:
REMARK  status: ('A' for Active; 'I' for Inactive)
REMARK    1  A    between atoms: C_4  and  C_5 
REMARK    2  A    between atoms: C_5  and  O_6 
REMARK    3  A    between atoms: O_6  and  C_7 
REMARK    4  A    between atoms: C_10  and  N_11 
REMARK       I    between atoms: N_11  and  C_12 
REMARK    5  A    between atoms: C_12  and  C_13 
ROOT
HETATM    1  N   UNL     1       8.999  -1.713  -1.183  1.00  0.00    -0.322 N 
HETATM    2  C   UNL     1       9.916  -0.775  -1.605  1.00  0.00     0.277 C 
HETATM    3  O   UNL     1       9.791   0.436  -1.679  1.00  0.00    -0.266 OA
HETATM    4  H   UNL     1       9.376  -2.648  -1.054  1.00  0.00     0.169 HD
ENDROOT
BRANCH   1   5
HETATM    5  C   UNL     1       7.636  -1.516  -0.904  1.00  0.00     0.035 A 
HETATM    6  C   UNL     1       6.976  -0.303  -1.096  1.00  0.00     0.032 A 
HETATM    7  C   UNL     1       5.597  -0.210  -0.879  1.00  0.00     0.039 A 
HETATM    8  C   UNL     1       4.863  -1.326  -0.477  1.00  0.00     0.069 A 
HETATM    9  C   UNL     1       5.526  -2.526  -0.230  1.00  0.00     0.039 A 
HETATM   10  C   UNL     1       6.905  -2.621  -0.452  1.00  0.00     0.032 A 
BRANCH   8  11
HETATM   11  O   UNL     1       3.518  -1.121  -0.352  1.00  0.00    -0.347 OA
BRANCH  11  12
HETATM   12  C   UNL     1       2.689  -2.280  -0.472  1.00  0.00     0.214 C 
BRANCH  12  13
HETATM   13  C   UNL     1       1.298  -1.873  -0.906  1.00  0.00    -0.034 A 
HETATM   14  C   UNL     1       0.581  -2.679  -1.804  1.00  0.00     0.009 A 
HETATM   15  C   UNL     1      -0.708  -2.323  -2.206  1.00  0.00     0.001 A 
HETATM   16  C   UNL     1      -1.299  -1.164  -1.707  1.00  0.00     0.000 A 
HETATM   17  C   UNL     1      -0.605  -0.365  -0.801  1.00  0.00     0.001 A 
HETATM   18  C   UNL     1       0.683  -0.720  -0.397  1.00  0.00     0.009 A 
ENDBRANCH  12  13
ENDBRANCH  11  12
ENDBRANCH   8  11
ENDBRANCH   1   5
BRANCH   2  19
HETATM   19  C   UNL     1      11.237  -1.426  -2.014  1.00  0.00     0.156 A 
HETATM   20  N   UNL     1      11.655  -2.393  -1.243  1.00  0.00    -0.166 NA
HETATM   21  N   UNL     1      12.818  -3.018  -1.578  1.00  0.00    -0.242 N 
HETATM   22  C   UNL     1      13.607  -2.731  -2.666  1.00  0.00     0.272 A 
HETATM   23  H   UNL     1      13.144  -3.749  -0.952  1.00  0.00     0.192 HD
HETATM   24  O   UNL     1      14.648  -3.336  -2.897  1.00  0.00    -0.266 OA
HETATM   25  C   UNL     1      13.124  -1.661  -3.555  1.00  0.00     0.046 A 
HETATM   26  C   UNL     1      11.937  -1.000  -3.245  1.00  0.00     0.016 A 
HETATM   27  C   UNL     1      13.847  -1.328  -4.708  1.00  0.00     0.018 A 
HETATM   28  C   UNL     1      11.460  -0.007  -4.109  1.00  0.00     0.015 A 
HETATM   29  C   UNL     1      12.181   0.327  -5.260  1.00  0.00     0.001 A 
HETATM   30  C   UNL     1      13.373  -0.331  -5.559  1.00  0.00     0.001 A 
ENDBRANCH   2  19
TORSDOF 5
