REMARK  4 active torsions:
REMARK  status: ('A' for Active; 'I' for Inactive)
REMARK    1  A    between atoms: C_6  and  C_7 
REMARK       I    between atoms: C_7  and  N_8 
REMARK    2  A    between atoms: N_8  and  C_9 
REMARK    3  A    between atoms: C_10  and  C_11 
REMARK    4  A    between atoms: C_11  and  C_12 
ROOT
HETATM    1  C   UNL     1       2.502  -2.334  -0.938  1.00  0.00     0.259 C 
HETATM    2  N   UNL     1       1.257  -2.690  -0.459  1.00  0.00    -0.322 N 
HETATM    3  O   UNL     1       2.823  -1.214  -1.320  1.00  0.00    -0.267 OA
HETATM    4  H   UNL     1       1.084  -3.677  -0.324  1.00  0.00     0.169 HD
ENDROOT
BRANCH   2   5
HETATM    5  C   UNL     1       0.190  -1.819  -0.142  1.00  0.00     0.041 A 
HETATM    6  C   UNL     1      -1.128  -2.321  -0.082  1.00  0.00    -0.027 A 
HETATM    7  C   UNL     1      -2.166  -1.470   0.349  1.00  0.00     0.010 A 
HETATM    8  C   UNL     1      -1.912  -0.143   0.688  1.00  0.00     0.001 A 
HETATM    9  C   UNL     1      -0.619   0.356   0.595  1.00  0.00     0.002 A 
HETATM   10  C   UNL     1       0.424  -0.476   0.181  1.00  0.00     0.030 A 
BRANCH   6  11
HETATM   11  C   UNL     1      -1.510  -3.713  -0.548  1.00  0.00     0.079 C 
BRANCH  11  12
HETATM   12  C   UNL     1      -1.857  -4.714   0.531  1.00  0.00    -0.054 A 
HETATM   13  C   UNL     1      -2.862  -5.664   0.284  1.00  0.00     0.007 A 
HETATM   14  C   UNL     1      -3.175  -6.638   1.234  1.00  0.00     0.001 A 
HETATM   15  C   UNL     1      -2.480  -6.682   2.439  1.00  0.00     0.000 A 
HETATM   16  C   UNL     1      -1.472  -5.755   2.693  1.00  0.00     0.001 A 
HETATM   17  C   UNL     1      -1.158  -4.780   1.744  1.00  0.00     0.007 A 
ENDBRANCH  11  12
ENDBRANCH   6  11
ENDBRANCH   2   5
BRANCH   1  18
HETATM   18  C   UNL     1       3.430  -3.449  -1.061  1.00  0.00     0.081 A 
HETATM   19  C   UNL     1       4.320  -3.616  -2.111  1.00  0.00     0.068 A 
HETATM   20  C   UNL     1       4.577  -2.851  -3.351  1.00  0.00     0.078 C 
HETATM   21  O   UNL     1       5.088  -4.727  -1.924  1.00  0.00    -0.295 OA
HETATM   22  C   UNL     1       4.720  -5.285  -0.740  1.00  0.00     0.187 A 
HETATM   23  C   UNL     1       3.697  -4.540  -0.189  1.00  0.00     0.103 A 
HETATM   24  N   UNL     1       5.308  -6.388  -0.216  1.00  0.00    -0.219 NA
HETATM   25  C   UNL     1       3.180  -4.957   1.084  1.00  0.00     0.262 A 
HETATM   26  N   UNL     1       3.829  -6.055   1.606  1.00  0.00    -0.317 N 
HETATM   27  O   UNL     1       2.239  -4.418   1.653  1.00  0.00    -0.267 OA
HETATM   28  C   UNL     1       4.838  -6.718   0.943  1.00  0.00     0.212 A 
HETATM   29  H   UNL     1       3.500  -6.381   2.503  1.00  0.00     0.170 HD
ENDBRANCH   1  18
TORSDOF 4
