REMARK  2 active torsions:
REMARK  status: ('A' for Active; 'I' for Inactive)
REMARK    1  A    between atoms: C_4  and  C_5 
REMARK       I    between atoms: N_12  and  C_13 
REMARK    2  A    between atoms: C_13  and  C_14 
ROOT
HETATM    1  C   UNL     1       2.772   0.182  -0.089  1.00  0.00     0.097 A 
HETATM    2  N   UNL     1       3.477   1.286  -0.406  1.00  0.00    -0.173 NA
HETATM    3  N   UNL     1       4.719   0.849  -0.661  1.00  0.00    -0.281 N 
HETATM    4  H   UNL     1       5.421   1.527  -0.939  1.00  0.00     0.189 HD
HETATM    5  C   UNL     1       4.837  -0.494  -0.533  1.00  0.00     0.039 A 
HETATM    6  C   UNL     1       3.609  -0.971  -0.138  1.00  0.00     0.015 A 
HETATM    7  C   UNL     1       3.329  -2.413   0.097  1.00  0.00     0.169 C 
HETATM    8  N   UNL     1       4.449  -3.254  -0.391  1.00  0.00    -0.343 N 
HETATM    9  C   UNL     1       4.349  -4.648  -0.468  1.00  0.00     0.254 C 
HETATM   10  O   UNL     1       5.319  -5.395  -0.581  1.00  0.00    -0.267 OA
HETATM   11  C   UNL     1       5.819  -2.718  -0.219  1.00  0.00     0.132 C 
HETATM   12  C   UNL     1       6.026  -1.319  -0.830  1.00  0.00     0.079 C 
ENDROOT
BRANCH   9  13
HETATM   13  C   UNL     1       3.025  -5.294  -0.352  1.00  0.00     0.035 A 
HETATM   14  C   UNL     1       2.830  -6.193   0.704  1.00  0.00     0.056 A 
HETATM   15  C   UNL     1       1.605  -6.814   0.788  1.00  0.00     0.106 A 
HETATM   16  C   UNL     1       0.606  -6.577  -0.128  1.00  0.00     0.105 A 
HETATM   17  O   UNL     1       1.234  -7.709   1.742  1.00  0.00    -0.323 OA
HETATM   18  O   UNL     1      -0.519  -7.293   0.139  1.00  0.00    -0.323 OA
HETATM   19  C   UNL     1       0.779  -5.712  -1.189  1.00  0.00     0.041 A 
HETATM   20  C   UNL     1      -0.104  -8.030   1.308  1.00  0.00     0.352 A 
HETATM   21  C   UNL     1       2.015  -5.069  -1.310  1.00  0.00     0.020 A 
ENDBRANCH   9  13
BRANCH   1  22
HETATM   22  C   UNL     1       1.337   0.271   0.192  1.00  0.00    -0.005 A 
HETATM   23  C   UNL     1       0.550   1.203  -0.504  1.00  0.00     0.014 A 
HETATM   24  C   UNL     1      -0.826   1.288  -0.281  1.00  0.00     0.001 A 
HETATM   25  C   UNL     1      -1.433   0.442   0.645  1.00  0.00     0.000 A 
HETATM   26  C   UNL     1      -0.663  -0.478   1.354  1.00  0.00     0.001 A 
HETATM   27  C   UNL     1       0.715  -0.561   1.133  1.00  0.00     0.014 A 
ENDBRANCH   1  22
TORSDOF 2
