REMARK  6 active torsions:
REMARK  status: ('A' for Active; 'I' for Inactive)
REMARK    1  A    between atoms: O_2  and  C_3 
REMARK    2  A    between atoms: C_6  and  C_7 
REMARK    3  A    between atoms: C_7  and  N_8 
REMARK       I    between atoms: N_8  and  C_9 
REMARK       I    between atoms: C_9  and  N_10 
REMARK    4  A    between atoms: N_10  and  C_11 
REMARK    5  A    between atoms: C_11  and  C_12 
REMARK    6  A    between atoms: C_13  and  C_14 
ROOT
HETATM    1  N   UNL     1       8.168   4.226   4.622  1.00  0.00    -0.339 N 
HETATM    2  C   UNL     1       7.280   4.695   3.713  1.00  0.00     0.316 C 
HETATM    3  N   UNL     1       7.088   6.039   3.699  1.00  0.00    -0.339 N 
HETATM    4  O   UNL     1       6.682   3.903   2.992  1.00  0.00    -0.247 OA
HETATM    5  H   UNL     1       8.257   3.219   4.592  1.00  0.00     0.164 HD
HETATM    6  H   UNL     1       7.842   6.618   4.034  1.00  0.00     0.164 HD
ENDROOT
BRANCH   3   7
HETATM    7  C   UNL     1       6.104   6.668   2.837  1.00  0.00     0.163 C 
BRANCH   7   8
HETATM    8  C   UNL     1       4.894   7.205   3.580  1.00  0.00    -0.029 A 
HETATM    9  C   UNL     1       3.943   8.015   2.920  1.00  0.00    -0.018 A 
HETATM   10  C   UNL     1       2.801   8.466   3.603  1.00  0.00     0.013 A 
HETATM   11  C   UNL     1       2.590   8.125   4.937  1.00  0.00     0.001 A 
HETATM   12  C   UNL     1       3.513   7.322   5.596  1.00  0.00     0.001 A 
HETATM   13  C   UNL     1       4.649   6.864   4.924  1.00  0.00     0.010 A 
BRANCH   9  14
HETATM   14  C   UNL     1       4.077   8.384   1.518  1.00  0.00    -0.018 A 
HETATM   15  C   UNL     1       4.894   9.423   1.119  1.00  0.00     0.061 A 
HETATM   16  S   UNL     1       4.845   9.671  -0.574  1.00  0.00    -0.113 SA
HETATM   17  C   UNL     1       3.706   8.412  -0.782  1.00  0.00     0.050 A 
HETATM   18  C   UNL     1       3.377   7.809   0.412  1.00  0.00     0.020 A 
ENDBRANCH   9  14
ENDBRANCH   7   8
ENDBRANCH   3   7
BRANCH   1  19
HETATM   19  C   UNL     1       8.818   4.925   5.709  1.00  0.00     0.162 C 
BRANCH  19  20
HETATM   20  C   UNL     1      10.174   5.481   5.349  1.00  0.00    -0.040 A 
HETATM   21  C   UNL     1      10.647   6.630   6.000  1.00  0.00     0.011 A 
HETATM   22  C   UNL     1      11.933   7.125   5.747  1.00  0.00     0.037 A 
HETATM   23  C   UNL     1      12.772   6.470   4.846  1.00  0.00     0.068 A 
HETATM   24  C   UNL     1      12.307   5.328   4.193  1.00  0.00     0.037 A 
HETATM   25  C   UNL     1      11.025   4.831   4.446  1.00  0.00     0.011 A 
BRANCH  23  26
HETATM   26  O   UNL     1      14.048   6.836   4.520  1.00  0.00    -0.356 OA
HETATM   27  C   UNL     1      14.615   7.914   5.253  1.00  0.00     0.210 C 
ENDBRANCH  23  26
ENDBRANCH  19  20
ENDBRANCH   1  19
TORSDOF 6
