REMARK  2 active torsions:
REMARK  status: ('A' for Active; 'I' for Inactive)
REMARK    1  A    between atoms: C_11  and  N_12 
REMARK    2  A    between atoms: N_12  and  C_13 
ROOT
HETATM    1  C   UNL     1      -2.299  -1.348  -1.080  1.00  0.00     0.045 A 
HETATM    2  C   UNL     1      -2.676  -0.089  -0.633  1.00  0.00     0.117 A 
HETATM    3  F   UNL     1      -3.940   0.319  -0.801  1.00  0.00    -0.206 F 
HETATM    4  C   UNL     1      -1.765   0.757  -0.004  1.00  0.00     0.054 A 
HETATM    5  C   UNL     1      -0.433   0.355   0.195  1.00  0.00     0.001 A 
HETATM    6  C   UNL     1      -0.060  -0.903  -0.307  1.00  0.00     0.077 A 
HETATM    7  O   UNL     1       1.228  -1.354  -0.188  1.00  0.00    -0.351 OA
HETATM    8  C   UNL     1       2.095  -0.638  -1.073  1.00  0.00     0.175 C 
HETATM    9  C   UNL     1       2.720   0.563  -0.375  1.00  0.00     0.029 C 
HETATM   10  C   UNL     1       1.713   1.663  -0.021  1.00  0.00     0.032 C 
HETATM   11  C   UNL     1       0.595   1.194   0.935  1.00  0.00     0.118 C 
HETATM   12  C   UNL     1      -0.981  -1.761  -0.913  1.00  0.00     0.040 A 
ENDROOT
BRANCH  11  13
HETATM   13  N   UNL     1       0.009   2.385   1.553  1.00  0.00    -0.378 N 
HETATM   14  H   UNL     1      -0.111   3.154   0.897  1.00  0.00     0.160 HD
BRANCH  13  15
HETATM   15  C   UNL     1      -0.741   2.503   2.725  1.00  0.00     0.075 A 
HETATM   16  C   UNL     1      -1.048   1.632   3.707  1.00  0.00     0.131 A 
HETATM   17 CL   UNL     1      -0.510  -0.014   3.742  1.00  0.00    -0.076 Cl
HETATM   18  C   UNL     1      -1.912   2.024   4.863  1.00  0.00     0.285 A 
HETATM   19  O   UNL     1      -2.205   1.255   5.775  1.00  0.00    -0.265 OA
HETATM   20  N   UNL     1      -2.381   3.312   4.856  1.00  0.00    -0.242 N 
HETATM   21  N   UNL     1      -2.100   4.247   3.918  1.00  0.00    -0.182 NA
HETATM   22  H   UNL     1      -2.973   3.597   5.630  1.00  0.00     0.192 HD
HETATM   23  C   UNL     1      -1.339   3.861   2.947  1.00  0.00     0.169 A 
ENDBRANCH  13  15
ENDBRANCH  11  13
TORSDOF 2
