REMARK  4 active torsions:
REMARK  status: ('A' for Active; 'I' for Inactive)
REMARK    1  A    between atoms: C_4  and  C_5 
REMARK    2  A    between atoms: C_9  and  C_10 
REMARK       I    between atoms: C_10  and  N_11 
REMARK    3  A    between atoms: N_11  and  C_12 
REMARK    4  A    between atoms: C_13  and  O_14 
ROOT
HETATM    1  C   UNL     1       9.294   2.232  -0.144  1.00  0.00     0.270 C 
HETATM    2  N   UNL     1       9.778   0.987  -0.450  1.00  0.00    -0.344 N 
HETATM    3  O   UNL     1       8.356   2.397   0.629  1.00  0.00    -0.266 OA
HETATM    4  H   UNL     1      10.428   0.867  -1.213  1.00  0.00     0.163 HD
ENDROOT
BRANCH   1   5
HETATM    5  C   UNL     1       9.937   3.324  -0.819  1.00  0.00     0.120 A 
HETATM    6  N   UNL     1       9.462   4.605  -0.733  1.00  0.00    -0.272 N 
HETATM    7  N   UNL     1      10.187   5.508  -1.411  1.00  0.00    -0.173 NA
HETATM    8  H   UNL     1       8.642   4.917  -0.220  1.00  0.00     0.189 HD
HETATM    9  C   UNL     1      11.193   4.793  -1.931  1.00  0.00     0.096 A 
HETATM   10  C   UNL     1      11.070   3.420  -1.603  1.00  0.00     0.071 A 
BRANCH   9  11
HETATM   11  C   UNL     1      12.292   5.426  -2.731  1.00  0.00     0.035 A 
HETATM   12  S   UNL     1      13.628   4.582  -3.379  1.00  0.00    -0.093 SA
HETATM   13  C   UNL     1      14.313   6.010  -4.025  1.00  0.00    -0.021 A 
HETATM   14  C   UNL     1      15.608   5.964  -4.761  1.00  0.00     0.056 C 
HETATM   15  C   UNL     1      13.519   7.110  -3.773  1.00  0.00     0.015 A 
HETATM   16  C   UNL     1      12.353   6.773  -3.024  1.00  0.00     0.022 A 
ENDBRANCH   9  11
ENDBRANCH   1   5
BRANCH   2  17
HETATM   17  C   UNL     1       9.264  -0.204   0.192  1.00  0.00     0.147 C 
HETATM   18  C   UNL     1       7.851  -0.634  -0.307  1.00  0.00     0.149 C 
HETATM   19  C   UNL     1       7.802  -2.168  -0.182  1.00  0.00     0.073 C 
HETATM   20  C   UNL     1       9.251  -2.536  -0.330  1.00  0.00    -0.047 A 
HETATM   21  C   UNL     1      10.081  -1.429  -0.117  1.00  0.00    -0.027 A 
HETATM   22  C   UNL     1       9.780  -3.789  -0.591  1.00  0.00     0.008 A 
HETATM   23  C   UNL     1      11.462  -1.563  -0.148  1.00  0.00     0.010 A 
HETATM   24  C   UNL     1      12.004  -2.820  -0.426  1.00  0.00     0.001 A 
HETATM   25  C   UNL     1      11.168  -3.925  -0.648  1.00  0.00     0.001 A 
BRANCH  18  26
HETATM   26  O   UNL     1       7.639  -0.279  -1.685  1.00  0.00    -0.393 OA
HETATM   27  H   UNL     1       7.762   0.685  -1.736  1.00  0.00     0.210 HD
ENDBRANCH  18  26
ENDBRANCH   2  17
TORSDOF 4
