REMARK  5 active torsions:
REMARK  status: ('A' for Active; 'I' for Inactive)
REMARK    1  A    between atoms: C_5  and  C_6 
REMARK    2  A    between atoms: C_13  and  C_14 
REMARK       I    between atoms: C_14  and  N_15 
REMARK    3  A    between atoms: N_15  and  C_16 
REMARK    4  A    between atoms: C_19  and  C_20 
REMARK    5  A    between atoms: C_23  and  N_24 
ROOT
HETATM    1  C   UNL     1       2.592  -3.238   0.061  1.00  0.00     0.262 C 
HETATM    2  N   UNL     1       3.580  -4.034   0.590  1.00  0.00    -0.301 N 
HETATM    3  O   UNL     1       1.432  -3.552  -0.160  1.00  0.00    -0.267 OA
HETATM    4  H   UNL     1       4.460  -3.632   0.871  1.00  0.00     0.171 HD
ENDROOT
BRANCH   2   5
HETATM    5  C   UNL     1       3.388  -5.346   0.909  1.00  0.00     0.173 A 
HETATM    6  S   UNL     1       4.729  -6.054   1.692  1.00  0.00    -0.061 SA
HETATM    7  C   UNL     1       3.867  -7.535   1.780  1.00  0.00     0.085 A 
HETATM    8  C   UNL     1       2.616  -7.388   1.206  1.00  0.00     0.076 A 
HETATM    9  N   UNL     1       2.362  -6.124   0.690  1.00  0.00    -0.223 NA
BRANCH   8  10
HETATM   10  C   UNL     1       1.631  -8.461   1.099  1.00  0.00    -0.007 A 
HETATM   11  C   UNL     1       1.616  -9.546   1.990  1.00  0.00     0.016 A 
HETATM   12  C   UNL     1       0.669 -10.568   1.859  1.00  0.00     0.037 A 
HETATM   13  C   UNL     1      -0.277 -10.507   0.828  1.00  0.00     0.102 A 
HETATM   14  C   UNL     1      -0.286  -9.427  -0.062  1.00  0.00     0.037 A 
HETATM   15  C   UNL     1       0.664  -8.409   0.082  1.00  0.00     0.016 A 
BRANCH  13  16
HETATM   16  N   UNL     1      -1.265 -11.583   0.683  1.00  0.00    -0.116 N 
HETATM   17  O   UNL     1      -1.239 -12.503   1.513  1.00  0.00    -0.532 OA
HETATM   18  O   UNL     1      -2.062 -11.512  -0.263  1.00  0.00    -0.532 OA
ENDBRANCH  13  16
ENDBRANCH   8  10
ENDBRANCH   2   5
BRANCH   1  19
HETATM   19  C   UNL     1       3.058  -1.886  -0.188  1.00  0.00     0.095 A 
HETATM   20  C   UNL     1       4.204  -1.512  -0.859  1.00  0.00     0.093 A 
HETATM   21  C   UNL     1       5.293  -2.237  -1.543  1.00  0.00     0.080 C 
HETATM   22  O   UNL     1       4.275  -0.157  -0.904  1.00  0.00    -0.217 OA
HETATM   23  N   UNL     1       3.172   0.385  -0.284  1.00  0.00    -0.127 NA
HETATM   24  C   UNL     1       2.432  -0.649   0.148  1.00  0.00     0.114 A 
BRANCH  24  25
HETATM   25  C   UNL     1       1.178  -0.408   0.855  1.00  0.00     0.018 A 
HETATM   26  C   UNL     1       0.926  -0.885   2.151  1.00  0.00     0.046 A 
HETATM   27 CL   UNL     1       2.104  -1.759   3.073  1.00  0.00    -0.083 Cl
HETATM   28  C   UNL     1      -0.299  -0.618   2.774  1.00  0.00     0.025 A 
HETATM   29  C   UNL     1      -1.274   0.137   2.119  1.00  0.00     0.002 A 
HETATM   30  C   UNL     1      -1.027   0.631   0.842  1.00  0.00     0.001 A 
HETATM   31  C   UNL     1       0.191   0.361   0.213  1.00  0.00     0.016 A 
ENDBRANCH  24  25
ENDBRANCH   1  19
TORSDOF 5
