REMARK  6 active torsions:
REMARK  status: ('A' for Active; 'I' for Inactive)
REMARK    1  A    between atoms: C_2  and  C_3 
REMARK    2  A    between atoms: C_2  and  C_9 
REMARK    3  A    between atoms: C_9  and  N_10 
REMARK       I    between atoms: N_10  and  C_11 
REMARK    4  A    between atoms: C_11  and  C_12 
REMARK    5  A    between atoms: C_13  and  O_14 
REMARK    6  A    between atoms: O_14  and  C_15 
ROOT
HETATM    1  N   UNL     1       2.312   2.413   0.181  1.00  0.00    -0.356 N 
HETATM    2  C   UNL     1       3.028   3.365  -0.508  1.00  0.00     0.254 C 
HETATM    3  O   UNL     1       4.235   3.268  -0.709  1.00  0.00    -0.268 OA
HETATM    4  H   UNL     1       1.325   2.575   0.347  1.00  0.00     0.162 HD
ENDROOT
BRANCH   2   5
HETATM    5  C   UNL     1       2.286   4.572  -1.000  1.00  0.00     0.067 A 
HETATM    6  C   UNL     1       0.882   4.707  -1.010  1.00  0.00     0.090 A 
HETATM    7  C   UNL     1       0.306   5.909  -1.451  1.00  0.00     0.040 A 
HETATM    8  C   UNL     1       1.107   6.947  -1.930  1.00  0.00     0.026 A 
HETATM    9  C   UNL     1       2.489   6.797  -1.958  1.00  0.00     0.035 A 
HETATM   10 CL   UNL     1       3.473   8.077  -2.552  1.00  0.00    -0.084 Cl
HETATM   11  C   UNL     1       3.078   5.625  -1.495  1.00  0.00     0.043 A 
BRANCH   6  12
HETATM   12  O   UNL     1       0.112   3.677  -0.531  1.00  0.00    -0.289 OA
BRANCH  12  13
HETATM   13  C   UNL     1      -1.097   3.449  -1.246  1.00  0.00     0.505 C 
HETATM   14  F   UNL     1      -1.484   2.179  -0.968  1.00  0.00    -0.184 F 
HETATM   15  F   UNL     1      -2.057   4.264  -0.744  1.00  0.00    -0.184 F 
ENDBRANCH  12  13
ENDBRANCH   6  12
ENDBRANCH   2   5
BRANCH   1  16
HETATM   16  C   UNL     1       2.907   1.190   0.694  1.00  0.00     0.136 C 
BRANCH  16  17
HETATM   17  C   UNL     1       2.422  -0.101  -0.039  1.00  0.00    -0.004 C 
HETATM   18  C   UNL     1       0.917  -0.286   0.272  1.00  0.00     0.021 C 
HETATM   19  C   UNL     1       3.164  -1.307   0.583  1.00  0.00     0.021 C 
BRANCH  17  20
HETATM   20  C   UNL     1       2.733  -0.082  -1.546  1.00  0.00    -0.046 A 
HETATM   21  C   UNL     1       1.795  -0.452  -2.520  1.00  0.00     0.027 A 
HETATM   22  C   UNL     1       2.155  -0.429  -3.862  1.00  0.00     0.116 A 
HETATM   23  N   UNL     1       3.372  -0.067  -4.312  1.00  0.00    -0.273 NA
HETATM   24  C   UNL     1       4.273   0.281  -3.372  1.00  0.00     0.116 A 
HETATM   25  C   UNL     1       4.008   0.280  -2.009  1.00  0.00     0.027 A 
ENDBRANCH  17  20
ENDBRANCH  16  17
ENDBRANCH   1  16
TORSDOF 6
