REMARK  14 active torsions:
REMARK  status: ('A' for Active; 'I' for Inactive)
REMARK    1  A    between atoms: C_2  and  N_3 
REMARK    2  A    between atoms: N_3  and  C_5 
REMARK    3  A    between atoms: N_3  and  C_37 
REMARK    4  A    between atoms: C_5  and  C_6 
REMARK    5  A    between atoms: C_6  and  N_7 
REMARK    6  A    between atoms: C_10  and  O_11 
REMARK    7  A    between atoms: C_12  and  C_13 
REMARK    8  A    between atoms: C_13  and  C_14 
REMARK    9  A    between atoms: C_18  and  O_19 
REMARK   10  A    between atoms: O_19  and  C_20 
REMARK   11  A    between atoms: C_20  and  C_21 
REMARK   12  A    between atoms: C_27  and  C_28 
REMARK   13  A    between atoms: C_30  and  O_31 
REMARK   14  A    between atoms: C_33  and  O_34 
ROOT
HETATM    1  N   UNL     1       0.283  -1.804  -3.506  1.00  0.00    -0.332 N 
HETATM    2  C   UNL     1       0.568  -0.769  -4.372  1.00  0.00     0.278 A 
HETATM    3  O   UNL     1       0.868   0.376  -4.091  1.00  0.00    -0.265 OA
HETATM    4  C   UNL     1       0.470  -1.292  -5.748  1.00  0.00     0.146 A 
HETATM    5  C   UNL     1       0.260  -2.608  -5.651  1.00  0.00     0.059 A 
HETATM    6  C   UNL     1       0.122  -3.064  -4.230  1.00  0.00     0.161 A 
ENDROOT
BRANCH   5   7
HETATM    7  C   UNL     1       0.047  -3.588  -6.732  1.00  0.00     0.193 C 
HETATM    8  O   UNL     1      -0.777  -4.482  -6.549  1.00  0.00    -0.287 OA
BRANCH   7   9
HETATM    9  C   UNL     1       0.839  -3.533  -7.992  1.00  0.00     0.015 A 
HETATM   10  C   UNL     1       0.338  -4.201  -9.116  1.00  0.00     0.025 A 
HETATM   11  C   UNL     1       1.046  -4.200 -10.331  1.00  0.00    -0.028 A 
HETATM   12  C   UNL     1       0.481  -4.926 -11.523  1.00  0.00     0.051 C 
HETATM   13  C   UNL     1       2.265  -3.505 -10.425  1.00  0.00     0.074 A 
HETATM   14  C   UNL     1       2.780  -2.871  -9.293  1.00  0.00     0.038 A 
HETATM   15  C   UNL     1       2.081  -2.897  -8.081  1.00  0.00     0.018 A 
BRANCH  13  16
HETATM   16  O   UNL     1       2.866  -3.519 -11.655  1.00  0.00    -0.350 OA
BRANCH  16  17
HETATM   17  C   UNL     1       4.047  -2.733 -11.827  1.00  0.00     0.179 C 
BRANCH  17  18
HETATM   18  C   UNL     1       4.486  -2.807 -13.296  1.00  0.00     0.002 C 
HETATM   19  C   UNL     1       3.443  -2.176 -14.221  1.00  0.00     0.011 C 
HETATM   20  C   UNL     1       5.840  -2.124 -13.482  1.00  0.00     0.011 C 
ENDBRANCH  17  18
ENDBRANCH  16  17
ENDBRANCH  13  16
ENDBRANCH   7   9
ENDBRANCH   5   7
BRANCH   4  21
HETATM   21  O   UNL     1       0.576  -0.514  -6.859  1.00  0.00    -0.355 OA
HETATM   22  H   UNL     1       0.687   0.409  -6.551  1.00  0.00     0.218 HD
ENDBRANCH   4  21
BRANCH   6  23
HETATM   23  C   UNL     1       1.126  -4.118  -3.798  1.00  0.00    -0.028 A 
HETATM   24  C   UNL     1       2.514  -3.954  -3.984  1.00  0.00     0.049 A 
HETATM   25  C   UNL     1       3.404  -4.937  -3.546  1.00  0.00     0.101 A 
HETATM   26  C   UNL     1       2.913  -6.060  -2.879  1.00  0.00     0.099 A 
HETATM   27  C   UNL     1       1.552  -6.248  -2.696  1.00  0.00     0.040 A 
HETATM   28  C   UNL     1       0.659  -5.285  -3.164  1.00  0.00     0.012 A 
BRANCH  25  29
HETATM   29  O   UNL     1       4.766  -4.858  -3.675  1.00  0.00    -0.353 OA
HETATM   30  C   UNL     1       5.204  -4.329  -4.925  1.00  0.00     0.210 C 
ENDBRANCH  25  29
BRANCH  26  31
HETATM   31  O   UNL     1       3.767  -7.013  -2.401  1.00  0.00    -0.358 OA
HETATM   32  H   UNL     1       4.662  -6.726  -2.667  1.00  0.00     0.218 HD
ENDBRANCH  26  31
ENDBRANCH   6  23
BRANCH   1  33
HETATM   33  C   UNL     1       0.515  -1.737  -2.068  1.00  0.00     0.155 C 
BRANCH  33  34
HETATM   34  C   UNL     1      -0.115  -0.509  -1.383  1.00  0.00     0.254 C 
BRANCH  34  35
HETATM   35  N   UNL     1       0.205  -0.405   0.108  1.00  0.00    -0.070 N 
HETATM   36  H   UNL     1      -0.293   0.437   0.427  1.00  0.00     0.279 HD
BRANCH  35  37
HETATM   37  C   UNL     1       1.672  -0.142   0.422  1.00  0.00     0.230 C 
HETATM   38  C   UNL     1       2.159   1.153  -0.201  1.00  0.00     0.034 C 
ENDBRANCH  35  37
BRANCH  35  39
HETATM   39  C   UNL     1      -0.325  -1.543   0.963  1.00  0.00     0.230 C 
HETATM   40  C   UNL     1      -1.836  -1.652   0.870  1.00  0.00     0.034 C 
ENDBRANCH  35  39
ENDBRANCH  34  35
ENDBRANCH  33  34
ENDBRANCH   1  33
TORSDOF 14
