REMARK  7 active torsions:
REMARK  status: ('A' for Active; 'I' for Inactive)
REMARK    1  A    between atoms: C_4  and  C_5 
REMARK    2  A    between atoms: C_5  and  O_6 
REMARK    3  A    between atoms: C_5  and  C_7 
REMARK    4  A    between atoms: C_9  and  C_10 
REMARK    5  A    between atoms: C_10  and  N_11 
REMARK       I    between atoms: N_11  and  C_12 
REMARK    6  A    between atoms: C_12  and  C_13 
REMARK       I    between atoms: C_13  and  N_14 
REMARK    7  A    between atoms: N_14  and  C_15 
ROOT
HETATM    1  N   UNL     1       1.716  -7.556  -0.836  1.00  0.00    -0.348 N 
HETATM    2  C   UNL     1       1.787  -8.909  -0.630  1.00  0.00     0.310 C 
HETATM    3  O   UNL     1       0.863  -9.706  -0.693  1.00  0.00    -0.262 OA
HETATM    4  H   UNL     1       2.567  -7.031  -0.647  1.00  0.00     0.163 HD
ENDROOT
BRANCH   2   5
HETATM    5  C   UNL     1       3.207  -9.382  -0.251  1.00  0.00     0.313 C 
HETATM    6  N   UNL     1       3.265 -10.738  -0.009  1.00  0.00    -0.319 N 
HETATM    7  H   UNL     1       2.380 -11.227  -0.128  1.00  0.00     0.169 HD
HETATM    8  O   UNL     1       4.096  -8.544  -0.182  1.00  0.00    -0.262 OA
BRANCH   6   9
HETATM    9  C   UNL     1       4.378 -11.480   0.423  1.00  0.00     0.036 A 
HETATM   10  C   UNL     1       5.638 -10.923   0.641  1.00  0.00     0.039 A 
HETATM   11  C   UNL     1       6.696 -11.709   1.122  1.00  0.00    -0.028 A 
HETATM   12  C   UNL     1       6.503 -13.072   1.370  1.00  0.00     0.050 A 
HETATM   13  C   UNL     1       8.066 -11.119   1.288  1.00  0.00     0.050 C 
HETATM   14  N   UNL     1       7.580 -13.849   1.874  1.00  0.00    -0.317 N 
HETATM   15  C   UNL     1       5.257 -13.655   1.095  1.00  0.00    -0.028 A 
HETATM   16  C   UNL     1       8.745 -13.273   2.374  1.00  0.00     0.224 C 
HETATM   17  C   UNL     1       7.407 -15.288   2.043  1.00  0.00     0.132 C 
HETATM   18  O   UNL     1       9.679 -13.934   2.832  1.00  0.00    -0.273 OA
HETATM   19  C   UNL     1       8.767 -11.764   2.462  1.00  0.00     0.108 C 
HETATM   20  C   UNL     1       6.340 -15.884   1.139  1.00  0.00     0.025 C 
HETATM   21  C   UNL     1       5.034 -15.126   1.315  1.00  0.00     0.042 C 
HETATM   22  C   UNL     1       4.197 -12.849   0.646  1.00  0.00     0.039 A 
ENDBRANCH   6   9
ENDBRANCH   2   5
BRANCH   1  23
HETATM   23  C   UNL     1       0.472  -6.853  -1.010  1.00  0.00     0.169 C 
BRANCH  23  24
HETATM   24  C   UNL     1       0.798  -5.410  -1.220  1.00  0.00     0.001 A 
HETATM   25  S   UNL     1       1.209  -4.419   0.116  1.00  0.00    -0.095 SA
HETATM   26  C   UNL     1       1.557  -3.074  -0.889  1.00  0.00     0.017 A 
HETATM   27  C   UNL     1       1.307  -3.367  -2.216  1.00  0.00     0.018 A 
HETATM   28  C   UNL     1       0.864  -4.708  -2.406  1.00  0.00     0.017 A 
BRANCH  26  29
HETATM   29  C   UNL     1       2.101  -1.810  -0.277  1.00  0.00     0.198 C 
BRANCH  29  30
HETATM   30  C   UNL     1       1.410  -0.562  -0.751  1.00  0.00     0.016 A 
HETATM   31  S   UNL     1      -0.042  -0.053   0.016  1.00  0.00    -0.103 SA
HETATM   32  C   UNL     1      -0.175   1.319  -0.994  1.00  0.00     0.050 A 
HETATM   33  C   UNL     1       0.857   1.397  -1.901  1.00  0.00     0.008 A 
HETATM   34  C   UNL     1       1.770   0.313  -1.761  1.00  0.00     0.018 A 
ENDBRANCH  29  30
BRANCH  29  35
HETATM   35  O   UNL     1       3.469  -1.723  -0.683  1.00  0.00    -0.385 OA
HETATM   36  H   UNL     1       3.884  -2.558  -0.408  1.00  0.00     0.210 HD
ENDBRANCH  29  35
ENDBRANCH  26  29
ENDBRANCH  23  24
ENDBRANCH   1  23
TORSDOF 7
