REMARK  6 active torsions:
REMARK  status: ('A' for Active; 'I' for Inactive)
REMARK    1  A    between atoms: O_2  and  C_3 
REMARK    2  A    between atoms: C_5  and  N_6 
REMARK    3  A    between atoms: C_7  and  O_8 
REMARK    4  A    between atoms: C_7  and  C_9 
REMARK       I    between atoms: C_9  and  N_10 
REMARK    5  A    between atoms: N_10  and  C_11 
REMARK    6  A    between atoms: C_11  and  C_12 
ROOT
HETATM    1  N   UNL     1       5.690  -2.335  -3.177  1.00  0.00    -0.254 N 
HETATM    2  C   UNL     1       5.998  -1.034  -3.795  1.00  0.00     0.256 C 
HETATM    3  C   UNL     1       5.991  -1.079  -5.312  1.00  0.00     0.034 A 
HETATM    4  C   UNL     1       6.260  -2.291  -5.931  1.00  0.00     0.048 A 
HETATM    5  N   UNL     1       6.412  -3.420  -5.139  1.00  0.00    -0.308 N 
HETATM    6  C   UNL     1       6.099  -3.501  -3.812  1.00  0.00     0.330 C 
HETATM    7  O   UNL     1       6.230  -4.604  -3.283  1.00  0.00    -0.246 OA
HETATM    8  C   UNL     1       5.846   0.067  -6.112  1.00  0.00     0.015 A 
HETATM    9  C   UNL     1       5.962  -0.020  -7.501  1.00  0.00     0.001 A 
HETATM   10  C   UNL     1       6.240  -1.246  -8.102  1.00  0.00     0.002 A 
HETATM   11  C   UNL     1       6.394  -2.387  -7.316  1.00  0.00     0.030 A 
HETATM   12  H   UNL     1       6.622  -4.313  -5.568  1.00  0.00     0.170 HD
ENDROOT
BRANCH   2  13
HETATM   13  O   UNL     1       4.979  -0.091  -3.442  1.00  0.00    -0.359 OA
HETATM   14  H   UNL     1       5.453   0.638  -2.999  1.00  0.00     0.213 HD
ENDBRANCH   2  13
BRANCH   2  15
HETATM   15  C   UNL     1       7.420  -0.518  -3.322  1.00  0.00     0.279 C 
HETATM   16  N   UNL     1       8.500  -1.336  -3.568  1.00  0.00    -0.352 N 
HETATM   17  H   UNL     1       8.349  -2.262  -3.949  1.00  0.00     0.162 HD
HETATM   18  O   UNL     1       7.539   0.604  -2.818  1.00  0.00    -0.268 OA
BRANCH  16  19
HETATM   19  C   UNL     1       9.856  -0.908  -3.325  1.00  0.00     0.163 C 
BRANCH  19  20
HETATM   20  C   UNL     1      10.821  -1.646  -4.216  1.00  0.00    -0.019 A 
HETATM   21  C   UNL     1      10.964  -1.345  -5.581  1.00  0.00     0.042 A 
HETATM   22 CL   UNL     1      10.042  -0.098  -6.343  1.00  0.00    -0.084 Cl
HETATM   23  C   UNL     1      11.862  -2.062  -6.378  1.00  0.00     0.024 A 
HETATM   24  C   UNL     1      12.625  -3.090  -5.825  1.00  0.00     0.002 A 
HETATM   25  C   UNL     1      12.488  -3.405  -4.476  1.00  0.00     0.001 A 
HETATM   26  C   UNL     1      11.591  -2.692  -3.678  1.00  0.00     0.010 A 
ENDBRANCH  19  20
ENDBRANCH  16  19
ENDBRANCH   2  15
BRANCH   1  27
HETATM   27  C   UNL     1       5.134  -2.407  -1.843  1.00  0.00     0.045 A 
HETATM   28  C   UNL     1       4.345  -3.509  -1.467  1.00  0.00     0.066 A 
HETATM   29  C   UNL     1       3.748  -3.604  -0.202  1.00  0.00     0.070 A 
HETATM   30  C   UNL     1       3.939  -2.582   0.721  1.00  0.00     0.037 A 
HETATM   31  C   UNL     1       4.719  -1.480   0.375  1.00  0.00     0.005 A 
HETATM   32  C   UNL     1       5.306  -1.392  -0.892  1.00  0.00     0.030 A 
BRANCH  29  33
HETATM   33  O   UNL     1       2.998  -4.733  -0.007  1.00  0.00    -0.356 OA
HETATM   34  C   UNL     1       2.406  -4.901   1.274  1.00  0.00     0.210 C 
ENDBRANCH  29  33
ENDBRANCH   1  27
TORSDOF 6
