REMARK  2 active torsions:
REMARK  status: ('A' for Active; 'I' for Inactive)
REMARK    1  A    between atoms: C_3  and  C_4 
REMARK       I    between atoms: C_4  and  N_5 
REMARK    2  A    between atoms: N_5  and  N_6 
ROOT
HETATM    1  N   UNL     1       0.065   1.610  -0.540  1.00  0.00    -0.282 N 
HETATM    2  C   UNL     1      -1.241   1.587  -0.296  1.00  0.00     0.127 C 
HETATM    3  C   UNL     1      -1.955   0.285  -0.301  1.00  0.00     0.015 A 
HETATM    4  C   UNL     1      -3.350   0.277  -0.499  1.00  0.00    -0.042 A 
HETATM    5  C   UNL     1      -4.055  -0.932  -0.554  1.00  0.00     0.008 A 
HETATM    6  C   UNL     1      -3.385  -2.138  -0.368  1.00  0.00     0.001 A 
HETATM    7  C   UNL     1      -2.014  -2.143  -0.128  1.00  0.00     0.001 A 
HETATM    8  C   UNL     1      -1.302  -0.942  -0.092  1.00  0.00     0.016 A 
HETATM    9  C   UNL     1      -4.067   1.590  -0.685  1.00  0.00     0.069 C 
HETATM   10  C   UNL     1      -3.408   2.711   0.146  1.00  0.00     0.028 C 
HETATM   11  C   UNL     1      -3.928   4.074  -0.326  1.00  0.00     0.038 C 
HETATM   12  C   UNL     1      -3.662   2.556   1.649  1.00  0.00     0.038 C 
HETATM   13  N   UNL     1      -1.935   2.702  -0.075  1.00  0.00    -0.366 N 
HETATM   14  H   UNL     1      -1.447   3.582  -0.099  1.00  0.00     0.162 HD
HETATM   15  H   UNL     1       0.499   0.728  -0.840  1.00  0.00     0.188 HD
ENDROOT
BRANCH   1  16
HETATM   16  N   UNL     1       0.887   2.655  -0.501  1.00  0.00    -0.264 N 
HETATM   17  C   UNL     1       2.194   2.395  -0.887  1.00  0.00     0.270 C 
HETATM   18  O   UNL     1       2.538   1.263  -1.221  1.00  0.00    -0.266 OA
HETATM   19  H   UNL     1       0.623   3.544  -0.094  1.00  0.00     0.190 HD
BRANCH  17  20
HETATM   20  C   UNL     1       3.155   3.522  -0.810  1.00  0.00     0.039 A 
HETATM   21  C   UNL     1       2.883   4.817  -1.296  1.00  0.00    -0.046 A 
HETATM   22  C   UNL     1       1.616   5.194  -2.012  1.00  0.00     0.049 C 
HETATM   23  C   UNL     1       3.860   5.812  -1.121  1.00  0.00     0.007 A 
HETATM   24  C   UNL     1       5.088   5.518  -0.524  1.00  0.00     0.001 A 
HETATM   25  C   UNL     1       5.363   4.225  -0.091  1.00  0.00     0.001 A 
HETATM   26  C   UNL     1       4.400   3.228  -0.234  1.00  0.00     0.017 A 
ENDBRANCH  17  20
ENDBRANCH   1  16
TORSDOF 2
