REMARK  8 active torsions:
REMARK  status: ('A' for Active; 'I' for Inactive)
REMARK    1  A    between atoms: C_4  and  C_5 
REMARK    2  A    between atoms: C_5  and  N_6 
REMARK    3  A    between atoms: C_8  and  N_9 
REMARK       I    between atoms: N_9  and  C_10 
REMARK       I    between atoms: C_10  and  N_11 
REMARK    4  A    between atoms: N_11  and  C_12 
REMARK    5  A    between atoms: C_12  and  C_13 
REMARK    6  A    between atoms: C_13  and  N_14 
REMARK       I    between atoms: N_14  and  C_15 
REMARK    7  A    between atoms: C_15  and  C_16 
REMARK    8  A    between atoms: C_17  and  O_18 
ROOT
HETATM    1  N   UNL     1       5.743  -3.424   0.788  1.00  0.00    -0.292 N 
HETATM    2  C   UNL     1       6.029  -4.723   0.497  1.00  0.00     0.321 C 
HETATM    3  N   UNL     1       5.053  -5.458  -0.099  1.00  0.00    -0.341 N 
HETATM    4  O   UNL     1       7.126  -5.189   0.801  1.00  0.00    -0.247 OA
HETATM    5  H   UNL     1       6.480  -2.944   1.282  1.00  0.00     0.172 HD
HETATM    6  H   UNL     1       4.246  -4.927  -0.424  1.00  0.00     0.164 HD
ENDROOT
BRANCH   1   7
HETATM    7  C   UNL     1       4.620  -2.697   0.466  1.00  0.00     0.153 A 
HETATM    8  N   UNL     1       3.594  -3.158  -0.259  1.00  0.00    -0.154 NA
HETATM    9  N   UNL     1       2.740  -2.114  -0.330  1.00  0.00    -0.275 N 
HETATM   10  C   UNL     1       3.198  -1.001   0.314  1.00  0.00     0.116 A 
HETATM   11  C   UNL     1       4.417  -1.349   0.843  1.00  0.00     0.071 A 
BRANCH   9  12
HETATM   12  C   UNL     1       1.514  -2.224  -1.112  1.00  0.00     0.189 C 
BRANCH  12  13
HETATM   13  C   UNL     1       0.303  -2.443  -0.240  1.00  0.00    -0.038 A 
HETATM   14  C   UNL     1      -0.734  -1.498  -0.208  1.00  0.00     0.009 A 
HETATM   15  C   UNL     1      -1.866  -1.715   0.579  1.00  0.00     0.001 A 
HETATM   16  C   UNL     1      -1.976  -2.877   1.340  1.00  0.00     0.000 A 
HETATM   17  C   UNL     1      -0.955  -3.824   1.317  1.00  0.00     0.001 A 
HETATM   18  C   UNL     1       0.178  -3.611   0.529  1.00  0.00     0.009 A 
ENDBRANCH  12  13
ENDBRANCH   9  12
ENDBRANCH   1   7
BRANCH   3  19
HETATM   19  C   UNL     1       5.262  -6.814  -0.555  1.00  0.00     0.144 C 
BRANCH  19  20
HETATM   20  C   UNL     1       5.382  -7.825   0.593  1.00  0.00     0.142 C 
BRANCH  20  21
HETATM   21  N   UNL     1       5.886  -9.112   0.144  1.00  0.00    -0.355 N 
HETATM   22  C   UNL     1       5.073 -10.030  -0.483  1.00  0.00     0.254 C 
HETATM   23  O   UNL     1       3.874  -9.842  -0.676  1.00  0.00    -0.268 OA
HETATM   24  H   UNL     1       6.890  -9.204   0.090  1.00  0.00     0.162 HD
BRANCH  22  25
HETATM   25  C   UNL     1       5.707 -11.280  -0.995  1.00  0.00     0.065 A 
HETATM   26  C   UNL     1       5.034 -12.052  -1.956  1.00  0.00     0.081 A 
HETATM   27  C   UNL     1       5.613 -13.210  -2.474  1.00  0.00     0.037 A 
HETATM   28  C   UNL     1       6.866 -13.622  -2.027  1.00  0.00     0.003 A 
HETATM   29  C   UNL     1       7.536 -12.882  -1.054  1.00  0.00     0.001 A 
HETATM   30  C   UNL     1       6.959 -11.718  -0.535  1.00  0.00     0.020 A 
BRANCH  26  31
HETATM   31  O   UNL     1       3.792 -11.733  -2.440  1.00  0.00    -0.360 OA
HETATM   32  H   UNL     1       3.451 -10.977  -1.911  1.00  0.00     0.217 HD
ENDBRANCH  26  31
ENDBRANCH  22  25
ENDBRANCH  20  21
ENDBRANCH  19  20
ENDBRANCH   3  19
TORSDOF 8
