REMARK  6 active torsions:
REMARK  status: ('A' for Active; 'I' for Inactive)
REMARK    1  A    between atoms: O_2  and  C_3 
REMARK    2  A    between atoms: C_6  and  C_7 
REMARK    3  A    between atoms: C_12  and  C_13 
REMARK       I    between atoms: C_13  and  N_14 
REMARK    4  A    between atoms: N_14  and  C_15 
REMARK    5  A    between atoms: C_17  and  O_18 
REMARK    6  A    between atoms: C_24  and  C_25 
ROOT
HETATM    1  C   UNL     1       4.665  -2.847  -4.544  1.00  0.00     0.118 C 
HETATM    2  N   UNL     1       5.337  -4.094  -4.193  1.00  0.00    -0.366 N 
HETATM    3  C   UNL     1       4.830  -5.307  -4.492  1.00  0.00     0.123 A 
HETATM    4  N   UNL     1       3.614  -5.451  -5.099  1.00  0.00    -0.240 N 
HETATM    5  N   UNL     1       3.215  -6.730  -5.231  1.00  0.00    -0.165 NA
HETATM    6  C   UNL     1       4.279  -7.437  -4.783  1.00  0.00     0.148 A 
HETATM    7  C   UNL     1       5.307  -6.577  -4.307  1.00  0.00     0.089 A 
HETATM    8  C   UNL     1       2.785  -4.340  -5.524  1.00  0.00     0.221 C 
HETATM    9  C   UNL     1       3.153  -3.071  -4.735  1.00  0.00     0.066 C 
HETATM   10  H   UNL     1       6.285  -3.993  -3.832  1.00  0.00     0.161 HD
ENDROOT
BRANCH   6  11
HETATM   11  C   UNL     1       4.304  -8.911  -4.799  1.00  0.00     0.276 C 
HETATM   12  N   UNL     1       3.114  -9.441  -5.258  1.00  0.00    -0.322 N 
HETATM   13  H   UNL     1       2.418  -8.734  -5.484  1.00  0.00     0.169 HD
HETATM   14  O   UNL     1       5.289  -9.539  -4.427  1.00  0.00    -0.266 OA
BRANCH  12  15
HETATM   15  C   UNL     1       2.766 -10.792  -5.427  1.00  0.00     0.037 A 
HETATM   16  C   UNL     1       3.653 -11.852  -5.225  1.00  0.00     0.066 A 
HETATM   17  C   UNL     1       3.222 -13.164  -5.424  1.00  0.00     0.067 A 
HETATM   18  C   UNL     1       1.918 -13.440  -5.814  1.00  0.00     0.036 A 
HETATM   19  C   UNL     1       1.028 -12.388  -6.018  1.00  0.00     0.005 A 
HETATM   20  C   UNL     1       1.453 -11.070  -5.829  1.00  0.00     0.029 A 
BRANCH  17  21
HETATM   21  O   UNL     1       4.067 -14.221  -5.244  1.00  0.00    -0.361 OA
HETATM   22  H   UNL     1       4.939 -13.874  -4.989  1.00  0.00     0.217 HD
ENDBRANCH  17  21
ENDBRANCH  12  15
ENDBRANCH   6  11
BRANCH   8  23
HETATM   23  C   UNL     1       2.865  -4.181  -7.025  1.00  0.00     0.409 C 
HETATM   24  F   UNL     1       4.120  -4.118  -7.505  1.00  0.00    -0.169 F 
HETATM   25  F   UNL     1       2.239  -5.197  -7.667  1.00  0.00    -0.169 F 
HETATM   26  F   UNL     1       2.228  -3.045  -7.408  1.00  0.00    -0.169 F 
ENDBRANCH   8  23
BRANCH   1  27
HETATM   27  C   UNL     1       5.354  -2.104  -5.676  1.00  0.00    -0.035 A 
HETATM   28  C   UNL     1       6.344  -2.684  -6.482  1.00  0.00     0.012 A 
HETATM   29  C   UNL     1       6.968  -1.950  -7.495  1.00  0.00     0.037 A 
HETATM   30  C   UNL     1       6.627  -0.618  -7.726  1.00  0.00     0.068 A 
HETATM   31  C   UNL     1       5.653  -0.022  -6.928  1.00  0.00     0.037 A 
HETATM   32  C   UNL     1       5.025  -0.758  -5.915  1.00  0.00     0.012 A 
BRANCH  30  33
HETATM   33  O   UNL     1       7.316  -0.018  -8.742  1.00  0.00    -0.356 OA
HETATM   34  C   UNL     1       6.964   1.323  -9.056  1.00  0.00     0.210 C 
ENDBRANCH  30  33
ENDBRANCH   1  27
TORSDOF 6
