REMARK  5 active torsions:
REMARK  status: ('A' for Active; 'I' for Inactive)
REMARK    1  A    between atoms: C_8  and  C_9 
REMARK    2  A    between atoms: C_9  and  N_10 
REMARK    3  A    between atoms: N_13  and  C_15 
REMARK    4  A    between atoms: C_15  and  C_16 
REMARK    5  A    between atoms: C_19  and  C_20 
ROOT
HETATM    1  N   UNL     1       1.627   2.509  -0.058  1.00  0.00    -0.405 N 
HETATM    2  C   UNL     1       1.106   1.437   0.801  1.00  0.00     0.150 C 
HETATM    3  C   UNL     1       1.363   1.464   2.337  1.00  0.00     0.206 C 
HETATM    4  N   UNL     1       0.390   2.372   3.088  1.00  0.00    -0.059 N 
HETATM    5  H   UNL     1       0.642   2.240   4.078  1.00  0.00     0.280 HD
HETATM    6  C   UNL     1       0.578   3.843   2.819  1.00  0.00     0.242 C 
HETATM    7  C   UNL     1       1.815   4.125   1.964  1.00  0.00     0.029 C 
HETATM    8  C   UNL     1       1.544   3.873   0.467  1.00  0.00     0.123 C 
HETATM    9  C   UNL     1       2.781   1.893   2.724  1.00  0.00     0.035 C 
HETATM   10  C   UNL     1       3.044   3.380   2.490  1.00  0.00     0.010 C 
ENDROOT
BRANCH   4  11
HETATM   11  C   UNL     1      -1.085   1.967   3.048  1.00  0.00     0.302 C 
BRANCH  11  12
HETATM   12  C   UNL     1      -1.316   0.541   3.346  1.00  0.00     0.107 A 
HETATM   13  O   UNL     1      -1.219  -0.297   2.284  1.00  0.00    -0.216 OA
HETATM   14  N   UNL     1      -1.322  -1.595   2.709  1.00  0.00    -0.128 NA
HETATM   15  C   UNL     1      -1.558  -1.555   4.032  1.00  0.00     0.097 A 
HETATM   16  C   UNL     1      -1.567  -0.199   4.475  1.00  0.00     0.071 A 
BRANCH  15  17
HETATM   17  C   UNL     1      -1.720  -2.771   4.828  1.00  0.00    -0.005 A 
HETATM   18  C   UNL     1      -1.199  -3.993   4.371  1.00  0.00     0.014 A 
HETATM   19  C   UNL     1      -1.324  -5.153   5.138  1.00  0.00     0.001 A 
HETATM   20  C   UNL     1      -1.977  -5.108   6.368  1.00  0.00     0.000 A 
HETATM   21  C   UNL     1      -2.508  -3.906   6.829  1.00  0.00     0.001 A 
HETATM   22  C   UNL     1      -2.380  -2.743   6.065  1.00  0.00     0.014 A 
ENDBRANCH  15  17
ENDBRANCH  11  12
ENDBRANCH   4  11
BRANCH   1  23
HETATM   23  C   UNL     1       2.913   2.196  -0.717  1.00  0.00     0.176 C 
BRANCH  23  24
HETATM   24  C   UNL     1       2.769   1.249  -1.870  1.00  0.00     0.050 A 
HETATM   25  C   UNL     1       3.650   0.350  -2.448  1.00  0.00     0.030 A 
HETATM   26  C   UNL     1       5.046  -0.002  -2.129  1.00  0.00     0.070 C 
HETATM   27  N   UNL     1       2.956  -0.229  -3.503  1.00  0.00    -0.354 N 
HETATM   28  H   UNL     1       3.337  -0.930  -4.138  1.00  0.00     0.166 HD
HETATM   29  C   UNL     1       1.722   0.268  -3.606  1.00  0.00     0.180 A 
HETATM   30  N   UNL     1       1.597   1.151  -2.616  1.00  0.00    -0.353 N 
HETATM   31  H   UNL     1       0.766   1.709  -2.428  1.00  0.00     0.166 HD
ENDBRANCH  23  24
ENDBRANCH   1  23
TORSDOF 5
