REMARK  8 active torsions:
REMARK  status: ('A' for Active; 'I' for Inactive)
REMARK    1  A    between atoms: C_7  and  C_8 
REMARK       I    between atoms: C_8  and  N_9 
REMARK    2  A    between atoms: N_9  and  N_10 
REMARK    3  A    between atoms: N_10  and  C_11 
REMARK    4  A    between atoms: C_11  and  N_12 
REMARK    5  A    between atoms: N_12  and  C_13 
REMARK    6  A    between atoms: N_15  and  C_16 
REMARK    7  A    between atoms: C_16  and  C_17 
REMARK    8  A    between atoms: C_29  and  C_30 
ROOT
HETATM    1  C   UNL     1       6.182  -1.670  -4.052  1.00  0.00     0.290 C 
HETATM    2  N   UNL     1       7.157  -0.901  -4.655  1.00  0.00    -0.262 N 
HETATM    3  O   UNL     1       5.019  -1.318  -3.876  1.00  0.00    -0.264 OA
HETATM    4  H   UNL     1       8.060  -1.334  -4.847  1.00  0.00     0.190 HD
ENDROOT
BRANCH   2   5
HETATM    5  N   UNL     1       6.849   0.305  -5.282  1.00  0.00    -0.273 N 
HETATM    6  H   UNL     1       6.252   0.968  -4.775  1.00  0.00     0.189 HD
BRANCH   5   7
HETATM    7  C   UNL     1       7.585   0.772  -6.338  1.00  0.00     0.192 C 
HETATM    8  S   UNL     1       8.677  -0.150  -7.221  1.00  0.00    -0.039 SA
BRANCH   7   9
HETATM    9  N   UNL     1       7.425   2.082  -6.689  1.00  0.00    -0.315 N 
HETATM   10  H   UNL     1       7.991   2.397  -7.465  1.00  0.00     0.170 HD
BRANCH   9  11
HETATM   11  C   UNL     1       6.663   3.038  -6.052  1.00  0.00     0.151 A 
HETATM   12  N   UNL     1       5.864   2.796  -5.008  1.00  0.00    -0.154 NA
HETATM   13  N   UNL     1       5.354   4.006  -4.692  1.00  0.00    -0.275 N 
HETATM   14  C   UNL     1       5.792   5.004  -5.514  1.00  0.00     0.116 A 
HETATM   15  C   UNL     1       6.641   4.404  -6.413  1.00  0.00     0.071 A 
BRANCH  13  16
HETATM   16  C   UNL     1       4.379   4.130  -3.616  1.00  0.00     0.192 C 
BRANCH  16  17
HETATM   17  C   UNL     1       5.033   4.095  -2.265  1.00  0.00     0.000 A 
HETATM   18  C   UNL     1       5.594   5.253  -1.721  1.00  0.00     0.124 A 
HETATM   19  F   UNL     1       5.536   6.404  -2.407  1.00  0.00    -0.205 F 
HETATM   20  C   UNL     1       6.211   5.243  -0.473  1.00  0.00     0.043 A 
HETATM   21  C   UNL     1       6.277   4.056   0.253  1.00  0.00     0.003 A 
HETATM   22  C   UNL     1       5.731   2.886  -0.277  1.00  0.00     0.001 A 
HETATM   23  C   UNL     1       5.116   2.902  -1.532  1.00  0.00     0.012 A 
ENDBRANCH  16  17
ENDBRANCH  13  16
ENDBRANCH   9  11
ENDBRANCH   7   9
ENDBRANCH   5   7
ENDBRANCH   2   5
BRANCH   1  24
HETATM   24  C   UNL     1       6.702  -2.980  -3.629  1.00  0.00     0.150 A 
HETATM   25  N   UNL     1       8.011  -3.298  -3.761  1.00  0.00    -0.165 NA
HETATM   26  N   UNL     1       8.092  -4.524  -3.222  1.00  0.00    -0.240 N 
HETATM   27  C   UNL     1       6.891  -5.052  -2.846  1.00  0.00     0.123 A 
HETATM   28  C   UNL     1       9.353  -5.224  -3.106  1.00  0.00     0.221 C 
HETATM   29  N   UNL     1       6.790  -6.309  -2.368  1.00  0.00    -0.371 N 
HETATM   30  C   UNL     1       5.968  -4.060  -3.061  1.00  0.00     0.089 A 
HETATM   31  C   UNL     1       7.905  -7.250  -2.363  1.00  0.00     0.081 C 
HETATM   32  H   UNL     1       5.885  -6.689  -2.093  1.00  0.00     0.161 HD
HETATM   33  C   UNL     1       8.243  -7.646  -0.930  1.00  0.00     0.032 C 
HETATM   34  C   UNL     1       9.109  -6.740  -3.174  1.00  0.00     0.061 C 
BRANCH  28  35
HETATM   35  C   UNL     1      10.080  -4.764  -1.864  1.00  0.00     0.409 C 
HETATM   36  F   UNL     1      10.514  -3.487  -1.974  1.00  0.00    -0.169 F 
HETATM   37  F   UNL     1       9.346  -4.843  -0.737  1.00  0.00    -0.169 F 
HETATM   38  F   UNL     1      11.188  -5.526  -1.665  1.00  0.00    -0.169 F 
ENDBRANCH  28  35
ENDBRANCH   1  24
TORSDOF 8
