REMARK  4 active torsions:
REMARK  status: ('A' for Active; 'I' for Inactive)
REMARK    1  A    between atoms: C_4  and  C_5 
REMARK       I    between atoms: C_5  and  N_6 
REMARK    2  A    between atoms: N_6  and  C_7 
REMARK    3  A    between atoms: C_7  and  N_8 
REMARK    4  A    between atoms: N_8  and  C_9 
ROOT
HETATM    1  C   UNL     1       5.542   2.615   0.929  1.00  0.00     0.257 C 
HETATM    2  N   UNL     1       4.264   3.057   0.606  1.00  0.00    -0.299 N 
HETATM    3  O   UNL     1       6.547   3.299   1.056  1.00  0.00    -0.267 OA
HETATM    4  H   UNL     1       3.678   2.330   0.215  1.00  0.00     0.171 HD
ENDROOT
BRANCH   2   5
HETATM    5  C   UNL     1       3.962   4.273   0.083  1.00  0.00     0.179 C 
HETATM    6  S   UNL     1       2.910   4.330  -1.217  1.00  0.00    -0.040 SA
BRANCH   5   7
HETATM    7  N   UNL     1       4.480   5.429   0.550  1.00  0.00    -0.332 N 
HETATM    8  H   UNL     1       4.395   6.197  -0.108  1.00  0.00     0.168 HD
BRANCH   7   9
HETATM    9  C   UNL     1       4.842   5.815   1.860  1.00  0.00     0.051 A 
HETATM   10  C   UNL     1       5.354   7.100   2.053  1.00  0.00     0.145 A 
HETATM   11  N   UNL     1       5.660   7.642   3.257  1.00  0.00    -0.271 NA
HETATM   12  C   UNL     1       5.454   6.858   4.333  1.00  0.00     0.116 A 
HETATM   13  C   UNL     1       4.950   5.570   4.257  1.00  0.00     0.021 A 
HETATM   14  C   UNL     1       4.633   5.047   3.002  1.00  0.00     0.032 A 
ENDBRANCH   7   9
ENDBRANCH   5   7
ENDBRANCH   2   5
BRANCH   1  15
HETATM   15  C   UNL     1       5.641   1.138   1.068  1.00  0.00     0.033 A 
HETATM   16  C   UNL     1       6.671   0.471   0.398  1.00  0.00     0.023 A 
HETATM   17  C   UNL     1       6.740  -0.926   0.436  1.00  0.00    -0.061 A 
HETATM   18  C   UNL     1       7.813  -1.667  -0.307  1.00  0.00     0.048 C 
HETATM   19  C   UNL     1       5.791  -1.638   1.186  1.00  0.00     0.013 A 
HETATM   20  C   UNL     1       4.778  -0.973   1.891  1.00  0.00    -0.061 A 
HETATM   21  C   UNL     1       4.698   0.423   1.816  1.00  0.00     0.023 A 
HETATM   22  C   UNL     1       3.770  -1.761   2.675  1.00  0.00     0.048 C 
ENDBRANCH   1  15
TORSDOF 4
