REMARK  7 active torsions:
REMARK  status: ('A' for Active; 'I' for Inactive)
REMARK    1  A    between atoms: O_2  and  C_3 
REMARK    2  A    between atoms: C_6  and  C_7 
REMARK    3  A    between atoms: C_7  and  N_8 
REMARK    4  A    between atoms: C_7  and  C_25 
REMARK    5  A    between atoms: N_8  and  C_11 
REMARK    6  A    between atoms: C_11  and  C_12 
REMARK       I    between atoms: C_12  and  N_13 
REMARK    7  A    between atoms: N_13  and  C_14 
ROOT
HETATM    1  N   UNL     1       5.119   4.439  -3.745  1.00  0.00    -0.055 N 
HETATM    2  H   UNL     1       4.660   4.934  -2.964  1.00  0.00     0.278 HD
HETATM    3  H   UNL     1       5.904   3.957  -3.291  1.00  0.00     0.278 HD
ENDROOT
BRANCH   1   4
HETATM    4  C   UNL     1       4.202   3.409  -4.325  1.00  0.00     0.252 C 
BRANCH   4   5
HETATM    5  C   UNL     1       2.811   3.907  -4.715  1.00  0.00    -0.023 A 
HETATM    6  C   UNL     1       1.935   3.048  -5.412  1.00  0.00     0.012 A 
HETATM    7  C   UNL     1       0.634   3.441  -5.753  1.00  0.00     0.037 A 
HETATM    8  C   UNL     1       0.164   4.696  -5.382  1.00  0.00     0.068 A 
HETATM    9  C   UNL     1       1.006   5.547  -4.668  1.00  0.00     0.037 A 
HETATM   10  C   UNL     1       2.307   5.160  -4.327  1.00  0.00     0.012 A 
BRANCH   8  11
HETATM   11  O   UNL     1      -1.076   5.204  -5.641  1.00  0.00    -0.356 OA
HETATM   12  C   UNL     1      -2.006   4.348  -6.296  1.00  0.00     0.210 C 
ENDBRANCH   8  11
ENDBRANCH   4   5
BRANCH   4  13
HETATM   13  C   UNL     1       4.952   2.605  -5.383  1.00  0.00    -0.023 A 
HETATM   14  C   UNL     1       5.695   1.475  -4.995  1.00  0.00     0.009 A 
HETATM   15  C   UNL     1       6.437   0.755  -5.932  1.00  0.00     0.001 A 
HETATM   16  C   UNL     1       6.455   1.155  -7.265  1.00  0.00     0.000 A 
HETATM   17  C   UNL     1       5.729   2.273  -7.667  1.00  0.00     0.001 A 
HETATM   18  C   UNL     1       4.984   2.997  -6.734  1.00  0.00     0.009 A 
ENDBRANCH   4  13
ENDBRANCH   1   4
BRANCH   1  19
HETATM   19  C   UNL     1       5.697   5.483  -4.671  1.00  0.00     0.336 C 
BRANCH  19  20
HETATM   20  C   UNL     1       6.162   6.681  -3.843  1.00  0.00     0.248 C 
HETATM   21  N   UNL     1       6.958   7.575  -4.525  1.00  0.00    -0.326 N 
HETATM   22  H   UNL     1       7.169   7.392  -5.501  1.00  0.00     0.169 HD
HETATM   23  O   UNL     1       5.796   6.736  -2.669  1.00  0.00    -0.271 OA
BRANCH  21  24
HETATM   24  C   UNL     1       7.543   8.757  -4.010  1.00  0.00     0.037 A 
HETATM   25  C   UNL     1       7.371   9.197  -2.692  1.00  0.00     0.061 A 
HETATM   26  C   UNL     1       8.008  10.365  -2.332  1.00  0.00     0.065 A 
HETATM   27  C   UNL     1       8.793  11.095  -3.220  1.00  0.00     0.063 A 
HETATM   28  N   UNL     1       8.017  11.029  -1.110  1.00  0.00    -0.306 N 
HETATM   29  N   UNL     1       9.285  12.206  -2.547  1.00  0.00    -0.307 N 
HETATM   30  C   UNL     1       8.983  10.696  -4.518  1.00  0.00     0.034 A 
HETATM   31  C   UNL     1       8.810  12.180  -1.227  1.00  0.00     0.325 A 
HETATM   32  H   UNL     1       9.884  12.931  -2.907  1.00  0.00     0.170 HD
HETATM   33  O   UNL     1       9.040  12.996  -0.354  1.00  0.00    -0.247 OA
HETATM   34  C   UNL     1       8.345   9.511  -4.910  1.00  0.00     0.032 A 
HETATM   35  H   UNL     1       7.547  10.766  -0.259  1.00  0.00     0.170 HD
ENDBRANCH  21  24
ENDBRANCH  19  20
ENDBRANCH   1  19
TORSDOF 7
