REMARK  4 active torsions:
REMARK  status: ('A' for Active; 'I' for Inactive)
REMARK    1  A    between atoms: C_7  and  C_8 
REMARK    2  A    between atoms: N_9  and  N_10 
REMARK       I    between atoms: N_10  and  C_11 
REMARK    3  A    between atoms: C_11  and  C_12 
REMARK    4  A    between atoms: C_16  and  C_17 
ROOT
HETATM    1  N   UNL     1       3.249  -4.780  -0.003  1.00  0.00    -0.242 N 
HETATM    2  C   UNL     1       3.914  -5.996   0.007  1.00  0.00     0.289 C 
HETATM    3  O   UNL     1       3.356  -7.090   0.023  1.00  0.00    -0.264 OA
HETATM    4  H   UNL     1       3.765  -3.911  -0.016  1.00  0.00     0.192 HD
ENDROOT
BRANCH   2   5
HETATM    5  C   UNL     1       5.353  -5.899  -0.004  1.00  0.00     0.121 A 
HETATM    6  N   UNL     1       6.134  -7.020   0.003  1.00  0.00    -0.272 N 
HETATM    7  H   UNL     1       5.810  -7.983   0.015  1.00  0.00     0.189 HD
HETATM    8  N   UNL     1       7.451  -6.774  -0.010  1.00  0.00    -0.174 NA
HETATM    9  C   UNL     1       7.552  -5.436  -0.025  1.00  0.00     0.089 A 
HETATM   10  C   UNL     1       6.251  -4.850  -0.022  1.00  0.00     0.071 A 
BRANCH   9  11
HETATM   11  C   UNL     1       8.859  -4.765  -0.042  1.00  0.00    -0.003 A 
HETATM   12  C   UNL     1       8.955  -3.364  -0.050  1.00  0.00     0.053 A 
HETATM   13  C   UNL     1      10.213  -2.793  -0.066  1.00  0.00     0.106 A 
HETATM   14  C   UNL     1      11.359  -3.552  -0.075  1.00  0.00     0.105 A 
HETATM   15  O   UNL     1      10.475  -1.458  -0.076  1.00  0.00    -0.323 OA
HETATM   16  O   UNL     1      12.486  -2.792  -0.091  1.00  0.00    -0.323 OA
HETATM   17  C   UNL     1      11.313  -4.926  -0.067  1.00  0.00     0.040 A 
HETATM   18  C   UNL     1      11.919  -1.465  -0.091  1.00  0.00     0.352 A 
HETATM   19  C   UNL     1      10.051  -5.532  -0.051  1.00  0.00     0.017 A 
ENDBRANCH   9  11
ENDBRANCH   2   5
BRANCH   1  20
HETATM   20  N   UNL     1       1.883  -4.749   0.005  1.00  0.00    -0.183 NA
HETATM   21  C   UNL     1       1.338  -3.576  -0.005  1.00  0.00     0.153 C 
BRANCH  21  22
HETATM   22  C   UNL     1      -0.107  -3.437   0.002  1.00  0.00     0.018 A 
HETATM   23  C   UNL     1      -1.046  -4.461   0.019  1.00  0.00     0.018 A 
HETATM   24  C   UNL     1      -0.884  -5.941   0.035  1.00  0.00     0.069 C 
HETATM   25  N   UNL     1      -2.292  -3.886   0.019  1.00  0.00    -0.358 N 
HETATM   26  H   UNL     1      -3.165  -4.395   0.030  1.00  0.00     0.166 HD
HETATM   27  C   UNL     1      -2.195  -2.516   0.003  1.00  0.00     0.043 A 
HETATM   28  C   UNL     1      -0.836  -2.201  -0.008  1.00  0.00     0.004 A 
HETATM   29  C   UNL     1      -3.202  -1.544  -0.003  1.00  0.00     0.030 A 
HETATM   30  C   UNL     1      -0.469  -0.838  -0.026  1.00  0.00     0.014 A 
HETATM   31  C   UNL     1      -1.463   0.148  -0.032  1.00  0.00     0.001 A 
HETATM   32  C   UNL     1      -2.810  -0.203  -0.020  1.00  0.00     0.002 A 
ENDBRANCH  21  22
ENDBRANCH   1  20
TORSDOF 4
