REMARK  2 active torsions:
REMARK  status: ('A' for Active; 'I' for Inactive)
REMARK    1  A    between atoms: C_3  and  C_4 
REMARK    2  A    between atoms: C_11  and  C_12 
REMARK       I    between atoms: C_12  and  N_13 
ROOT
HETATM    1  C   UNL     1       2.921  -2.391   0.086  1.00  0.00     0.256 C 
HETATM    2  N   UNL     1       3.477  -3.676   0.155  1.00  0.00    -0.348 N 
HETATM    3  C   UNL     1       3.974  -4.287   1.385  1.00  0.00     0.128 C 
HETATM    4  C   UNL     1       3.895  -5.810   1.367  1.00  0.00     0.055 C 
HETATM    5  C   UNL     1       4.503  -6.424   0.095  1.00  0.00     0.100 C 
HETATM    6  N   UNL     1       5.979  -6.177   0.084  1.00  0.00    -0.273 NA
HETATM    7  C   UNL     1       6.657  -6.949  -0.896  1.00  0.00     0.036 A 
HETATM    8  C   UNL     1       6.200  -8.223  -1.277  1.00  0.00     0.056 A 
HETATM    9  N   UNL     1       5.002  -8.711  -0.745  1.00  0.00    -0.324 N 
HETATM   10  C   UNL     1       4.185  -7.947   0.053  1.00  0.00     0.245 C 
HETATM   11  O   UNL     1       3.216  -8.460   0.611  1.00  0.00    -0.271 OA
HETATM   12  C   UNL     1       7.897  -6.508  -1.365  1.00  0.00     0.026 A 
HETATM   13  C   UNL     1       8.636  -7.295  -2.251  1.00  0.00     0.002 A 
HETATM   14  C   UNL     1       8.159  -8.547  -2.643  1.00  0.00     0.002 A 
HETATM   15  C   UNL     1       6.944  -9.020  -2.146  1.00  0.00     0.031 A 
HETATM   16  C   UNL     1       3.846  -5.760  -1.131  1.00  0.00     0.055 C 
HETATM   17  C   UNL     1       3.979  -4.244  -1.091  1.00  0.00     0.128 C 
HETATM   18  O   UNL     1       2.674  -1.839  -0.984  1.00  0.00    -0.267 OA
HETATM   19  H   UNL     1       6.380  -6.452   0.983  1.00  0.00     0.129 HD
HETATM   20  H   UNL     1       4.736  -9.677  -0.878  1.00  0.00     0.169 HD
ENDROOT
BRANCH   1  21
HETATM   21  C   UNL     1       2.564  -1.724   1.341  1.00  0.00     0.062 A 
HETATM   22  C   UNL     1       1.230  -1.392   1.780  1.00  0.00    -0.014 A 
HETATM   23  C   UNL     1      -0.013  -1.714   1.021  1.00  0.00     0.052 C 
HETATM   24  C   UNL     1       1.347  -0.738   3.004  1.00  0.00     0.085 A 
HETATM   25  N   UNL     1       2.695  -0.653   3.282  1.00  0.00    -0.356 N 
HETATM   26  H   UNL     1       3.056  -0.198   4.112  1.00  0.00     0.166 HD
HETATM   27  C   UNL     1       3.444  -1.200   2.276  1.00  0.00     0.022 A 
HETATM   28  C   UNL     1       4.928  -1.145   2.315  1.00  0.00     0.069 C 
BRANCH  24  29
HETATM   29  C   UNL     1       0.387  -0.174   3.940  1.00  0.00     0.172 C 
HETATM   30  C   UNL     1      -1.080  -0.205   3.603  1.00  0.00     0.098 C 
HETATM   31  O   UNL     1       0.760   0.337   4.998  1.00  0.00    -0.291 OA
ENDBRANCH  24  29
ENDBRANCH   1  21
TORSDOF 2
