REMARK  7 active torsions:
REMARK  status: ('A' for Active; 'I' for Inactive)
REMARK    1  A    between atoms: C_7  and  C_8 
REMARK    2  A    between atoms: C_8  and  N_9 
REMARK       I    between atoms: N_9  and  C_10 
REMARK       I    between atoms: C_10  and  N_11 
REMARK    3  A    between atoms: N_11  and  C_12 
REMARK    4  A    between atoms: C_12  and  C_13 
REMARK    5  A    between atoms: C_13  and  C_14 
REMARK    6  A    between atoms: C_14  and  O_15 
REMARK    7  A    between atoms: C_14  and  C_16 
ROOT
HETATM    1  N   UNL     1       3.045   6.800  -1.001  1.00  0.00    -0.337 N 
HETATM    2  C   UNL     1       3.377   7.174   0.277  1.00  0.00     0.316 C 
HETATM    3  N   UNL     1       3.769   6.110   1.039  1.00  0.00    -0.339 N 
HETATM    4  O   UNL     1       3.409   8.343   0.648  1.00  0.00    -0.247 OA
HETATM    5  H   UNL     1       2.785   5.829  -1.098  1.00  0.00     0.164 HD
HETATM    6  H   UNL     1       3.392   5.205   0.793  1.00  0.00     0.164 HD
ENDROOT
BRANCH   1   7
HETATM    7  C   UNL     1       2.442   7.728  -1.938  1.00  0.00     0.183 C 
BRANCH   7   8
HETATM    8  C   UNL     1       3.378   8.815  -2.333  1.00  0.00     0.044 A 
HETATM    9  N   UNL     1       3.949   9.679  -1.410  1.00  0.00    -0.343 N 
HETATM   10  C   UNL     1       4.719  10.577  -2.002  1.00  0.00     0.112 A 
HETATM   11  H   UNL     1       3.822   9.565  -0.397  1.00  0.00     0.167 HD
HETATM   12  N   UNL     1       4.682  10.335  -3.328  1.00  0.00    -0.311 N 
HETATM   13  C   UNL     1       5.516  11.686  -1.430  1.00  0.00     0.049 A 
HETATM   14  C   UNL     1       5.391  11.107  -4.248  1.00  0.00     0.014 A 
HETATM   15  C   UNL     1       3.857   9.238  -3.554  1.00  0.00     0.125 A 
HETATM   16  C   UNL     1       5.337  10.807  -5.715  1.00  0.00     0.068 C 
HETATM   17  C   UNL     1       6.119  12.126  -3.737  1.00  0.00     0.025 A 
HETATM   18  C   UNL     1       6.194  12.437  -2.313  1.00  0.00     0.006 A 
ENDBRANCH   7   8
ENDBRANCH   1   7
BRANCH   3  19
HETATM   19  C   UNL     1       4.174   6.267   2.432  1.00  0.00     0.085 C 
HETATM   20  C   UNL     1       5.063   5.099   2.847  1.00  0.00     0.032 C 
BRANCH  19  21
HETATM   21  C   UNL     1       2.988   6.539   3.384  1.00  0.00     0.063 C 
BRANCH  21  22
HETATM   22  C   UNL     1       2.005   5.401   3.682  1.00  0.00     0.177 C 
BRANCH  22  23
HETATM   23  O   UNL     1       2.664   4.317   4.330  1.00  0.00    -0.389 OA
HETATM   24  H   UNL     1       2.828   4.590   5.249  1.00  0.00     0.210 HD
ENDBRANCH  22  23
BRANCH  22  25
HETATM   25  C   UNL     1       1.301   4.855   2.488  1.00  0.00     0.081 A 
HETATM   26  O   UNL     1       0.633   5.754   1.703  1.00  0.00    -0.324 OA
HETATM   27  C   UNL     1       0.008   5.047   0.727  1.00  0.00     0.142 A 
HETATM   28  C   UNL     1       0.281   3.706   0.853  1.00  0.00     0.027 A 
HETATM   29  C   UNL     1       1.115   3.580   1.989  1.00  0.00     0.037 A 
ENDBRANCH  22  25
ENDBRANCH  21  22
ENDBRANCH  19  21
ENDBRANCH   3  19
TORSDOF 7
