REMARK  4 active torsions:
REMARK  status: ('A' for Active; 'I' for Inactive)
REMARK    1  A    between atoms: C_2  and  C_3 
REMARK    2  A    between atoms: C_4  and  C_5 
REMARK       I    between atoms: C_5  and  N_6 
REMARK    3  A    between atoms: N_6  and  C_7 
REMARK    4  A    between atoms: C_14  and  C_15 
REMARK       I    between atoms: C_15  and  N_16 
ROOT
HETATM    1  C   UNL     1       4.488   4.603  -2.897  1.00  0.00     0.035 A 
HETATM    2  C   UNL     1       4.469   4.400  -4.283  1.00  0.00     0.046 A 
HETATM    3  C   UNL     1       5.608   4.719  -5.053  1.00  0.00     0.030 A 
HETATM    4  C   UNL     1       6.731   5.225  -4.410  1.00  0.00     0.063 A 
HETATM    5  N   UNL     1       7.656   5.418  -5.398  1.00  0.00    -0.277 N 
HETATM    6  H   UNL     1       8.600   5.772  -5.293  1.00  0.00     0.189 HD
HETATM    7  N   UNL     1       7.231   5.097  -6.631  1.00  0.00    -0.168 NA
HETATM    8  C   UNL     1       5.964   4.665  -6.435  1.00  0.00     0.156 A 
HETATM    9  C   UNL     1       6.784   5.446  -3.033  1.00  0.00     0.034 A 
HETATM   10  C   UNL     1       5.637   5.131  -2.292  1.00  0.00     0.032 A 
ENDROOT
BRANCH   1  11
HETATM   11  N   UNL     1       3.404   4.294  -2.045  1.00  0.00    -0.327 N 
HETATM   12  C   UNL     1       2.239   3.646  -2.390  1.00  0.00     0.227 C 
HETATM   13  O   UNL     1       1.899   3.266  -3.499  1.00  0.00    -0.273 OA
HETATM   14  H   UNL     1       3.520   4.531  -1.072  1.00  0.00     0.169 HD
BRANCH  12  15
HETATM   15  C   UNL     1       1.311   3.366  -1.259  1.00  0.00     0.087 A 
HETATM   16  C   UNL     1       1.478   2.005  -0.589  1.00  0.00     0.032 A 
HETATM   17  C   UNL     1       1.647   3.273   0.204  1.00  0.00     0.025 A 
BRANCH  16  18
HETATM   18  C   UNL     1       0.270   1.113  -0.480  1.00  0.00    -0.053 A 
HETATM   19  C   UNL     1      -0.313   0.575  -1.642  1.00  0.00     0.009 A 
HETATM   20  C   UNL     1      -1.405  -0.294  -1.577  1.00  0.00     0.024 A 
HETATM   21  C   UNL     1      -1.935  -0.639  -0.339  1.00  0.00     0.034 A 
HETATM   22  C   UNL     1      -1.380  -0.122   0.829  1.00  0.00     0.024 A 
HETATM   23 CL   UNL     1      -3.274  -1.714  -0.248  1.00  0.00    -0.084 Cl
HETATM   24  C   UNL     1      -0.283   0.743   0.756  1.00  0.00     0.009 A 
ENDBRANCH  16  18
ENDBRANCH  12  15
ENDBRANCH   1  11
BRANCH   8  25
HETATM   25  C   UNL     1       5.129   4.217  -7.558  1.00  0.00     0.270 C 
HETATM   26  N   UNL     1       5.752   4.274  -8.775  1.00  0.00    -0.365 N 
HETATM   27  H   UNL     1       6.705   4.616  -8.818  1.00  0.00     0.159 HD
HETATM   28  H   UNL     1       5.250   3.998  -9.605  1.00  0.00     0.159 HD
HETATM   29  O   UNL     1       3.973   3.823  -7.457  1.00  0.00    -0.266 OA
ENDBRANCH   8  25
TORSDOF 4
