REMARK  6 active torsions:
REMARK  status: ('A' for Active; 'I' for Inactive)
REMARK    1  A    between atoms: C_2  and  O_3 
REMARK    2  A    between atoms: C_2  and  C_4 
REMARK    3  A    between atoms: C_6  and  N_7 
REMARK       I    between atoms: N_7  and  C_8 
REMARK    4  A    between atoms: C_8  and  C_9 
REMARK    5  A    between atoms: C_14  and  C_15 
REMARK    6  A    between atoms: C_23  and  C_24 
ROOT
HETATM    1  C   UNL     1       4.823  -0.594  -3.432  1.00  0.00     0.148 A 
HETATM    2  N   UNL     1       4.841   0.541  -4.172  1.00  0.00    -0.165 NA
HETATM    3  N   UNL     1       4.907   1.517  -3.244  1.00  0.00    -0.240 N 
HETATM    4  C   UNL     1       4.827   1.062  -1.959  1.00  0.00     0.123 A 
HETATM    5  N   UNL     1       4.794   1.897  -0.902  1.00  0.00    -0.366 N 
HETATM    6  C   UNL     1       4.949   3.337  -1.032  1.00  0.00     0.118 C 
HETATM    7  C   UNL     1       4.580   3.830  -2.443  1.00  0.00     0.066 C 
HETATM    8  C   UNL     1       5.008   2.916  -3.609  1.00  0.00     0.221 C 
HETATM    9  C   UNL     1       4.802  -0.303  -2.042  1.00  0.00     0.089 A 
HETATM   10  H   UNL     1       4.860   1.536   0.049  1.00  0.00     0.161 HD
ENDROOT
BRANCH   1  11
HETATM   11  C   UNL     1       4.820  -1.940  -4.032  1.00  0.00     0.276 C 
HETATM   12  N   UNL     1       4.782  -1.902  -5.412  1.00  0.00    -0.322 N 
HETATM   13  H   UNL     1       4.723  -0.961  -5.794  1.00  0.00     0.169 HD
HETATM   14  O   UNL     1       4.838  -2.944  -3.327  1.00  0.00    -0.266 OA
BRANCH  12  15
HETATM   15  C   UNL     1       4.802  -2.985  -6.308  1.00  0.00     0.035 A 
HETATM   16  C   UNL     1       4.981  -4.314  -5.913  1.00  0.00     0.039 A 
HETATM   17  C   UNL     1       5.006  -5.361  -6.853  1.00  0.00    -0.028 A 
HETATM   18  C   UNL     1       4.824  -5.052  -8.206  1.00  0.00     0.010 A 
HETATM   19  C   UNL     1       4.646  -3.730  -8.612  1.00  0.00     0.003 A 
HETATM   20  C   UNL     1       4.642  -2.701  -7.668  1.00  0.00     0.029 A 
BRANCH  17  21
HETATM   21  C   UNL     1       5.204  -6.783  -6.373  1.00  0.00     0.147 C 
HETATM   22  C   UNL     1       3.888  -7.417  -5.938  1.00  0.00     0.044 C 
BRANCH  21  23
HETATM   23  O   UNL     1       5.786  -7.582  -7.402  1.00  0.00    -0.391 OA
HETATM   24  H   UNL     1       5.998  -8.442  -7.004  1.00  0.00     0.210 HD
ENDBRANCH  21  23
ENDBRANCH  17  21
ENDBRANCH  12  15
ENDBRANCH   1  11
BRANCH   8  25
HETATM   25  C   UNL     1       6.388   3.226  -4.146  1.00  0.00     0.409 C 
HETATM   26  F   UNL     1       7.385   2.891  -3.307  1.00  0.00    -0.169 F 
HETATM   27  F   UNL     1       6.624   2.607  -5.325  1.00  0.00    -0.169 F 
HETATM   28  F   UNL     1       6.503   4.557  -4.390  1.00  0.00    -0.169 F 
ENDBRANCH   8  25
BRANCH   6  29
HETATM   29  C   UNL     1       6.289   3.811  -0.495  1.00  0.00    -0.035 A 
HETATM   30  C   UNL     1       7.446   3.013  -0.525  1.00  0.00     0.012 A 
HETATM   31  C   UNL     1       8.650   3.471   0.016  1.00  0.00     0.043 A 
HETATM   32  C   UNL     1       8.702   4.725   0.606  1.00  0.00     0.116 A 
HETATM   33  F   UNL     1       9.852   5.158   1.140  1.00  0.00    -0.206 F 
HETATM   34  C   UNL     1       7.576   5.536   0.655  1.00  0.00     0.043 A 
HETATM   35  C   UNL     1       6.376   5.084   0.101  1.00  0.00     0.012 A 
ENDBRANCH   6  29
TORSDOF 6
