REMARK  2 active torsions:
REMARK  status: ('A' for Active; 'I' for Inactive)
REMARK    1  A    between atoms: N_9  and  N_11 
REMARK       I    between atoms: N_11  and  C_12 
REMARK    2  A    between atoms: C_12  and  C_13 
ROOT
HETATM    1  C   UNL     1       1.582   0.548  -0.114  1.00  0.00     0.033 C 
HETATM    2  C   UNL     1       2.969  -0.034   0.173  1.00  0.00     0.086 C 
HETATM    3  N   UNL     1       3.181  -0.372   1.608  1.00  0.00    -0.379 N 
HETATM    4  C   UNL     1       3.869   0.667   2.384  1.00  0.00     0.150 C 
HETATM    5  C   UNL     1       2.149  -1.075   2.270  1.00  0.00     0.052 A 
HETATM    6  C   UNL     1       1.796  -2.392   1.865  1.00  0.00     0.040 A 
HETATM    7  N   UNL     1       2.495  -3.028   0.779  1.00  0.00    -0.246 NA
HETATM    8  C   UNL     1       2.449  -2.365  -0.490  1.00  0.00     0.077 C 
HETATM    9  N   UNL     1       1.575  -2.847  -1.356  1.00  0.00    -0.291 N 
HETATM   10  H   UNL     1       1.035  -3.647  -1.002  1.00  0.00     0.188 HD
HETATM   11  C   UNL     1       3.329  -1.211  -0.746  1.00  0.00     0.096 C 
HETATM   12  C   UNL     1       1.450  -0.541   3.364  1.00  0.00     0.031 A 
HETATM   13  C   UNL     1       0.440  -1.263   4.011  1.00  0.00     0.002 A 
HETATM   14  C   UNL     1       0.106  -2.545   3.584  1.00  0.00     0.002 A 
HETATM   15  C   UNL     1       0.783  -3.111   2.509  1.00  0.00     0.026 A 
HETATM   16  H   UNL     1       3.456  -2.884   1.119  1.00  0.00     0.135 HD
ENDROOT
BRANCH   9  17
HETATM   17  N   UNL     1       1.327  -2.420  -2.583  1.00  0.00    -0.265 N 
HETATM   18  C   UNL     1       0.340  -3.083  -3.295  1.00  0.00     0.270 C 
HETATM   19  O   UNL     1      -0.310  -4.006  -2.813  1.00  0.00    -0.266 OA
HETATM   20  H   UNL     1       1.791  -1.599  -2.948  1.00  0.00     0.190 HD
BRANCH  18  21
HETATM   21  C   UNL     1       0.079  -2.591  -4.674  1.00  0.00     0.033 A 
HETATM   22  C   UNL     1       1.080  -2.001  -5.459  1.00  0.00     0.017 A 
HETATM   23  C   UNL     1       0.780  -1.548  -6.746  1.00  0.00     0.001 A 
HETATM   24  C   UNL     1      -0.510  -1.690  -7.255  1.00  0.00     0.000 A 
HETATM   25  C   UNL     1      -1.503  -2.294  -6.485  1.00  0.00     0.001 A 
HETATM   26  C   UNL     1      -1.210  -2.749  -5.199  1.00  0.00     0.017 A 
ENDBRANCH  18  21
ENDBRANCH   9  17
TORSDOF 2
