REMARK  7 active torsions:
REMARK  status: ('A' for Active; 'I' for Inactive)
REMARK    1  A    between atoms: C_2  and  C_3 
REMARK    2  A    between atoms: C_6  and  C_7 
REMARK    3  A    between atoms: N_8  and  C_9 
REMARK    4  A    between atoms: C_14  and  S_15 
REMARK    5  A    between atoms: S_15  and  C_16 
REMARK    6  A    between atoms: C_16  and  C_17 
REMARK       I    between atoms: C_17  and  N_18 
REMARK    7  A    between atoms: N_18  and  C_19 
ROOT
HETATM    1  C   UNL     1       3.383   4.816  -3.294  1.00  0.00     0.164 C 
HETATM    2  N   UNL     1       3.450   6.167  -2.987  1.00  0.00    -0.302 N 
HETATM    3  C   UNL     1       3.293   6.801  -4.192  1.00  0.00     0.192 C 
HETATM    4  N   UNL     1       3.428   5.932  -5.165  1.00  0.00    -0.122 NA
HETATM    5  N   UNL     1       3.472   4.689  -4.608  1.00  0.00    -0.128 NA
ENDROOT
BRANCH   3   6
HETATM    6  S   UNL     1       2.864   8.459  -4.415  1.00  0.00    -0.081 SA
BRANCH   6   7
HETATM    7  C   UNL     1       2.717   8.561  -6.225  1.00  0.00     0.185 C 
BRANCH   7   8
HETATM    8  C   UNL     1       1.418   7.955  -6.751  1.00  0.00     0.231 C 
HETATM    9  N   UNL     1       1.477   6.583  -6.911  1.00  0.00    -0.326 N 
HETATM   10  H   UNL     1       2.255   6.110  -6.448  1.00  0.00     0.169 HD
HETATM   11  O   UNL     1       0.455   8.668  -7.027  1.00  0.00    -0.272 OA
BRANCH   9  12
HETATM   12  C   UNL     1       0.546   5.733  -7.539  1.00  0.00     0.037 A 
HETATM   13  C   UNL     1      -0.519   6.195  -8.319  1.00  0.00     0.061 A 
HETATM   14  C   UNL     1      -1.305   5.240  -8.926  1.00  0.00     0.065 A 
HETATM   15  C   UNL     1      -1.077   3.874  -8.773  1.00  0.00     0.063 A 
HETATM   16  N   UNL     1      -2.395   5.395  -9.777  1.00  0.00    -0.306 N 
HETATM   17  N   UNL     1      -2.027   3.191  -9.524  1.00  0.00    -0.307 N 
HETATM   18  C   UNL     1      -0.052   3.386  -8.003  1.00  0.00     0.034 A 
HETATM   19  C   UNL     1      -2.853   4.127 -10.163  1.00  0.00     0.325 A 
HETATM   20  H   UNL     1      -2.123   2.195  -9.629  1.00  0.00     0.170 HD
HETATM   21  O   UNL     1      -3.783   3.883 -10.911  1.00  0.00    -0.247 OA
HETATM   22  C   UNL     1       0.769   4.338  -7.387  1.00  0.00     0.032 A 
HETATM   23  H   UNL     1      -2.799   6.261 -10.094  1.00  0.00     0.170 HD
ENDBRANCH   9  12
ENDBRANCH   7   8
ENDBRANCH   6   7
ENDBRANCH   3   6
BRANCH   2  24
HETATM   24  C   UNL     1       3.803   6.728  -1.701  1.00  0.00     0.094 C 
HETATM   25  C   UNL     1       5.066   7.605  -1.702  1.00  0.00     0.026 C 
HETATM   26  C   UNL     1       4.896   8.466  -0.462  1.00  0.00     0.002 C 
HETATM   27  C   UNL     1       3.416   8.814  -0.482  1.00  0.00     0.002 C 
HETATM   28  C   UNL     1       2.716   7.555  -0.995  1.00  0.00     0.026 C 
ENDBRANCH   2  24
BRANCH   1  29
HETATM   29  C   UNL     1       3.219   3.695  -2.369  1.00  0.00     0.012 A 
HETATM   30  C   UNL     1       2.311   3.742  -1.307  1.00  0.00     0.016 A 
HETATM   31  C   UNL     1       2.096   2.621  -0.494  1.00  0.00     0.009 A 
HETATM   32  C   UNL     1       2.766   1.409  -0.727  1.00  0.00    -0.051 A 
HETATM   33  C   UNL     1       3.687   1.381  -1.790  1.00  0.00     0.009 A 
HETATM   34  C   UNL     1       3.903   2.500  -2.603  1.00  0.00     0.016 A 
BRANCH  32  35
HETATM   35  C   UNL     1       2.517   0.147   0.117  1.00  0.00    -0.024 C 
HETATM   36  C   UNL     1       1.338   0.284   1.107  1.00  0.00     0.019 C 
HETATM   37  C   UNL     1       3.784  -0.168   0.938  1.00  0.00     0.019 C 
HETATM   38  C   UNL     1       2.192  -1.057  -0.797  1.00  0.00     0.019 C 
ENDBRANCH  32  35
ENDBRANCH   1  29
TORSDOF 7
