REMARK  7 active torsions:
REMARK  status: ('A' for Active; 'I' for Inactive)
REMARK    1  A    between atoms: C_8  and  C_9 
REMARK    2  A    between atoms: C_9  and  N_10 
REMARK    3  A    between atoms: C_9  and  C_14 
REMARK       I    between atoms: C_14  and  N_15 
REMARK    4  A    between atoms: N_15  and  C_16 
REMARK    5  A    between atoms: C_16  and  C_17 
REMARK    6  A    between atoms: C_17  and  C_18 
REMARK    7  A    between atoms: C_17  and  C_24 
ROOT
HETATM    1  C   UNL     1       1.153  -2.460  -0.640  1.00  0.00     0.253 C 
HETATM    2  N   UNL     1       0.859  -1.530   0.327  1.00  0.00    -0.358 N 
HETATM    3  O   UNL     1       1.858  -2.244  -1.628  1.00  0.00    -0.271 OA
HETATM    4  H   UNL     1       0.280  -1.766   1.123  1.00  0.00     0.162 HD
ENDROOT
BRANCH   2   5
HETATM    5  C   UNL     1       1.333  -0.145   0.255  1.00  0.00     0.141 C 
BRANCH   5   6
HETATM    6  C   UNL     1       0.187   0.930   0.236  1.00  0.00     0.026 C 
HETATM    7  C   UNL     1       0.893   2.315   0.195  1.00  0.00     0.027 C 
BRANCH   6   8
HETATM    8  C   UNL     1      -0.653   0.660  -1.048  1.00  0.00    -0.044 A 
HETATM    9  C   UNL     1      -1.781  -0.188  -1.018  1.00  0.00     0.008 A 
HETATM   10  C   UNL     1      -2.546  -0.425  -2.164  1.00  0.00     0.001 A 
HETATM   11  C   UNL     1      -2.188   0.160  -3.373  1.00  0.00     0.000 A 
HETATM   12  C   UNL     1      -1.062   0.975  -3.438  1.00  0.00     0.001 A 
HETATM   13  C   UNL     1      -0.301   1.219  -2.290  1.00  0.00     0.008 A 
ENDBRANCH   6   8
BRANCH   6  14
HETATM   14  C   UNL     1      -0.679   0.972   1.527  1.00  0.00    -0.044 A 
HETATM   15  C   UNL     1      -0.304   0.342   2.727  1.00  0.00     0.008 A 
HETATM   16  C   UNL     1      -1.110   0.420   3.868  1.00  0.00     0.001 A 
HETATM   17  C   UNL     1      -2.296   1.148   3.843  1.00  0.00     0.000 A 
HETATM   18  C   UNL     1      -2.671   1.813   2.682  1.00  0.00     0.001 A 
HETATM   19  C   UNL     1      -1.868   1.735   1.543  1.00  0.00     0.008 A 
ENDBRANCH   6  14
ENDBRANCH   5   6
ENDBRANCH   2   5
BRANCH   1  20
HETATM   20  C   UNL     1       0.469  -3.836  -0.504  1.00  0.00     0.311 C 
BRANCH  20  21
HETATM   21  C   UNL     1       1.251  -4.751   0.380  1.00  0.00     0.031 A 
HETATM   22  C   UNL     1       2.372  -5.525   0.097  1.00  0.00     0.035 A 
HETATM   23  C   UNL     1       3.201  -5.720  -1.120  1.00  0.00     0.070 C 
HETATM   24  N   UNL     1       2.692  -6.169   1.265  1.00  0.00    -0.282 N 
HETATM   25  H   UNL     1       3.461  -6.810   1.448  1.00  0.00     0.189 HD
HETATM   26  N   UNL     1       1.860  -5.883   2.268  1.00  0.00    -0.179 NA
HETATM   27  C   UNL     1       0.989  -5.013   1.759  1.00  0.00     0.061 A 
HETATM   28  C   UNL     1      -0.073  -4.458   2.639  1.00  0.00     0.073 C 
ENDBRANCH  20  21
BRANCH  20  29
HETATM   29  N   UNL     1       0.305  -4.406  -1.880  1.00  0.00    -0.062 N 
HETATM   30  H   UNL     1      -0.408  -3.891  -2.406  1.00  0.00     0.275 HD
HETATM   31  H   UNL     1       1.193  -4.242  -2.378  1.00  0.00     0.275 HD
HETATM   32  H   UNL     1       0.095  -5.407  -1.864  1.00  0.00     0.275 HD
ENDBRANCH  20  29
ENDBRANCH   1  20
TORSDOF 7
