REMARK  3 active torsions:
REMARK  status: ('A' for Active; 'I' for Inactive)
REMARK    1  A    between atoms: C_2  and  C_3 
REMARK    2  A    between atoms: C_3  and  C_4 
REMARK    3  A    between atoms: C_24  and  N_25 
ROOT
HETATM    1  C   UNL     1       4.718   1.123   0.659  1.00  0.00     0.067 A 
HETATM    2  N   UNL     1       5.487   2.202   0.892  1.00  0.00    -0.177 NA
HETATM    3  N   UNL     1       6.738   1.791   0.618  1.00  0.00    -0.256 N 
HETATM    4  H   UNL     1       7.502   2.451   0.711  1.00  0.00     0.191 HD
HETATM    5  C   UNL     1       6.787   0.498   0.217  1.00  0.00     0.176 A 
HETATM    6  C   UNL     1       5.503   0.012   0.250  1.00  0.00     0.049 A 
HETATM    7  C   UNL     1       5.254  -1.396  -0.171  1.00  0.00     0.145 A 
HETATM    8  C   UNL     1       4.231  -1.458  -1.340  1.00  0.00     0.246 A 
HETATM    9  O   UNL     1       4.362  -1.026  -2.474  1.00  0.00    -0.271 OA
HETATM   10  N   UNL     1       3.107  -2.128  -0.867  1.00  0.00    -0.325 N 
HETATM   11  C   UNL     1       3.259  -2.505   0.460  1.00  0.00     0.043 A 
HETATM   12  C   UNL     1       4.508  -2.095   0.953  1.00  0.00     0.003 A 
HETATM   13  C   UNL     1       2.336  -3.190   1.220  1.00  0.00     0.030 A 
HETATM   14  C   UNL     1       2.684  -3.480   2.537  1.00  0.00     0.003 A 
HETATM   15  C   UNL     1       3.932  -3.088   3.053  1.00  0.00     0.007 A 
HETATM   16  C   UNL     1       4.871  -2.395   2.267  1.00  0.00    -0.051 A 
HETATM   17  C   UNL     1       6.183  -1.985   2.866  1.00  0.00     0.049 C 
HETATM   18  C   UNL     1       6.546  -2.087  -0.606  1.00  0.00     0.095 A 
HETATM   19  C   UNL     1       6.450  -3.439  -1.051  1.00  0.00     0.101 C 
HETATM   20  N   UNL     1       6.369  -4.534  -1.427  1.00  0.00    -0.191 NA
HETATM   21  C   UNL     1       7.753  -1.459  -0.585  1.00  0.00     0.141 A 
HETATM   22  O   UNL     1       7.896  -0.131  -0.151  1.00  0.00    -0.279 OA
HETATM   23  H   UNL     1       2.300  -2.316  -1.444  1.00  0.00     0.169 HD
ENDROOT
BRANCH  21  24
HETATM   24  N   UNL     1       8.953  -2.020  -0.965  1.00  0.00    -0.282 NA
HETATM   25  H   UNL     1       8.884  -2.785  -1.633  1.00  0.00     0.126 HD
HETATM   26  H   UNL     1       9.626  -1.313  -1.251  1.00  0.00     0.126 HD
ENDBRANCH  21  24
BRANCH   1  27
HETATM   27  C   UNL     1       3.235   1.249   0.807  1.00  0.00     0.061 C 
BRANCH  27  28
HETATM   28  C   UNL     1       2.708   0.942   2.210  1.00  0.00     0.002 C 
HETATM   29  C   UNL     1       3.140   1.955   3.261  1.00  0.00     0.005 C 
ENDBRANCH  27  28
ENDBRANCH   1  27
TORSDOF 3
