REMARK  4 active torsions:
REMARK  status: ('A' for Active; 'I' for Inactive)
REMARK    1  A    between atoms: C_2  and  C_3 
REMARK    2  A    between atoms: C_4  and  N_5 
REMARK       I    between atoms: N_5  and  C_6 
REMARK       I    between atoms: C_6  and  N_7 
REMARK    3  A    between atoms: C_8  and  C_9 
REMARK    4  A    between atoms: C_21  and  C_22 
ROOT
HETATM    1  N   UNL     1       3.216  -0.735   2.240  1.00  0.00    -0.209 NA
HETATM    2  C   UNL     1       2.443  -1.477   1.388  1.00  0.00     0.301 C 
HETATM    3  N   UNL     1       2.630  -1.394   0.032  1.00  0.00    -0.330 N 
HETATM    4  C   UNL     1       1.875  -2.260  -0.878  1.00  0.00     0.125 C 
HETATM    5  C   UNL     1       2.337  -1.851  -2.283  1.00  0.00     0.032 C 
HETATM    6  C   UNL     1       2.726  -0.396  -2.109  1.00  0.00     0.022 C 
HETATM    7  C   UNL     1       3.353  -0.377  -0.722  1.00  0.00     0.128 C 
HETATM    8  O   UNL     1       1.650  -2.268   1.904  1.00  0.00    -0.254 OA
HETATM    9  H   UNL     1       2.898  -1.006   3.166  1.00  0.00     0.138 HD
ENDROOT
BRANCH   1  10
HETATM   10  C   UNL     1       3.397   0.663   2.176  1.00  0.00     0.029 A 
HETATM   11  C   UNL     1       2.282   1.538   2.215  1.00  0.00    -0.036 A 
HETATM   12  C   UNL     1       2.499   2.924   2.139  1.00  0.00     0.009 A 
HETATM   13  C   UNL     1       3.785   3.442   2.074  1.00  0.00     0.001 A 
HETATM   14  C   UNL     1       4.876   2.580   2.113  1.00  0.00     0.009 A 
HETATM   15  C   UNL     1       4.714   1.179   2.174  1.00  0.00    -0.036 A 
BRANCH  11  16
HETATM   16  C   UNL     1       0.848   1.077   2.386  1.00  0.00     0.036 C 
HETATM   17  C   UNL     1       0.049   1.129   1.092  1.00  0.00     0.010 C 
ENDBRANCH  11  16
BRANCH  15  18
HETATM   18  C   UNL     1       6.002   0.390   2.336  1.00  0.00     0.036 C 
HETATM   19  C   UNL     1       6.074  -1.076   1.941  1.00  0.00     0.010 C 
ENDBRANCH  15  18
ENDBRANCH   1  10
BRANCH   4  20
HETATM   20  C   UNL     1       2.077  -3.730  -0.652  1.00  0.00     0.014 A 
HETATM   21  C   UNL     1       3.266  -4.457  -0.345  1.00  0.00     0.061 A 
HETATM   22  C   UNL     1       4.640  -3.946  -0.120  1.00  0.00     0.073 C 
HETATM   23  N   UNL     1       3.040  -5.774  -0.255  1.00  0.00    -0.179 NA
HETATM   24  N   UNL     1       1.723  -5.893  -0.454  1.00  0.00    -0.282 N 
HETATM   25  H   UNL     1       1.315  -6.819  -0.397  1.00  0.00     0.189 HD
HETATM   26  C   UNL     1       1.100  -4.712  -0.730  1.00  0.00     0.034 A 
HETATM   27  C   UNL     1      -0.352  -4.634  -1.013  1.00  0.00     0.070 C 
ENDBRANCH   4  20
TORSDOF 4
