REMARK  8 active torsions:
REMARK  status: ('A' for Active; 'I' for Inactive)
REMARK    1  A    between atoms: N_2  and  C_5 
REMARK    2  A    between atoms: C_5  and  C_6 
REMARK    3  A    between atoms: C_6  and  S_7 
REMARK    4  A    between atoms: S_7  and  C_8 
REMARK    5  A    between atoms: C_10  and  C_24 
REMARK    6  A    between atoms: C_15  and  C_18 
REMARK    7  A    between atoms: C_30  and  C_34 
REMARK       I    between atoms: C_34  and  N_36 
REMARK    8  A    between atoms: N_36  and  C_37 
ROOT
HETATM    1  C   UNL     1       8.158  -0.916  -6.997  1.00  0.00     0.108 A 
HETATM    2  N   UNL     1       8.809  -0.930  -5.818  1.00  0.00    -0.225 NA
HETATM    3  C   UNL     1       8.827   0.210  -5.117  1.00  0.00     0.134 A 
HETATM    4  N   UNL     1       8.181   1.324  -5.494  1.00  0.00    -0.232 NA
HETATM    5  C   UNL     1       7.551   1.329  -6.673  1.00  0.00     0.072 A 
HETATM    6  C   UNL     1       6.934   2.500  -7.088  1.00  0.00     0.033 A 
HETATM    7  C   UNL     1       6.285   2.600  -8.323  1.00  0.00     0.014 A 
HETATM    8  C   UNL     1       6.236   1.502  -9.181  1.00  0.00    -0.022 A 
HETATM    9  C   UNL     1       6.839   0.310  -8.766  1.00  0.00     0.029 A 
HETATM   10  C   UNL     1       7.506   0.213  -7.511  1.00  0.00     0.029 A 
ENDROOT
BRANCH   3  11
HETATM   11  C   UNL     1       9.624   0.279  -3.830  1.00  0.00     0.086 C 
HETATM   12  C   UNL     1      10.356  -1.019  -3.475  1.00  0.00     0.188 C 
HETATM   13  O   UNL     1      11.418  -1.392  -4.370  1.00  0.00    -0.350 OA
HETATM   14  C   UNL     1      12.174  -0.362  -4.861  1.00  0.00     0.075 A 
HETATM   15  C   UNL     1      13.293  -0.729  -5.611  1.00  0.00     0.038 A 
HETATM   16  C   UNL     1      11.853   0.988  -4.695  1.00  0.00    -0.023 A 
HETATM   17  C   UNL     1      14.100   0.247  -6.203  1.00  0.00     0.020 A 
HETATM   18  C   UNL     1      13.789   1.601  -6.036  1.00  0.00     0.032 A 
HETATM   19  C   UNL     1      12.667   1.966  -5.282  1.00  0.00     0.027 A 
HETATM   20  C   UNL     1      10.661   1.401  -3.878  1.00  0.00     0.056 C 
BRANCH  18  21
HETATM   21  C   UNL     1      14.584   2.678  -6.683  1.00  0.00     0.252 C 
HETATM   22  O   UNL     1      14.027   3.713  -7.033  1.00  0.00    -0.268 OA
HETATM   23  N   UNL     1      15.936   2.435  -6.829  1.00  0.00    -0.352 N 
HETATM   24  H   UNL     1      16.353   1.649  -6.348  1.00  0.00     0.163 HD
BRANCH  23  25
HETATM   25  C   UNL     1      16.814   3.403  -7.408  1.00  0.00     0.084 A 
HETATM   26  C   UNL     1      18.200   3.016  -7.844  1.00  0.00     0.027 A 
HETATM   27  C   UNL     1      17.155   3.340  -8.870  1.00  0.00     0.027 A 
ENDBRANCH  23  25
ENDBRANCH  18  21
ENDBRANCH   3  11
BRANCH   1  28
HETATM   28  S   UNL     1       8.272  -2.455  -7.919  1.00  0.00    -0.108 SA
BRANCH  28  29
HETATM   29  C   UNL     1       8.483  -3.648  -6.545  1.00  0.00     0.108 C 
BRANCH  29  30
HETATM   30  C   UNL     1       8.940  -5.004  -7.090  1.00  0.00     0.244 C 
BRANCH  30  31
HETATM   31  N   UNL     1      10.203  -4.879  -7.931  1.00  0.00    -0.078 N 
HETATM   32  C   UNL     1      11.431  -4.549  -7.127  1.00  0.00     0.269 C 
HETATM   33  H   UNL     1      10.039  -4.078  -8.562  1.00  0.00     0.279 HD
HETATM   34  C   UNL     1      10.417  -6.083  -8.802  1.00  0.00     0.269 C 
ENDBRANCH  30  31
ENDBRANCH  29  30
ENDBRANCH  28  29
ENDBRANCH   1  28
BRANCH   8  35
HETATM   35  C   UNL     1       5.585   1.581 -10.476  1.00  0.00     0.010 A 
HETATM   36  C   UNL     1       4.927   0.592 -11.243  1.00  0.00     0.152 A 
HETATM   37  N   UNL     1       4.487   1.053 -12.416  1.00  0.00    -0.187 NA
HETATM   38  N   UNL     1       4.849   2.346 -12.402  1.00  0.00    -0.289 N 
HETATM   39  H   UNL     1       4.615   2.922 -13.205  1.00  0.00     0.188 HD
HETATM   40  C   UNL     1       5.516   2.709 -11.266  1.00  0.00     0.123 A 
ENDBRANCH   8  35
TORSDOF 8
