REMARK  4 active torsions:
REMARK  status: ('A' for Active; 'I' for Inactive)
REMARK    1  A    between atoms: C_4  and  C_5 
REMARK    2  A    between atoms: C_6  and  N_7 
REMARK    3  A    between atoms: C_9  and  C_10 
REMARK       I    between atoms: C_10  and  N_11 
REMARK    4  A    between atoms: N_11  and  C_12 
ROOT
HETATM    1  C   UNL     1       4.773  -0.563   0.604  1.00  0.00     0.019 A 
HETATM    2  C   UNL     1       3.517  -1.065   0.476  1.00  0.00     0.111 A 
HETATM    3  C   UNL     1       2.376  -0.416   1.259  1.00  0.00     0.273 A 
HETATM    4  O   UNL     1       1.228  -0.861   1.247  1.00  0.00    -0.266 OA
HETATM    5  N   UNL     1       2.661   0.688   2.006  1.00  0.00    -0.321 N 
HETATM    6  C   UNL     1       3.936   1.230   2.131  1.00  0.00     0.046 A 
HETATM    7  C   UNL     1       5.008   0.635   1.457  1.00  0.00     0.006 A 
HETATM    8  C   UNL     1       4.115   2.357   2.938  1.00  0.00     0.032 A 
HETATM    9  C   UNL     1       5.387   2.907   3.082  1.00  0.00     0.026 A 
HETATM   10  C   UNL     1       6.465   2.328   2.417  1.00  0.00     0.035 A 
HETATM   11 CL   UNL     1       8.037   3.005   2.597  1.00  0.00    -0.084 Cl
HETATM   12  C   UNL     1       6.282   1.204   1.608  1.00  0.00     0.038 A 
HETATM   13  H   UNL     1       1.878   1.090   2.501  1.00  0.00     0.169 HD
ENDROOT
BRANCH   2  14
HETATM   14  N   UNL     1       3.190  -2.200  -0.314  1.00  0.00    -0.375 N 
HETATM   15  C   UNL     1       2.153  -2.021  -1.359  1.00  0.00     0.137 C 
HETATM   16  C   UNL     1       2.092  -3.208  -2.325  1.00  0.00     0.096 C 
HETATM   17  C   UNL     1       2.023  -4.551  -1.592  1.00  0.00     0.017 C 
HETATM   18  C   UNL     1       3.139  -4.650  -0.559  1.00  0.00     0.021 C 
HETATM   19  C   UNL     1       3.071  -3.479   0.414  1.00  0.00     0.123 C 
BRANCH  16  20
HETATM   20  C   UNL     1       0.918  -3.046  -3.292  1.00  0.00     0.229 C 
HETATM   21  N   UNL     1      -0.317  -2.987  -2.671  1.00  0.00    -0.311 N 
HETATM   22  H   UNL     1      -0.352  -3.029  -1.664  1.00  0.00     0.170 HD
HETATM   23  O   UNL     1       1.135  -2.979  -4.499  1.00  0.00    -0.273 OA
BRANCH  21  24
HETATM   24  C   UNL     1      -1.555  -2.825  -3.309  1.00  0.00     0.129 A 
HETATM   25  N   UNL     1      -1.653  -2.823  -4.648  1.00  0.00    -0.243 NA
HETATM   26  C   UNL     1      -2.877  -2.665  -5.195  1.00  0.00     0.119 A 
HETATM   27  C   UNL     1      -4.035  -2.500  -4.456  1.00  0.00     0.019 A 
HETATM   28  C   UNL     1      -3.927  -2.500  -3.073  1.00  0.00     0.005 A 
HETATM   29  C   UNL     1      -2.672  -2.670  -2.490  1.00  0.00     0.050 A 
ENDBRANCH  21  24
ENDBRANCH  16  20
ENDBRANCH   2  14
BRANCH   1  30
HETATM   30  C   UNL     1       5.868  -1.252  -0.126  1.00  0.00    -0.023 A 
HETATM   31  C   UNL     1       6.115  -0.968  -1.475  1.00  0.00     0.012 A 
HETATM   32  C   UNL     1       7.176  -1.586  -2.139  1.00  0.00     0.001 A 
HETATM   33  C   UNL     1       7.994  -2.490  -1.462  1.00  0.00     0.000 A 
HETATM   34  C   UNL     1       7.751  -2.782  -0.120  1.00  0.00     0.001 A 
HETATM   35  C   UNL     1       6.692  -2.165   0.547  1.00  0.00     0.012 A 
ENDBRANCH   1  30
TORSDOF 4
