REMARK  10 active torsions:
REMARK  status: ('A' for Active; 'I' for Inactive)
REMARK    1  A    between atoms: C_2  and  C_3 
REMARK    2  A    between atoms: C_3  and  N_4 
REMARK    3  A    between atoms: C_10  and  C_11 
REMARK    4  A    between atoms: C_11  and  C_12 
REMARK    5  A    between atoms: C_12  and  S_13 
REMARK    6  A    between atoms: S_13  and  C_14 
REMARK    7  A    between atoms: N_15  and  C_16 
REMARK    8  A    between atoms: C_23  and  C_24 
REMARK    9  A    between atoms: C_24  and  N_25 
REMARK   10  A    between atoms: C_33  and  N_34 
ROOT
HETATM    1  S   UNL     1       9.730   0.000  -1.853  1.00  0.00    -0.082 SA
ENDROOT
BRANCH   1   2
HETATM    2  C   UNL     1       9.174  -0.911  -0.374  1.00  0.00     0.166 C 
BRANCH   2   3
HETATM    3  C   UNL     1       9.097   0.049   0.805  1.00  0.00     0.177 C 
HETATM    4  O   UNL     1      10.112   0.646   1.197  1.00  0.00    -0.291 OA
BRANCH   3   5
HETATM    5  C   UNL     1       7.787   0.246   1.514  1.00  0.00     0.117 C 
HETATM    6  C   UNL     1       6.510   0.141   0.778  1.00  0.00     0.266 C 
HETATM    7  N   UNL     1       5.380   0.091   1.524  1.00  0.00    -0.274 N 
HETATM    8  O   UNL     1       6.468   0.140  -0.448  1.00  0.00    -0.267 OA
HETATM    9  C   UNL     1       5.297   0.558   2.797  1.00  0.00     0.330 C 
HETATM   10  H   UNL     1       4.501   0.051   1.026  1.00  0.00     0.173 HD
HETATM   11  N   UNL     1       6.508   0.777   3.446  1.00  0.00    -0.289 N 
HETATM   12  O   UNL     1       4.194   0.787   3.285  1.00  0.00    -0.246 OA
HETATM   13  C   UNL     1       7.749   0.592   2.826  1.00  0.00     0.103 C 
BRANCH  11  14
HETATM   14  C   UNL     1       6.414   1.261   4.830  1.00  0.00     0.135 C 
BRANCH  14  15
HETATM   15  C   UNL     1       6.352   2.791   4.879  1.00  0.00     0.016 C 
HETATM   16  C   UNL     1       6.302   3.307   6.307  1.00  0.00     0.006 C 
ENDBRANCH  14  15
ENDBRANCH  11  14
BRANCH  13  17
HETATM   17  N   UNL     1       8.914   0.773   3.565  1.00  0.00    -0.287 NA
HETATM   18  H   UNL     1       9.745   0.875   2.973  1.00  0.00     0.125 HD
HETATM   19  H   UNL     1       8.853   1.552   4.213  1.00  0.00     0.125 HD
ENDBRANCH  13  17
ENDBRANCH   3   5
ENDBRANCH   2   3
ENDBRANCH   1   2
BRANCH   1  20
HETATM   20  C   UNL     1      11.443  -0.010  -1.587  1.00  0.00     0.196 A 
HETATM   21  N   UNL     1      12.300   1.065  -1.764  1.00  0.00    -0.274 N 
HETATM   22  C   UNL     1      13.563   0.495  -1.604  1.00  0.00     0.166 A 
HETATM   23  N   UNL     1      13.447  -0.795  -1.354  1.00  0.00    -0.131 NA
HETATM   24  N   UNL     1      12.124  -1.105  -1.339  1.00  0.00    -0.122 NA
BRANCH  21  25
HETATM   25  C   UNL     1      11.997   2.443  -1.951  1.00  0.00     0.043 A 
HETATM   26  C   UNL     1      10.952   3.040  -1.233  1.00  0.00     0.032 A 
HETATM   27  C   UNL     1      10.678   4.403  -1.384  1.00  0.00     0.026 A 
HETATM   28  C   UNL     1      11.442   5.174  -2.255  1.00  0.00     0.034 A 
HETATM   29 CL   UNL     1      11.113   6.851  -2.430  1.00  0.00    -0.084 Cl
HETATM   30  C   UNL     1      12.475   4.589  -2.982  1.00  0.00     0.026 A 
HETATM   31  C   UNL     1      12.754   3.225  -2.834  1.00  0.00     0.032 A 
ENDBRANCH  21  25
BRANCH  22  32
HETATM   32  C   UNL     1      14.880   1.201  -1.495  1.00  0.00     0.254 C 
HETATM   33  C   UNL     1      15.666   0.984  -2.795  1.00  0.00     0.049 C 
BRANCH  32  34
HETATM   34  N   UNL     1      15.682   0.615  -0.309  1.00  0.00    -0.068 N 
HETATM   35  H   UNL     1      15.604  -0.409  -0.431  1.00  0.00     0.279 HD
HETATM   36  C   UNL     1      17.139   0.967  -0.273  1.00  0.00     0.270 C 
HETATM   37  C   UNL     1      15.031   0.910   1.021  1.00  0.00     0.270 C 
ENDBRANCH  32  34
ENDBRANCH  22  32
ENDBRANCH   1  20
TORSDOF 10
