REMARK  6 active torsions:
REMARK  status: ('A' for Active; 'I' for Inactive)
REMARK    1  A    between atoms: C_2  and  N_3 
REMARK    2  A    between atoms: C_2  and  C_16 
REMARK    3  A    between atoms: N_3  and  C_5 
REMARK    4  A    between atoms: C_5  and  C_6 
REMARK       I    between atoms: C_16  and  N_17 
REMARK    5  A    between atoms: N_17  and  C_18 
REMARK    6  A    between atoms: C_19  and  C_20 
ROOT
HETATM    1  C   UNL     1       2.740   1.335   0.922  1.00  0.00     0.253 C 
HETATM    2  N   UNL     1       2.906   1.660   2.247  1.00  0.00    -0.325 N 
HETATM    3  O   UNL     1       2.522   2.127   0.003  1.00  0.00    -0.271 OA
HETATM    4  H   UNL     1       2.675   0.971   2.955  1.00  0.00     0.169 HD
ENDROOT
BRANCH   1   5
HETATM    5  C   UNL     1       2.694  -0.170   0.588  1.00  0.00     0.275 C 
HETATM    6  C   UNL     1       3.767  -1.012   1.260  1.00  0.00     0.050 C 
BRANCH   5   7
HETATM    7  N   UNL     1       2.689  -0.348  -0.956  1.00  0.00    -0.059 N 
HETATM    8  H   UNL     1       2.360   0.581  -1.276  1.00  0.00     0.280 HD
HETATM    9  C   UNL     1       1.664  -1.343  -1.409  1.00  0.00     0.271 C 
BRANCH   7  10
HETATM   10  C   UNL     1       4.011  -0.543  -1.668  1.00  0.00     0.274 C 
BRANCH  10  11
HETATM   11  C   UNL     1       5.014   0.575  -1.553  1.00  0.00    -0.030 A 
HETATM   12  C   UNL     1       4.704   1.873  -1.993  1.00  0.00     0.048 A 
HETATM   13  C   UNL     1       5.666   2.856  -1.874  1.00  0.00     0.105 A 
HETATM   14  C   UNL     1       6.915   2.591  -1.373  1.00  0.00     0.105 A 
HETATM   15  O   UNL     1       5.511   4.160  -2.222  1.00  0.00    -0.323 OA
HETATM   16  O   UNL     1       7.707   3.694  -1.344  1.00  0.00    -0.323 OA
HETATM   17  C   UNL     1       7.275   1.327  -0.967  1.00  0.00     0.040 A 
HETATM   18  C   UNL     1       6.810   4.692  -1.878  1.00  0.00     0.352 A 
HETATM   19  C   UNL     1       6.316   0.312  -1.062  1.00  0.00     0.012 A 
ENDBRANCH  10  11
ENDBRANCH   7  10
ENDBRANCH   5   7
ENDBRANCH   1   5
BRANCH   2  20
HETATM   20  C   UNL     1       3.196   2.955   2.752  1.00  0.00     0.045 A 
HETATM   21  C   UNL     1       2.945   3.231   4.118  1.00  0.00     0.001 A 
HETATM   22  C   UNL     1       3.321   4.485   4.634  1.00  0.00     0.014 A 
HETATM   23  C   UNL     1       3.922   5.447   3.823  1.00  0.00     0.001 A 
HETATM   24  C   UNL     1       4.152   5.173   2.480  1.00  0.00     0.002 A 
HETATM   25  C   UNL     1       3.792   3.935   1.945  1.00  0.00     0.030 A 
BRANCH  21  26
HETATM   26  C   UNL     1       2.243   2.285   5.000  1.00  0.00    -0.024 A 
HETATM   27  C   UNL     1       2.921   1.605   6.022  1.00  0.00     0.012 A 
HETATM   28  C   UNL     1       2.240   0.717   6.859  1.00  0.00     0.001 A 
HETATM   29  C   UNL     1       0.874   0.499   6.685  1.00  0.00     0.000 A 
HETATM   30  C   UNL     1       0.185   1.170   5.677  1.00  0.00     0.001 A 
HETATM   31  C   UNL     1       0.865   2.057   4.842  1.00  0.00     0.012 A 
ENDBRANCH  21  26
ENDBRANCH   2  20
TORSDOF 6
