REMARK  8 active torsions:
REMARK  status: ('A' for Active; 'I' for Inactive)
REMARK    1  A    between atoms: C_2  and  O_3 
REMARK    2  A    between atoms: O_3  and  C_4 
REMARK    3  A    between atoms: C_4  and  C_5 
REMARK    4  A    between atoms: C_10  and  C_11 
REMARK       I    between atoms: C_11  and  N_12 
REMARK    5  A    between atoms: N_12  and  C_13 
REMARK    6  A    between atoms: C_15  and  C_16 
REMARK    7  A    between atoms: C_16  and  C_17 
REMARK    8  A    between atoms: C_17  and  C_18 
ROOT
HETATM    1  C   UNL     1       8.077   2.843   2.027  1.00  0.00     0.725 A 
HETATM    2  N   UNL     1       7.434   3.302   0.983  1.00  0.00    -0.046 NA
HETATM    3  C   UNL     1       7.232   4.624   1.264  1.00  0.00     0.166 A 
HETATM    4  N   UNL     1       7.741   5.028   2.435  1.00  0.00    -0.144 NA
HETATM    5  N   UNL     1       8.277   3.883   2.894  1.00  0.00    -0.106 N 
HETATM    6  H   UNL     1       8.749   3.885   3.789  1.00  0.00     0.208 HD
ENDROOT
BRANCH   1   7
HETATM    7  N   UNL     1       8.517   1.567   2.276  1.00  0.00    -0.152 N 
HETATM    8  C   UNL     1       8.249   0.535   1.399  1.00  0.00     0.272 C 
HETATM    9  O   UNL     1       7.547   0.601   0.397  1.00  0.00    -0.267 OA
HETATM   10  H   UNL     1       9.002   1.357   3.132  1.00  0.00     0.187 HD
BRANCH   8  11
HETATM   11  C   UNL     1       8.862  -0.749   1.788  1.00  0.00     0.063 A 
HETATM   12  C   UNL     1      10.101  -0.957   2.389  1.00  0.00     0.022 A 
HETATM   13  N   UNL     1      10.285  -2.313   2.494  1.00  0.00    -0.354 N 
HETATM   14  C   UNL     1      11.180  -0.027   2.819  1.00  0.00     0.069 C 
HETATM   15  C   UNL     1       9.255  -3.002   1.897  1.00  0.00     0.115 A 
HETATM   16  H   UNL     1      11.111  -2.770   2.862  1.00  0.00     0.166 HD
HETATM   17  C   UNL     1       8.306  -2.057   1.523  1.00  0.00    -0.011 A 
HETATM   18  C   UNL     1       6.970  -2.317   0.903  1.00  0.00     0.052 C 
BRANCH  15  19
HETATM   19  C   UNL     1       9.329  -4.440   1.744  1.00  0.00     0.310 C 
HETATM   20  O   UNL     1      10.207  -5.134   2.240  1.00  0.00    -0.258 OA
BRANCH  19  21
HETATM   21  O   UNL     1       8.347  -4.888   0.919  1.00  0.00    -0.317 OA
BRANCH  21  22
HETATM   22  C   UNL     1       8.407  -6.274   0.557  1.00  0.00     0.175 C 
HETATM   23  C   UNL     1       9.302  -6.449  -0.656  1.00  0.00     0.034 C 
ENDBRANCH  21  22
ENDBRANCH  19  21
ENDBRANCH  15  19
ENDBRANCH   8  11
ENDBRANCH   1   7
BRANCH   3  24
HETATM   24  C   UNL     1       6.501   5.508   0.323  1.00  0.00     0.087 C 
BRANCH  24  25
HETATM   25  C   UNL     1       5.042   5.074   0.170  1.00  0.00     0.048 C 
BRANCH  25  26
HETATM   26  C   UNL     1       4.372   5.715  -1.004  1.00  0.00    -0.030 A 
HETATM   27  C   UNL     1       4.455   5.278  -2.366  1.00  0.00    -0.002 A 
HETATM   28  C   UNL     1       3.676   6.144  -3.133  1.00  0.00     0.042 A 
HETATM   29  C   UNL     1       5.123   4.218  -3.015  1.00  0.00     0.014 A 
HETATM   30  C   UNL     1       3.530   6.005  -4.518  1.00  0.00     0.030 A 
HETATM   31  N   UNL     1       3.139   7.071  -2.271  1.00  0.00    -0.365 N 
HETATM   32  C   UNL     1       4.204   4.948  -5.138  1.00  0.00     0.002 A 
HETATM   33  C   UNL     1       4.990   4.066  -4.400  1.00  0.00     0.001 A 
HETATM   34  H   UNL     1       2.524   7.822  -2.551  1.00  0.00     0.165 HD
HETATM   35  C   UNL     1       3.552   6.826  -0.988  1.00  0.00     0.096 A 
ENDBRANCH  25  26
ENDBRANCH  24  25
ENDBRANCH   3  24
TORSDOF 8
