REMARK  8 active torsions:
REMARK  status: ('A' for Active; 'I' for Inactive)
REMARK    1  A    between atoms: C_2  and  C_3 
REMARK    2  A    between atoms: C_7  and  C_8 
REMARK       I    between atoms: C_8  and  N_9 
REMARK    3  A    between atoms: N_9  and  C_10 
REMARK    4  A    between atoms: C_10  and  C_11 
REMARK    5  A    between atoms: C_11  and  O_12 
REMARK    6  A    between atoms: C_11  and  C_13 
REMARK    7  A    between atoms: C_13  and  O_14 
REMARK    8  A    between atoms: O_14  and  C_15 
ROOT
HETATM    1  C   UNL     1       5.648   4.416  -2.227  1.00  0.00     0.269 C 
HETATM    2  N   UNL     1       5.242   3.738  -1.102  1.00  0.00    -0.353 N 
HETATM    3  O   UNL     1       5.975   3.841  -3.259  1.00  0.00    -0.266 OA
HETATM    4  H   UNL     1       4.982   4.251  -0.273  1.00  0.00     0.162 HD
ENDROOT
BRANCH   1   5
HETATM    5  C   UNL     1       5.700   5.846  -2.092  1.00  0.00     0.120 A 
HETATM    6  N   UNL     1       6.208   6.642  -3.081  1.00  0.00    -0.272 N 
HETATM    7  N   UNL     1       6.225   7.949  -2.783  1.00  0.00    -0.174 NA
HETATM    8  H   UNL     1       6.576   6.338  -3.978  1.00  0.00     0.189 HD
HETATM    9  C   UNL     1       5.662   8.027  -1.568  1.00  0.00     0.089 A 
HETATM   10  C   UNL     1       5.323   6.727  -1.098  1.00  0.00     0.071 A 
BRANCH   9  11
HETATM   11  C   UNL     1       5.472   9.311  -0.887  1.00  0.00    -0.005 A 
HETATM   12  C   UNL     1       4.469   9.474   0.082  1.00  0.00     0.017 A 
HETATM   13  C   UNL     1       4.301  10.702   0.729  1.00  0.00     0.043 A 
HETATM   14  C   UNL     1       5.135  11.767   0.412  1.00  0.00     0.116 A 
HETATM   15  C   UNL     1       6.132  11.631  -0.545  1.00  0.00     0.043 A 
HETATM   16  F   UNL     1       4.973  12.941   1.035  1.00  0.00    -0.206 F 
HETATM   17  C   UNL     1       6.298  10.405  -1.196  1.00  0.00     0.017 A 
ENDBRANCH   9  11
ENDBRANCH   1   5
BRANCH   2  18
HETATM   18  C   UNL     1       5.111   2.286  -1.068  1.00  0.00     0.156 C 
BRANCH  18  19
HETATM   19  C   UNL     1       6.471   1.568  -1.090  1.00  0.00     0.159 C 
BRANCH  19  20
HETATM   20  O   UNL     1       7.331   2.134  -0.090  1.00  0.00    -0.392 OA
HETATM   21  H   UNL     1       7.408   3.080  -0.313  1.00  0.00     0.210 HD
ENDBRANCH  19  20
BRANCH  19  22
HETATM   22  C   UNL     1       6.319   0.068  -0.808  1.00  0.00     0.201 C 
BRANCH  22  23
HETATM   23  O   UNL     1       5.385  -0.604  -1.648  1.00  0.00    -0.383 OA
BRANCH  23  24
HETATM   24  C   UNL     1       5.733  -0.718  -3.033  1.00  0.00     0.121 C 
HETATM   25  C   UNL     1       4.529  -1.377  -3.719  1.00  0.00     0.032 C 
HETATM   26  C   UNL     1       4.782  -1.664  -5.193  1.00  0.00     0.002 C 
HETATM   27  C   UNL     1       6.043  -2.498  -5.389  1.00  0.00     0.000 C 
HETATM   28  C   UNL     1       7.251  -1.841  -4.730  1.00  0.00     0.002 C 
HETATM   29  C   UNL     1       7.001  -1.551  -3.252  1.00  0.00     0.032 C 
ENDBRANCH  23  24
ENDBRANCH  22  23
ENDBRANCH  19  22
ENDBRANCH  18  19
ENDBRANCH   2  18
TORSDOF 8
