REMARK  8 active torsions:
REMARK  status: ('A' for Active; 'I' for Inactive)
REMARK    1  A    between atoms: C_2  and  C_3 
REMARK    2  A    between atoms: C_3  and  O_4 
REMARK    3  A    between atoms: O_4  and  C_5 
REMARK    4  A    between atoms: C_7  and  C_8 
REMARK    5  A    between atoms: N_9  and  C_10 
REMARK    6  A    between atoms: C_10  and  C_11 
REMARK    7  A    between atoms: C_24  and  C_25 
REMARK    8  A    between atoms: C_26  and  O_27 
ROOT
HETATM    1  C   UNL     1       7.663   0.249  -4.728  1.00  0.00     0.159 A 
HETATM    2  N   UNL     1       9.084   0.486  -4.352  1.00  0.00    -0.329 N 
HETATM    3  C   UNL     1       9.390   1.827  -4.111  1.00  0.00     0.273 A 
HETATM    4  O   UNL     1      10.468   2.324  -3.842  1.00  0.00    -0.266 OA
HETATM    5  C   UNL     1       8.151   2.484  -4.287  1.00  0.00     0.129 A 
HETATM    6  C   UNL     1       7.146   1.635  -4.648  1.00  0.00     0.034 A 
HETATM    7  N   UNL     1       7.644   3.721  -4.212  1.00  0.00    -0.272 N 
HETATM    8  H   UNL     1       8.108   4.591  -3.966  1.00  0.00     0.189 HD
HETATM    9  N   UNL     1       6.320   3.734  -4.515  1.00  0.00    -0.173 NA
HETATM   10  C   UNL     1       6.012   2.447  -4.831  1.00  0.00     0.101 A 
ENDROOT
BRANCH   1  11
HETATM   11  C   UNL     1       6.909  -0.593  -3.726  1.00  0.00    -0.028 A 
HETATM   12  C   UNL     1       6.999  -0.372  -2.338  1.00  0.00     0.046 A 
HETATM   13  C   UNL     1       6.303  -1.168  -1.423  1.00  0.00     0.069 A 
HETATM   14  C   UNL     1       5.495  -2.201  -1.892  1.00  0.00     0.037 A 
HETATM   15  C   UNL     1       5.397  -2.441  -3.264  1.00  0.00     0.003 A 
HETATM   16  C   UNL     1       6.102  -1.649  -4.173  1.00  0.00     0.010 A 
BRANCH  13  17
HETATM   17  O   UNL     1       6.501  -0.828  -0.113  1.00  0.00    -0.348 OA
BRANCH  17  18
HETATM   18  C   UNL     1       5.867  -1.638   0.874  1.00  0.00     0.202 C 
BRANCH  18  19
HETATM   19  C   UNL     1       6.259  -1.093   2.215  1.00  0.00    -0.011 C 
HETATM   20  C   UNL     1       6.877  -1.793   3.175  1.00  0.00     0.009 C 
ENDBRANCH  18  19
ENDBRANCH  17  18
ENDBRANCH  13  17
ENDBRANCH   1  11
BRANCH   2  21
HETATM   21  C   UNL     1      10.083  -0.558  -4.411  1.00  0.00     0.167 C 
BRANCH  21  22
HETATM   22  C   UNL     1      10.438  -0.916  -5.826  1.00  0.00    -0.023 A 
HETATM   23  C   UNL     1      10.072  -2.141  -6.372  1.00  0.00     0.125 A 
HETATM   24  N   UNL     1      10.334  -2.512  -7.646  1.00  0.00    -0.273 NA
HETATM   25  C   UNL     1      11.004  -1.624  -8.412  1.00  0.00     0.116 A 
HETATM   26  C   UNL     1      11.418  -0.381  -7.965  1.00  0.00     0.020 A 
HETATM   27  C   UNL     1      11.128  -0.024  -6.653  1.00  0.00     0.012 A 
ENDBRANCH  21  22
ENDBRANCH   2  21
BRANCH  10  28
HETATM   28  C   UNL     1       4.657   2.089  -5.262  1.00  0.00     0.028 A 
HETATM   29  C   UNL     1       3.542   2.865  -4.894  1.00  0.00     0.078 A 
HETATM   30  C   UNL     1       2.251   2.510  -5.282  1.00  0.00     0.037 A 
HETATM   31  C   UNL     1       2.050   1.377  -6.067  1.00  0.00     0.003 A 
HETATM   32  C   UNL     1       3.141   0.609  -6.467  1.00  0.00     0.001 A 
HETATM   33  C   UNL     1       4.436   0.965  -6.071  1.00  0.00     0.017 A 
BRANCH  29  34
HETATM   34  O   UNL     1       3.656   4.011  -4.149  1.00  0.00    -0.360 OA
HETATM   35  H   UNL     1       4.620   4.209  -4.102  1.00  0.00     0.217 HD
ENDBRANCH  29  34
ENDBRANCH  10  28
TORSDOF 8
