REMARK  7 active torsions:
REMARK  status: ('A' for Active; 'I' for Inactive)
REMARK    1  A    between atoms: O_2  and  C_3 
REMARK    2  A    between atoms: C_4  and  O_5 
REMARK    3  A    between atoms: O_5  and  C_6 
REMARK       I    between atoms: C_6  and  N_7 
REMARK    4  A    between atoms: C_14  and  O_15 
REMARK    5  A    between atoms: C_18  and  C_19 
REMARK    6  A    between atoms: C_23  and  N_24 
REMARK    7  A    between atoms: C_31  and  C_32 
ROOT
HETATM    1  C   UNL     1       5.324   0.991  -4.096  1.00  0.00     0.106 A 
HETATM    2  C   UNL     1       6.517   0.243  -3.481  1.00  0.00     0.081 A 
HETATM    3  C   UNL     1       6.220  -0.944  -2.749  1.00  0.00     0.100 C 
HETATM    4  N   UNL     1       5.963  -1.916  -2.169  1.00  0.00    -0.191 NA
HETATM    5  C   UNL     1       7.809   0.629  -3.665  1.00  0.00     0.140 A 
HETATM    6  O   UNL     1       8.147   1.739  -4.454  1.00  0.00    -0.279 OA
HETATM    7  C   UNL     1       7.147   2.337  -5.088  1.00  0.00     0.175 A 
HETATM    8  C   UNL     1       5.804   2.069  -5.009  1.00  0.00     0.040 A 
HETATM    9  N   UNL     1       7.298   3.363  -5.960  1.00  0.00    -0.256 N 
HETATM   10  H   UNL     1       8.156   3.813  -6.258  1.00  0.00     0.191 HD
HETATM   11  N   UNL     1       6.126   3.798  -6.455  1.00  0.00    -0.172 NA
HETATM   12  C   UNL     1       5.194   2.993  -5.906  1.00  0.00     0.099 A 
ENDROOT
BRANCH   1  13
HETATM   13  C   UNL     1       4.436   1.624  -3.023  1.00  0.00    -0.039 C 
HETATM   14  C   UNL     1       4.670   2.902  -2.470  1.00  0.00     0.048 C 
HETATM   15  C   UNL     1       3.908   3.382  -1.400  1.00  0.00     0.105 C 
HETATM   16  C   UNL     1       2.973   2.531  -0.803  1.00  0.00     0.147 C 
HETATM   17  C   UNL     1       2.665   1.298  -1.374  1.00  0.00     0.105 C 
HETATM   18  C   UNL     1       3.398   0.843  -2.472  1.00  0.00     0.048 C 
BRANCH  15  19
HETATM   19  O   UNL     1       4.060   4.630  -0.854  1.00  0.00    -0.353 OA
HETATM   20  C   UNL     1       4.417   5.653  -1.777  1.00  0.00     0.210 C 
ENDBRANCH  15  19
BRANCH  16  21
HETATM   21  O   UNL     1       2.289   2.912   0.358  1.00  0.00    -0.256 OA
BRANCH  21  22
HETATM   22  C   UNL     1       3.098   2.909   1.491  1.00  0.00     0.368 C 
HETATM   23  N   UNL     1       2.402   3.263   2.635  1.00  0.00    -0.324 N 
HETATM   24  C   UNL     1       0.952   3.137   2.765  1.00  0.00     0.154 C 
HETATM   25  C   UNL     1       3.105   3.397   3.907  1.00  0.00     0.154 C 
HETATM   26  C   UNL     1       0.620   2.011   3.757  1.00  0.00     0.187 C 
HETATM   27  O   UNL     1       1.271   2.226   5.022  1.00  0.00    -0.388 OA
HETATM   28  C   UNL     1       2.701   2.270   4.861  1.00  0.00     0.187 C 
HETATM   29  O   UNL     1       4.297   2.637   1.506  1.00  0.00    -0.238 OA
ENDBRANCH  21  22
ENDBRANCH  16  21
BRANCH  17  30
HETATM   30  O   UNL     1       1.702   0.520  -0.786  1.00  0.00    -0.353 OA
HETATM   31  C   UNL     1       0.631   0.243  -1.687  1.00  0.00     0.210 C 
ENDBRANCH  17  30
ENDBRANCH   1  13
BRANCH   5  32
HETATM   32  N   UNL     1       8.913  -0.001  -3.133  1.00  0.00    -0.282 NA
HETATM   33  H   UNL     1       8.742  -0.529  -2.280  1.00  0.00     0.126 HD
HETATM   34  H   UNL     1       9.704   0.633  -3.045  1.00  0.00     0.126 HD
ENDBRANCH   5  32
BRANCH  12  35
HETATM   35  C   UNL     1       3.780   3.174  -6.235  1.00  0.00    -0.005 A 
HETATM   36  C   UNL     1       2.919   2.080  -6.394  1.00  0.00     0.015 A 
HETATM   37  C   UNL     1       1.572   2.278  -6.714  1.00  0.00     0.020 A 
HETATM   38  C   UNL     1       1.082   3.572  -6.884  1.00  0.00     0.011 A 
HETATM   39 BR   UNL     1      -0.737   3.836  -7.325  1.00  0.00    -0.051 Br
HETATM   40  C   UNL     1       1.925   4.670  -6.742  1.00  0.00     0.020 A 
HETATM   41  C   UNL     1       3.270   4.469  -6.420  1.00  0.00     0.015 A 
ENDBRANCH  12  35
TORSDOF 7
