REMARK  6 active torsions:
REMARK  status: ('A' for Active; 'I' for Inactive)
REMARK    1  A    between atoms: C_2  and  N_3 
REMARK    2  A    between atoms: C_2  and  C_19 
REMARK       I    between atoms: N_3  and  C_4 
REMARK    3  A    between atoms: C_4  and  C_5 
REMARK    4  A    between atoms: C_9  and  C_10 
REMARK    5  A    between atoms: C_13  and  O_14 
REMARK    6  A    between atoms: C_19  and  C_20 
ROOT
HETATM    1  N   UNL     1       2.928  -0.296  -1.255  1.00  0.00    -0.347 N 
HETATM    2  C   UNL     1       2.606   0.546  -2.295  1.00  0.00     0.270 C 
HETATM    3  O   UNL     1       1.795   1.460  -2.203  1.00  0.00    -0.266 OA
HETATM    4  H   UNL     1       3.755  -0.861  -1.382  1.00  0.00     0.163 HD
ENDROOT
BRANCH   2   5
HETATM    5  C   UNL     1       3.343   0.307  -3.508  1.00  0.00     0.120 A 
HETATM    6  N   UNL     1       3.194   1.098  -4.612  1.00  0.00    -0.272 N 
HETATM    7  H   UNL     1       2.568   1.892  -4.711  1.00  0.00     0.189 HD
HETATM    8  N   UNL     1       3.994   0.769  -5.638  1.00  0.00    -0.174 NA
HETATM    9  C   UNL     1       4.683  -0.299  -5.205  1.00  0.00     0.089 A 
HETATM   10  C   UNL     1       4.289  -0.627  -3.878  1.00  0.00     0.071 A 
BRANCH   9  11
HETATM   11  C   UNL     1       5.695  -0.962  -6.037  1.00  0.00    -0.005 A 
HETATM   12  C   UNL     1       6.070  -0.416  -7.276  1.00  0.00     0.016 A 
HETATM   13  C   UNL     1       7.049  -1.026  -8.067  1.00  0.00     0.037 A 
HETATM   14  C   UNL     1       7.657  -2.193  -7.621  1.00  0.00     0.065 A 
HETATM   15  C   UNL     1       7.301  -2.757  -6.404  1.00  0.00     0.037 A 
HETATM   16  C   UNL     1       6.323  -2.145  -5.614  1.00  0.00     0.016 A 
BRANCH  14  17
HETATM   17  O   UNL     1       8.620  -2.820  -8.353  1.00  0.00    -0.361 OA
HETATM   18  H   UNL     1       8.770  -2.310  -9.166  1.00  0.00     0.217 HD
ENDBRANCH  14  17
ENDBRANCH   9  11
ENDBRANCH   2   5
BRANCH   1  19
HETATM   19  C   UNL     1       2.490  -0.124   0.141  1.00  0.00     0.030 C 
HETATM   20  C   UNL     1       0.950  -0.126   0.239  1.00  0.00     0.038 C 
HETATM   21  C   UNL     1       2.988  -1.350   0.936  1.00  0.00     0.038 C 
BRANCH  19  22
HETATM   22  C   UNL     1       3.033   1.198   0.767  1.00  0.00     0.069 C 
BRANCH  22  23
HETATM   23  C   UNL     1       4.531   1.409   0.665  1.00  0.00    -0.056 A 
HETATM   24  C   UNL     1       5.072   2.127  -0.415  1.00  0.00     0.010 A 
HETATM   25  C   UNL     1       6.451   2.308  -0.527  1.00  0.00     0.043 A 
HETATM   26  C   UNL     1       7.291   1.781   0.444  1.00  0.00     0.116 A 
HETATM   27  F   UNL     1       8.615   1.954   0.337  1.00  0.00    -0.206 F 
HETATM   28  C   UNL     1       6.778   1.080   1.529  1.00  0.00     0.043 A 
HETATM   29  C   UNL     1       5.399   0.897   1.642  1.00  0.00     0.010 A 
ENDBRANCH  22  23
ENDBRANCH  19  22
ENDBRANCH   1  19
TORSDOF 6
