REMARK  6 active torsions:
REMARK  status: ('A' for Active; 'I' for Inactive)
REMARK    1  A    between atoms: C_2  and  O_3 
REMARK    2  A    between atoms: C_2  and  C_4 
REMARK    3  A    between atoms: C_7  and  N_8 
REMARK       I    between atoms: N_8  and  C_9 
REMARK    4  A    between atoms: C_9  and  C_10 
REMARK    5  A    between atoms: C_13  and  C_14 
REMARK    6  A    between atoms: C_19  and  C_20 
ROOT
HETATM    1  C   UNL     1       3.275  -5.975  -2.782  1.00  0.00     0.096 C 
HETATM    2  C   UNL     1       3.301  -5.240  -1.612  1.00  0.00     0.138 C 
HETATM    3  N   UNL     1       3.348  -6.163  -0.591  1.00  0.00    -0.240 N 
HETATM    4  C   UNL     1       3.367  -5.829   0.823  1.00  0.00     0.221 C 
HETATM    5  C   UNL     1       3.686  -4.335   1.016  1.00  0.00     0.067 C 
HETATM    6  C   UNL     1       2.914  -3.459   0.017  1.00  0.00     0.125 C 
HETATM    7  N   UNL     1       3.254  -3.902  -1.350  1.00  0.00    -0.365 N 
HETATM    8  N   UNL     1       3.168  -7.425  -1.007  1.00  0.00    -0.181 NA
HETATM    9  C   UNL     1       3.157  -7.314  -2.338  1.00  0.00     0.160 C 
HETATM   10  H   UNL     1       2.820  -3.297  -2.051  1.00  0.00     0.162 HD
ENDROOT
BRANCH   1  11
HETATM   11  C   UNL     1       3.310  -5.530  -4.166  1.00  0.00     0.261 C 
HETATM   12  N   UNL     1       3.930  -4.305  -4.332  1.00  0.00    -0.323 N 
HETATM   13  H   UNL     1       4.346  -3.910  -3.495  1.00  0.00     0.169 HD
HETATM   14  O   UNL     1       2.866  -6.244  -5.056  1.00  0.00    -0.267 OA
BRANCH  12  15
HETATM   15  C   UNL     1       4.179  -3.626  -5.541  1.00  0.00     0.035 A 
HETATM   16  C   UNL     1       3.681  -4.031  -6.779  1.00  0.00     0.030 A 
HETATM   17  C   UNL     1       4.001  -3.324  -7.946  1.00  0.00     0.012 A 
HETATM   18  C   UNL     1       4.831  -2.197  -7.905  1.00  0.00    -0.030 A 
HETATM   19  C   UNL     1       5.302  -1.779  -6.650  1.00  0.00     0.012 A 
HETATM   20  C   UNL     1       4.979  -2.482  -5.484  1.00  0.00     0.030 A 
BRANCH  18  21
HETATM   21  C   UNL     1       5.243  -1.418  -9.136  1.00  0.00     0.147 C 
HETATM   22  C   UNL     1       4.916  -2.056 -10.484  1.00  0.00     0.044 C 
BRANCH  21  23
HETATM   23  O   UNL     1       4.621  -0.136  -9.070  1.00  0.00    -0.391 OA
HETATM   24  H   UNL     1       4.899   0.361  -9.856  1.00  0.00     0.210 HD
ENDBRANCH  21  23
ENDBRANCH  18  21
ENDBRANCH  12  15
ENDBRANCH   1  11
BRANCH   4  25
HETATM   25  C   UNL     1       4.381  -6.662   1.577  1.00  0.00     0.409 C 
HETATM   26  F   UNL     1       5.632  -6.516   1.084  1.00  0.00    -0.169 F 
HETATM   27  F   UNL     1       4.430  -6.254   2.875  1.00  0.00    -0.169 F 
HETATM   28  F   UNL     1       4.089  -7.978   1.609  1.00  0.00    -0.169 F 
ENDBRANCH   4  25
BRANCH   6  29
HETATM   29  C   UNL     1       1.431  -3.410   0.327  1.00  0.00     0.005 A 
HETATM   30  S   UNL     1       0.870  -2.479   1.661  1.00  0.00    -0.104 SA
HETATM   31  C   UNL     1      -0.754  -2.925   1.382  1.00  0.00     0.050 A 
HETATM   32  C   UNL     1      -0.883  -3.745   0.285  1.00  0.00     0.008 A 
HETATM   33  C   UNL     1       0.374  -4.021  -0.326  1.00  0.00     0.017 A 
ENDBRANCH   6  29
TORSDOF 6
