REMARK  2 active torsions:
REMARK  status: ('A' for Active; 'I' for Inactive)
REMARK    1  A    between atoms: C_8  and  N_9 
REMARK       I    between atoms: N_9  and  C_10 
REMARK       I    between atoms: C_10  and  N_11 
REMARK    2  A    between atoms: N_11  and  C_12 
ROOT
HETATM    1  C   UNL     1       8.724  -2.441  -0.451  1.00  0.00     0.044 A 
HETATM    2  C   UNL     1       8.897  -1.797  -1.668  1.00  0.00     0.117 A 
HETATM    3  F   UNL     1      10.128  -1.669  -2.176  1.00  0.00    -0.206 F 
HETATM    4  C   UNL     1       7.815  -1.259  -2.352  1.00  0.00     0.067 A 
HETATM    5  C   UNL     1       6.521  -1.378  -1.824  1.00  0.00     0.074 A 
HETATM    6  C   UNL     1       5.471  -0.662  -2.495  1.00  0.00     0.102 C 
HETATM    7  N   UNL     1       4.630  -0.049  -3.013  1.00  0.00    -0.191 NA
HETATM    8  C   UNL     1       6.323  -2.075  -0.610  1.00  0.00     0.057 A 
HETATM    9  C   UNL     1       7.440  -2.572   0.082  1.00  0.00     0.034 A 
ENDROOT
BRANCH   8  10
HETATM   10  N   UNL     1       5.065  -2.274   0.014  1.00  0.00    -0.308 N 
HETATM   11  C   UNL     1       3.893  -2.509  -0.662  1.00  0.00     0.321 C 
HETATM   12  N   UNL     1       2.796  -2.370   0.158  1.00  0.00    -0.336 N 
HETATM   13  O   UNL     1       3.792  -2.813  -1.842  1.00  0.00    -0.247 OA
HETATM   14  H   UNL     1       2.972  -1.804   0.979  1.00  0.00     0.164 HD
HETATM   15  H   UNL     1       5.083  -2.650   0.954  1.00  0.00     0.170 HD
BRANCH  12  16
HETATM   16  C   UNL     1       1.445  -2.328  -0.380  1.00  0.00     0.118 C 
HETATM   17  C   UNL     1       1.010  -3.474  -1.308  1.00  0.00     0.210 C 
HETATM   18  N   UNL     1      -0.240  -2.892  -1.941  1.00  0.00    -0.065 N 
HETATM   19  C   UNL     1       0.637  -4.790  -0.645  1.00  0.00     0.035 C 
HETATM   20  H   UNL     1      -0.978  -2.825  -1.226  1.00  0.00     0.280 HD
HETATM   21  C   UNL     1      -0.765  -3.750  -3.049  1.00  0.00     0.235 C 
HETATM   22  C   UNL     1       0.163  -1.488  -2.307  1.00  0.00     0.237 C 
HETATM   23  C   UNL     1      -1.125  -5.112  -2.457  1.00  0.00     0.028 C 
HETATM   24  C   UNL     1       0.036  -5.746  -1.682  1.00  0.00     0.004 C 
HETATM   25  C   UNL     1       1.158  -1.073  -1.222  1.00  0.00     0.055 C 
ENDBRANCH  12  16
ENDBRANCH   8  10
TORSDOF 2
