REMARK  7 active torsions:
REMARK  status: ('A' for Active; 'I' for Inactive)
REMARK    1  A    between atoms: O_2  and  C_3 
REMARK    2  A    between atoms: C_3  and  C_4 
REMARK    3  A    between atoms: C_6  and  N_7 
REMARK       I    between atoms: N_7  and  C_8 
REMARK    4  A    between atoms: C_8  and  C_9 
REMARK    5  A    between atoms: C_17  and  C_18 
REMARK    6  A    between atoms: C_18  and  N_19 
REMARK       I    between atoms: N_19  and  C_20 
REMARK    7  A    between atoms: C_20  and  C_21 
ROOT
HETATM    1  C   UNL     1       2.557   1.967  -1.261  1.00  0.00     0.042 A 
HETATM    2  C   UNL     1       1.525   1.707  -2.175  1.00  0.00     0.047 A 
HETATM    3  C   UNL     1       0.884   2.757  -2.837  1.00  0.00     0.036 A 
HETATM    4  C   UNL     1       1.290   4.074  -2.576  1.00  0.00     0.038 A 
HETATM    5  C   UNL     1       2.341   4.352  -1.687  1.00  0.00    -0.037 A 
HETATM    6  C   UNL     1       2.955   3.289  -1.016  1.00  0.00     0.026 A 
ENDROOT
BRANCH   5   7
HETATM    7  C   UNL     1       2.817   5.765  -1.483  1.00  0.00     0.161 C 
BRANCH   7   8
HETATM    8  N   UNL     1       2.074   6.453  -0.458  1.00  0.00    -0.351 N 
HETATM    9  C   UNL     1       1.074   7.345  -0.755  1.00  0.00     0.270 C 
HETATM   10  O   UNL     1       0.654   7.499  -1.898  1.00  0.00    -0.266 OA
HETATM   11  H   UNL     1       2.268   6.228   0.504  1.00  0.00     0.163 HD
BRANCH   9  12
HETATM   12  C   UNL     1       0.546   8.095   0.357  1.00  0.00     0.126 A 
HETATM   13  N   UNL     1      -0.573   8.877   0.190  1.00  0.00    -0.272 N 
HETATM   14  H   UNL     1      -1.107   8.991  -0.666  1.00  0.00     0.189 HD
HETATM   15  N   UNL     1      -0.956   9.549   1.288  1.00  0.00    -0.178 NA
HETATM   16  C   UNL     1      -0.041   9.206   2.192  1.00  0.00     0.063 A 
HETATM   17  C   UNL     1       0.926   8.305   1.674  1.00  0.00     0.002 A 
HETATM   18  C   UNL     1      -0.014   9.769   3.570  1.00  0.00     0.062 C 
HETATM   19  C   UNL     1       2.060   7.799   2.496  1.00  0.00     0.043 C 
HETATM   20  C   UNL     1       2.263   8.645   3.767  1.00  0.00     0.005 C 
HETATM   21  C   UNL     1       0.934   8.965   4.473  1.00  0.00     0.006 C 
ENDBRANCH   9  12
ENDBRANCH   7   8
ENDBRANCH   5   7
BRANCH   3  22
HETATM   22  N   UNL     1      -0.138   2.580  -3.797  1.00  0.00    -0.323 N 
HETATM   23  C   UNL     1      -0.668   1.382  -4.246  1.00  0.00     0.256 C 
HETATM   24  O   UNL     1      -0.421   0.267  -3.801  1.00  0.00    -0.267 OA
HETATM   25  H   UNL     1      -0.529   3.434  -4.172  1.00  0.00     0.169 HD
BRANCH  23  26
HETATM   26  C   UNL     1      -1.645   1.482  -5.370  1.00  0.00     0.035 A 
HETATM   27  C   UNL     1      -1.617   2.522  -6.301  1.00  0.00     0.036 A 
HETATM   28  C   UNL     1      -2.553   2.504  -7.321  1.00  0.00     0.117 A 
HETATM   29  N   UNL     1      -3.483   1.538  -7.471  1.00  0.00    -0.273 NA
HETATM   30  C   UNL     1      -3.473   0.531  -6.573  1.00  0.00     0.117 A 
HETATM   31  C   UNL     1      -2.584   0.458  -5.517  1.00  0.00     0.036 A 
ENDBRANCH  23  26
ENDBRANCH   3  22
BRANCH   1  32
HETATM   32  C   UNL     1       3.277   0.881  -0.542  1.00  0.00     0.293 C 
HETATM   33  O   UNL     1       4.067   1.091   0.366  1.00  0.00    -0.259 OA
BRANCH  32  34
HETATM   34  O   UNL     1       2.962  -0.331  -1.058  1.00  0.00    -0.323 OA
HETATM   35  C   UNL     1       3.650  -1.425  -0.451  1.00  0.00     0.213 C 
ENDBRANCH  32  34
ENDBRANCH   1  32
TORSDOF 7
