REMARK  3 active torsions:
REMARK  status: ('A' for Active; 'I' for Inactive)
REMARK    1  A    between atoms: C_6  and  N_7 
REMARK       I    between atoms: N_7  and  C_8 
REMARK    2  A    between atoms: C_8  and  C_9 
REMARK    3  A    between atoms: C_9  and  C_10 
ROOT
HETATM    1  C   UNL     1       3.081  -4.037   0.686  1.00  0.00     0.164 C 
HETATM    2  N   UNL     1       2.796  -3.755  -0.709  1.00  0.00    -0.245 NA
HETATM    3  C   UNL     1       3.281  -4.554  -1.701  1.00  0.00     0.234 C 
HETATM    4  O   UNL     1       2.475  -5.132  -2.426  1.00  0.00    -0.274 OA
HETATM    5  C   UNL     1       4.741  -4.628  -1.924  1.00  0.00     0.053 A 
HETATM    6  C   UNL     1       5.739  -4.319  -0.993  1.00  0.00     0.050 A 
HETATM    7  N   UNL     1       5.582  -3.974   0.358  1.00  0.00    -0.325 N 
HETATM    8  C   UNL     1       4.506  -3.824   1.167  1.00  0.00     0.240 C 
HETATM    9  O   UNL     1       4.719  -3.578   2.360  1.00  0.00    -0.271 OA
HETATM   10  C   UNL     1       5.111  -4.992  -3.238  1.00  0.00     0.019 A 
HETATM   11  C   UNL     1       6.446  -5.029  -3.637  1.00  0.00     0.001 A 
HETATM   12  C   UNL     1       7.436  -4.710  -2.722  1.00  0.00     0.002 A 
HETATM   13  C   UNL     1       7.084  -4.367  -1.416  1.00  0.00     0.030 A 
HETATM   14  H   UNL     1       1.805  -3.610  -0.867  1.00  0.00     0.131 HD
HETATM   15  H   UNL     1       6.434  -3.829   0.890  1.00  0.00     0.169 HD
ENDROOT
BRANCH   1  16
HETATM   16  C   UNL     1       2.477  -5.345   1.194  1.00  0.00     0.132 C 
BRANCH  16  17
HETATM   17  C   UNL     1       3.240  -6.602   0.834  1.00  0.00     0.224 C 
HETATM   18  N   UNL     1       2.713  -7.264  -0.259  1.00  0.00    -0.327 N 
HETATM   19  H   UNL     1       2.147  -6.725  -0.911  1.00  0.00     0.169 HD
HETATM   20  O   UNL     1       4.207  -6.959   1.498  1.00  0.00    -0.273 OA
BRANCH  18  21
HETATM   21  C   UNL     1       2.916  -8.617  -0.607  1.00  0.00     0.035 A 
HETATM   22  C   UNL     1       3.517  -9.546   0.250  1.00  0.00     0.043 A 
HETATM   23  C   UNL     1       3.571 -10.910  -0.116  1.00  0.00    -0.006 A 
HETATM   24  C   UNL     1       3.040 -11.308  -1.346  1.00  0.00     0.044 A 
HETATM   25  C   UNL     1       4.064 -12.077   0.530  1.00  0.00     0.031 A 
HETATM   26  N   UNL     1       3.205 -12.676  -1.427  1.00  0.00    -0.360 N 
HETATM   27  C   UNL     1       2.467 -10.386  -2.233  1.00  0.00     0.033 A 
HETATM   28  C   UNL     1       2.782 -13.517  -2.525  1.00  0.00     0.155 C 
HETATM   29  C   UNL     1       3.824 -13.148  -0.299  1.00  0.00     0.091 A 
HETATM   30  C   UNL     1       2.406  -9.043  -1.837  1.00  0.00     0.032 A 
ENDBRANCH  18  21
ENDBRANCH  16  17
ENDBRANCH   1  16
TORSDOF 3
