REMARK  6 active torsions:
REMARK  status: ('A' for Active; 'I' for Inactive)
REMARK    1  A    between atoms: O_2  and  C_3 
REMARK    2  A    between atoms: C_6  and  C_7 
REMARK    3  A    between atoms: C_7  and  N_8 
REMARK       I    between atoms: N_8  and  C_9 
REMARK    4  A    between atoms: C_9  and  C_10 
REMARK    5  A    between atoms: C_10  and  O_11 
REMARK    6  A    between atoms: N_12  and  C_13 
ROOT
HETATM    1  C   UNL     1       5.576  -1.972  -7.981  1.00  0.00     0.256 C 
HETATM    2  N   UNL     1       6.874  -1.877  -8.678  1.00  0.00    -0.254 N 
HETATM    3  C   UNL     1       7.812  -0.936  -8.273  1.00  0.00     0.330 C 
HETATM    4  O   UNL     1       9.002  -0.924  -8.592  1.00  0.00    -0.246 OA
HETATM    5  N   UNL     1       7.381   0.094  -7.494  1.00  0.00    -0.308 N 
HETATM    6  C   UNL     1       6.078   0.303  -7.077  1.00  0.00     0.048 A 
HETATM    7  C   UNL     1       5.126  -0.674  -7.335  1.00  0.00     0.034 A 
HETATM    8  C   UNL     1       5.751   1.484  -6.407  1.00  0.00     0.030 A 
HETATM    9  C   UNL     1       4.437   1.706  -6.001  1.00  0.00     0.002 A 
HETATM   10  C   UNL     1       3.465   0.742  -6.250  1.00  0.00     0.001 A 
HETATM   11  C   UNL     1       3.807  -0.447  -6.900  1.00  0.00     0.015 A 
HETATM   12  H   UNL     1       8.101   0.765  -7.262  1.00  0.00     0.170 HD
ENDROOT
BRANCH   1  13
HETATM   13  C   UNL     1       4.446  -2.467  -8.980  1.00  0.00     0.279 C 
HETATM   14  N   UNL     1       4.299  -1.763 -10.157  1.00  0.00    -0.352 N 
HETATM   15  H   UNL     1       4.919  -0.982 -10.340  1.00  0.00     0.162 HD
HETATM   16  O   UNL     1       3.722  -3.419  -8.670  1.00  0.00    -0.268 OA
BRANCH  14  17
HETATM   17  C   UNL     1       3.462  -2.240 -11.234  1.00  0.00     0.161 C 
BRANCH  17  18
HETATM   18  C   UNL     1       2.074  -1.655 -11.217  1.00  0.00    -0.040 A 
HETATM   19  C   UNL     1       1.657  -0.770 -12.219  1.00  0.00     0.011 A 
HETATM   20  C   UNL     1       0.340  -0.304 -12.250  1.00  0.00     0.037 A 
HETATM   21  C   UNL     1      -0.584  -0.713 -11.286  1.00  0.00     0.068 A 
HETATM   22  C   UNL     1      -0.170  -1.565 -10.266  1.00  0.00     0.037 A 
HETATM   23  C   UNL     1       1.148  -2.035 -10.236  1.00  0.00     0.011 A 
BRANCH  21  24
HETATM   24  O   UNL     1      -1.848  -0.214 -11.448  1.00  0.00    -0.356 OA
HETATM   25  C   UNL     1      -2.876  -0.844 -10.691  1.00  0.00     0.210 C 
ENDBRANCH  21  24
ENDBRANCH  17  18
ENDBRANCH  14  17
ENDBRANCH   1  13
BRANCH   1  26
HETATM   26  O   UNL     1       5.724  -2.901  -6.904  1.00  0.00    -0.359 OA
HETATM   27  H   UNL     1       4.929  -3.465  -6.947  1.00  0.00     0.213 HD
ENDBRANCH   1  26
BRANCH   2  28
HETATM   28  C   UNL     1       7.275  -2.906  -9.612  1.00  0.00     0.043 A 
HETATM   29  C   UNL     1       6.804  -4.226  -9.530  1.00  0.00     0.031 A 
HETATM   30  C   UNL     1       7.152  -5.184 -10.491  1.00  0.00     0.026 A 
HETATM   31  C   UNL     1       7.986  -4.838 -11.548  1.00  0.00     0.034 A 
HETATM   32 CL   UNL     1       8.403  -6.010 -12.734  1.00  0.00    -0.084 Cl
HETATM   33  C   UNL     1       8.479  -3.544 -11.647  1.00  0.00     0.026 A 
HETATM   34  C   UNL     1       8.125  -2.589 -10.687  1.00  0.00     0.031 A 
ENDBRANCH   2  28
TORSDOF 6
