REMARK  6 active torsions:
REMARK  status: ('A' for Active; 'I' for Inactive)
REMARK    1  A    between atoms: C_2  and  N_3 
REMARK    2  A    between atoms: C_2  and  C_32 
REMARK       I    between atoms: N_3  and  C_4 
REMARK    3  A    between atoms: C_4  and  C_5 
REMARK    4  A    between atoms: C_6  and  N_7 
REMARK       I    between atoms: N_7  and  C_8 
REMARK    5  A    between atoms: C_8  and  C_9 
REMARK    6  A    between atoms: C_9  and  N_10 
ROOT
HETATM    1  N   UNL     1       2.546   0.577  -2.159  1.00  0.00    -0.325 N 
HETATM    2  C   UNL     1       1.746  -0.251  -2.939  1.00  0.00     0.240 C 
HETATM    3  O   UNL     1       0.850   0.157  -3.678  1.00  0.00    -0.271 OA
HETATM    4  H   UNL     1       2.899   0.137  -1.307  1.00  0.00     0.169 HD
ENDROOT
BRANCH   1   5
HETATM    5  C   UNL     1       2.303   1.967  -2.087  1.00  0.00     0.050 A 
HETATM    6  C   UNL     1       2.520   2.866  -3.149  1.00  0.00     0.058 A 
HETATM    7  C   UNL     1       2.276   4.237  -2.955  1.00  0.00     0.019 A 
HETATM    8  C   UNL     1       1.813   4.713  -1.728  1.00  0.00     0.001 A 
HETATM    9  C   UNL     1       1.629   3.828  -0.670  1.00  0.00     0.002 A 
HETATM   10  C   UNL     1       1.891   2.467  -0.842  1.00  0.00     0.030 A 
BRANCH   6  11
HETATM   11  C   UNL     1       3.209   2.523  -4.420  1.00  0.00     0.254 C 
HETATM   12  N   UNL     1       2.678   1.506  -5.170  1.00  0.00    -0.349 N 
HETATM   13  H   UNL     1       1.776   1.126  -4.889  1.00  0.00     0.163 HD
HETATM   14  O   UNL     1       4.180   3.187  -4.772  1.00  0.00    -0.268 OA
BRANCH  12  15
HETATM   15  C   UNL     1       3.209   1.154  -6.475  1.00  0.00     0.114 C 
HETATM   16  C   UNL     1       2.581   2.019  -7.568  1.00  0.00     0.037 C 
BRANCH  15  17
HETATM   17  C   UNL     1       3.026  -0.327  -6.759  1.00  0.00    -0.036 A 
HETATM   18  C   UNL     1       4.143  -1.119  -7.074  1.00  0.00     0.009 A 
HETATM   19  C   UNL     1       3.997  -2.477  -7.366  1.00  0.00     0.001 A 
HETATM   20  C   UNL     1       2.735  -3.064  -7.342  1.00  0.00     0.000 A 
HETATM   21  C   UNL     1       1.617  -2.294  -7.027  1.00  0.00     0.001 A 
HETATM   22  C   UNL     1       1.760  -0.935  -6.742  1.00  0.00     0.009 A 
ENDBRANCH  15  17
ENDBRANCH  12  15
ENDBRANCH   6  11
ENDBRANCH   1   5
BRANCH   2  23
HETATM   23  C   UNL     1       2.108  -1.730  -2.847  1.00  0.00     0.240 C 
BRANCH  23  24
HETATM   24  N   UNL     1       1.752  -2.301  -1.564  1.00  0.00    -0.259 N 
HETATM   25  C   UNL     1       0.678  -3.099  -1.331  1.00  0.00     0.326 C 
HETATM   26  O   UNL     1      -0.170  -3.463  -2.125  1.00  0.00    -0.247 OA
HETATM   27  N   UNL     1       0.698  -3.474  -0.004  1.00  0.00    -0.324 N 
HETATM   28  C   UNL     1       1.951  -3.125   0.646  1.00  0.00     0.120 C 
HETATM   29  H   UNL     1       0.040  -4.172   0.325  1.00  0.00     0.165 HD
HETATM   30  C   UNL     1       2.877  -4.348   0.705  1.00  0.00     0.080 C 
HETATM   31  C   UNL     1       1.734  -2.513   2.022  1.00  0.00     0.046 C 
HETATM   32  C   UNL     1       2.468  -2.134  -0.414  1.00  0.00     0.257 C 
HETATM   33  C   UNL     1       4.109  -4.131   1.545  1.00  0.00    -0.049 A 
HETATM   34  C   UNL     1       4.171  -3.108   2.506  1.00  0.00    -0.052 A 
HETATM   35  C   UNL     1       5.204  -4.993   1.379  1.00  0.00     0.007 A 
HETATM   36  C   UNL     1       3.047  -2.122   2.702  1.00  0.00     0.042 C 
HETATM   37  C   UNL     1       5.345  -2.949   3.260  1.00  0.00     0.007 A 
HETATM   38  C   UNL     1       6.433  -3.802   3.075  1.00  0.00     0.001 A 
HETATM   39  C   UNL     1       6.362  -4.826   2.136  1.00  0.00     0.001 A 
HETATM   40  O   UNL     1       3.385  -1.333  -0.287  1.00  0.00    -0.270 OA
ENDBRANCH  23  24
ENDBRANCH   2  23
TORSDOF 6
