REMARK  4 active torsions:
REMARK  status: ('A' for Active; 'I' for Inactive)
REMARK    1  A    between atoms: O_2  and  C_3 
REMARK    2  A    between atoms: C_4  and  O_5 
REMARK    3  A    between atoms: C_9  and  C_10 
REMARK    4  A    between atoms: C_10  and  N_11 
ROOT
HETATM    1  N   UNL     1       6.719   1.089  -2.278  1.00  0.00    -0.066 N 
HETATM    2  H   UNL     1       6.402   0.424  -2.994  1.00  0.00     0.280 HD
HETATM    3  C   UNL     1       8.124   1.467  -2.720  1.00  0.00     0.246 C 
HETATM    4  C   UNL     1       9.028   1.965  -1.576  1.00  0.00     0.062 C 
HETATM    5  C   UNL     1       9.056   0.933  -0.456  1.00  0.00     0.020 C 
HETATM    6  C   UNL     1       7.643   0.821   0.095  1.00  0.00     0.031 C 
HETATM    7  C   UNL     1       7.233   2.161   0.712  1.00  0.00     0.138 C 
HETATM    8  N   UNL     1       7.659   3.363  -0.007  1.00  0.00    -0.317 N 
HETATM    9  C   UNL     1       8.585   3.314  -1.052  1.00  0.00     0.020 A 
HETATM   10  C   UNL     1       9.060   4.456  -1.579  1.00  0.00     0.026 A 
HETATM   11  C   UNL     1       7.177   4.577   0.507  1.00  0.00     0.247 A 
HETATM   12  O   UNL     1       6.338   4.652   1.399  1.00  0.00    -0.268 OA
HETATM   13  C   UNL     1       7.712   5.815  -0.110  1.00  0.00     0.074 A 
HETATM   14  C   UNL     1       8.611   5.736  -1.096  1.00  0.00     0.007 A 
HETATM   15  C   UNL     1       6.676   0.312  -0.981  1.00  0.00     0.241 C 
ENDROOT
BRANCH   1  16
HETATM   16  C   UNL     1       5.659   2.175  -2.367  1.00  0.00     0.273 C 
BRANCH  16  17
HETATM   17  C   UNL     1       5.477   2.755  -3.745  1.00  0.00    -0.028 A 
HETATM   18  C   UNL     1       5.973   4.035  -4.043  1.00  0.00     0.031 A 
HETATM   19  C   UNL     1       5.780   4.599  -5.308  1.00  0.00     0.047 A 
HETATM   20  C   UNL     1       5.080   3.896  -6.287  1.00  0.00     0.116 A 
HETATM   21 BR   UNL     1       6.461   6.339  -5.624  1.00  0.00    -0.048 Br
HETATM   22  C   UNL     1       4.624   2.604  -6.015  1.00  0.00     0.103 A 
HETATM   23  C   UNL     1       4.800   2.043  -4.747  1.00  0.00     0.048 A 
BRANCH  20  24
HETATM   24  O   UNL     1       4.807   4.487  -7.488  1.00  0.00    -0.357 OA
HETATM   25  H   UNL     1       4.005   4.063  -7.846  1.00  0.00     0.218 HD
ENDBRANCH  20  24
BRANCH  22  26
HETATM   26  O   UNL     1       3.922   1.862  -6.927  1.00  0.00    -0.353 OA
HETATM   27  C   UNL     1       4.714   1.505  -8.066  1.00  0.00     0.210 C 
ENDBRANCH  22  26
ENDBRANCH  16  17
ENDBRANCH   1  16
TORSDOF 4
