REMARK  9 active torsions:
REMARK  status: ('A' for Active; 'I' for Inactive)
REMARK    1  A    between atoms: O_2  and  C_3 
REMARK    2  A    between atoms: C_5  and  O_6 
REMARK    3  A    between atoms: C_8  and  N_9 
REMARK    4  A    between atoms: C_10  and  C_12 
REMARK    5  A    between atoms: C_10  and  O_11 
REMARK       I    between atoms: C_12  and  N_13 
REMARK    6  A    between atoms: N_13  and  C_14 
REMARK    7  A    between atoms: C_14  and  C_15 
REMARK    8  A    between atoms: C_15  and  N_16 
REMARK    9  A    between atoms: N_20  and  C_21 
ROOT
HETATM    1  N   UNL     1       3.876   0.758  -5.365  1.00  0.00    -0.251 N 
HETATM    2  C   UNL     1       4.350   2.003  -5.978  1.00  0.00     0.256 C 
HETATM    3  C   UNL     1       3.792   2.204  -7.381  1.00  0.00     0.034 A 
HETATM    4  C   UNL     1       3.419   1.070  -8.101  1.00  0.00     0.048 A 
HETATM    5  N   UNL     1       3.453  -0.170  -7.474  1.00  0.00    -0.308 N 
HETATM    6  C   UNL     1       3.626  -0.366  -6.137  1.00  0.00     0.330 C 
HETATM    7  O   UNL     1       3.545  -1.512  -5.697  1.00  0.00    -0.246 OA
HETATM    8  C   UNL     1       3.724   3.448  -8.033  1.00  0.00     0.015 A 
HETATM    9  C   UNL     1       3.299   3.542  -9.361  1.00  0.00     0.001 A 
HETATM   10  C   UNL     1       2.948   2.393 -10.062  1.00  0.00     0.002 A 
HETATM   11  C   UNL     1       3.009   1.152  -9.433  1.00  0.00     0.030 A 
HETATM   12  H   UNL     1       3.189  -1.003  -7.987  1.00  0.00     0.170 HD
ENDROOT
BRANCH   2  13
HETATM   13  C   UNL     1       4.095   3.318  -5.091  1.00  0.00     0.279 C 
HETATM   14  N   UNL     1       5.090   3.931  -4.367  1.00  0.00    -0.355 N 
HETATM   15  H   UNL     1       4.697   4.630  -3.744  1.00  0.00     0.162 HD
HETATM   16  O   UNL     1       3.000   3.889  -5.018  1.00  0.00    -0.268 OA
BRANCH  14  17
HETATM   17  C   UNL     1       6.524   3.704  -4.327  1.00  0.00     0.150 C 
BRANCH  17  18
HETATM   18  C   UNL     1       7.303   4.188  -5.572  1.00  0.00     0.254 C 
BRANCH  18  19
HETATM   19  N   UNL     1       7.357   5.709  -5.734  1.00  0.00    -0.067 N 
HETATM   20  H   UNL     1       7.660   6.134  -4.850  1.00  0.00     0.280 HD
HETATM   21  C   UNL     1       8.427   6.052  -6.798  1.00  0.00     0.254 C 
HETATM   22  C   UNL     1       8.439   7.555  -7.152  1.00  0.00     0.150 C 
HETATM   23  N   UNL     1       7.093   8.010  -7.548  1.00  0.00    -0.378 N 
HETATM   24  C   UNL     1       6.122   7.824  -6.450  1.00  0.00     0.150 C 
HETATM   25  C   UNL     1       5.996   6.326  -6.101  1.00  0.00     0.254 C 
BRANCH  23  26
HETATM   26  C   UNL     1       6.632   7.786  -8.857  1.00  0.00     0.030 A 
HETATM   27  C   UNL     1       7.413   7.180  -9.856  1.00  0.00     0.029 A 
HETATM   28  C   UNL     1       6.921   6.943 -11.148  1.00  0.00     0.002 A 
HETATM   29  C   UNL     1       5.633   7.330 -11.489  1.00  0.00     0.000 A 
HETATM   30  C   UNL     1       4.850   7.976 -10.545  1.00  0.00     0.002 A 
HETATM   31  C   UNL     1       5.350   8.209  -9.257  1.00  0.00     0.029 A 
ENDBRANCH  23  26
ENDBRANCH  18  19
ENDBRANCH  17  18
ENDBRANCH  14  17
ENDBRANCH   2  13
BRANCH   2  32
HETATM   32  O   UNL     1       5.754   1.806  -6.198  1.00  0.00    -0.359 OA
HETATM   33  H   UNL     1       5.894   0.891  -5.896  1.00  0.00     0.213 HD
ENDBRANCH   2  32
BRANCH   1  34
HETATM   34  C   UNL     1       3.993   0.577  -3.953  1.00  0.00     0.076 A 
HETATM   35  C   UNL     1       2.979   1.049  -3.096  1.00  0.00     0.098 A 
HETATM   36  C   UNL     1       3.062   0.789  -1.726  1.00  0.00     0.075 A 
HETATM   37  C   UNL     1       4.114   0.021  -1.225  1.00  0.00     0.070 A 
HETATM   38  C   UNL     1       5.119  -0.449  -2.066  1.00  0.00     0.039 A 
HETATM   39  C   UNL     1       5.052  -0.183  -3.433  1.00  0.00     0.035 A 
BRANCH  35  40
HETATM   40  O   UNL     1       1.931   1.688  -3.702  1.00  0.00    -0.354 OA
HETATM   41  C   UNL     1       0.930   2.258  -2.867  1.00  0.00     0.210 C 
ENDBRANCH  35  40
BRANCH  37  42
HETATM   42  O   UNL     1       4.128  -0.225   0.121  1.00  0.00    -0.356 OA
HETATM   43  C   UNL     1       4.004  -1.624   0.394  1.00  0.00     0.210 C 
ENDBRANCH  37  42
ENDBRANCH   1  34
TORSDOF 9
