REMARK  8 active torsions:
REMARK  status: ('A' for Active; 'I' for Inactive)
REMARK    1  A    between atoms: C_2  and  O_3 
REMARK    2  A    between atoms: O_3  and  C_4 
REMARK    3  A    between atoms: C_5  and  O_6 
REMARK    4  A    between atoms: O_6  and  C_7 
REMARK       I    between atoms: C_7  and  N_8 
REMARK    5  A    between atoms: C_18  and  C_19 
REMARK    6  A    between atoms: C_23  and  N_24 
REMARK    7  A    between atoms: C_31  and  C_32 
REMARK    8  A    between atoms: C_35  and  O_36 
ROOT
HETATM    1  C   UNL     1       8.017  -0.471  -0.505  1.00  0.00     0.106 A 
HETATM    2  C   UNL     1       8.885  -1.080  -1.611  1.00  0.00     0.081 A 
HETATM    3  C   UNL     1       9.877  -0.232  -2.186  1.00  0.00     0.100 C 
HETATM    4  N   UNL     1      10.679   0.475  -2.638  1.00  0.00    -0.191 NA
HETATM    5  C   UNL     1       8.696  -2.337  -2.096  1.00  0.00     0.140 A 
HETATM    6  O   UNL     1       7.685  -3.180  -1.605  1.00  0.00    -0.279 OA
HETATM    7  C   UNL     1       6.881  -2.663  -0.685  1.00  0.00     0.175 A 
HETATM    8  C   UNL     1       6.936  -1.420  -0.109  1.00  0.00     0.040 A 
HETATM    9  N   UNL     1       5.832  -3.313  -0.125  1.00  0.00    -0.256 N 
HETATM   10  H   UNL     1       5.501  -4.252  -0.314  1.00  0.00     0.191 HD
HETATM   11  N   UNL     1       5.197  -2.573   0.801  1.00  0.00    -0.172 NA
HETATM   12  C   UNL     1       5.849  -1.394   0.810  1.00  0.00     0.099 A 
ENDROOT
BRANCH   1  13
HETATM   13  C   UNL     1       8.815  -0.100   0.745  1.00  0.00    -0.040 A 
HETATM   14  C   UNL     1       9.058  -0.990   1.808  1.00  0.00     0.030 A 
HETATM   15  C   UNL     1       9.729  -0.563   2.954  1.00  0.00     0.048 A 
HETATM   16  C   UNL     1      10.219   0.742   3.026  1.00  0.00     0.131 A 
HETATM   17 BR   UNL     1       9.948  -1.786   4.387  1.00  0.00    -0.048 Br
HETATM   18  C   UNL     1      10.112   1.612   1.934  1.00  0.00     0.104 A 
HETATM   19  C   UNL     1       9.375   1.197   0.821  1.00  0.00     0.048 A 
BRANCH  16  20
HETATM   20  O   UNL     1      10.871   1.162   4.191  1.00  0.00    -0.257 OA
BRANCH  20  21
HETATM   21  C   UNL     1      10.065   1.968   4.989  1.00  0.00     0.368 C 
HETATM   22  N   UNL     1      10.669   2.291   6.193  1.00  0.00    -0.324 N 
HETATM   23  C   UNL     1      10.069   3.324   7.033  1.00  0.00     0.154 C 
HETATM   24  C   UNL     1      12.049   1.943   6.523  1.00  0.00     0.154 C 
HETATM   25  C   UNL     1      10.325   3.053   8.517  1.00  0.00     0.187 C 
HETATM   26  O   UNL     1      11.724   2.856   8.774  1.00  0.00    -0.388 OA
HETATM   27  C   UNL     1      12.215   1.729   8.032  1.00  0.00     0.187 C 
HETATM   28  O   UNL     1       8.934   2.344   4.691  1.00  0.00    -0.238 OA
ENDBRANCH  20  21
ENDBRANCH  16  20
BRANCH  18  29
HETATM   29  O   UNL     1      10.729   2.826   2.063  1.00  0.00    -0.349 OA
BRANCH  29  30
HETATM   30  C   UNL     1      11.055   3.563   0.884  1.00  0.00     0.171 C 
HETATM   31  C   UNL     1      12.235   2.951   0.146  1.00  0.00     0.034 C 
ENDBRANCH  29  30
ENDBRANCH  18  29
ENDBRANCH   1  13
BRANCH   5  32
HETATM   32  N   UNL     1       9.430  -2.924  -3.102  1.00  0.00    -0.282 NA
HETATM   33  H   UNL     1      10.369  -2.557  -3.237  1.00  0.00     0.126 HD
HETATM   34  H   UNL     1       9.402  -3.940  -3.056  1.00  0.00     0.126 HD
ENDBRANCH   5  32
BRANCH  12  35
HETATM   35  C   UNL     1       5.450  -0.328   1.725  1.00  0.00    -0.005 A 
HETATM   36  C   UNL     1       5.156  -0.630   3.060  1.00  0.00     0.016 A 
HETATM   37  C   UNL     1       4.799   0.384   3.952  1.00  0.00     0.037 A 
HETATM   38  C   UNL     1       4.730   1.712   3.528  1.00  0.00     0.068 A 
HETATM   39  C   UNL     1       5.005   2.017   2.194  1.00  0.00     0.037 A 
HETATM   40  C   UNL     1       5.362   1.002   1.297  1.00  0.00     0.016 A 
BRANCH  38  41
HETATM   41  O   UNL     1       4.365   2.605   4.497  1.00  0.00    -0.356 OA
HETATM   42  C   UNL     1       4.491   3.983   4.172  1.00  0.00     0.210 C 
ENDBRANCH  38  41
ENDBRANCH  12  35
TORSDOF 8
