REMARK  4 active torsions:
REMARK  status: ('A' for Active; 'I' for Inactive)
REMARK    1  A    between atoms: C_9  and  C_10 
REMARK       I    between atoms: C_10  and  N_11 
REMARK    2  A    between atoms: N_11  and  C_12 
REMARK    3  A    between atoms: C_12  and  C_13 
REMARK    4  A    between atoms: C_14  and  O_15 
ROOT
HETATM    1  C   UNL     1       8.433   4.236   2.427  1.00  0.00     0.273 C 
HETATM    2  N   UNL     1       8.445   3.606   1.202  1.00  0.00    -0.347 N 
HETATM    3  O   UNL     1       8.448   5.455   2.571  1.00  0.00    -0.266 OA
HETATM    4  H   UNL     1       8.265   2.607   1.250  1.00  0.00     0.163 HD
ENDROOT
BRANCH   1   5
HETATM    5  C   UNL     1       8.387   3.294   3.558  1.00  0.00     0.157 A 
HETATM    6  C   UNL     1       8.518   3.601   4.945  1.00  0.00     0.029 A 
HETATM    7  C   UNL     1       8.739   4.763   5.711  1.00  0.00     0.023 A 
HETATM    8  C   UNL     1       8.384   2.383   5.599  1.00  0.00     0.063 A 
HETATM    9  C   UNL     1       8.824   4.663   7.111  1.00  0.00    -0.061 A 
HETATM   10  C   UNL     1       9.081   5.885   7.945  1.00  0.00     0.048 C 
HETATM   11  C   UNL     1       8.678   3.416   7.730  1.00  0.00     0.009 A 
HETATM   12  C   UNL     1       8.453   2.250   6.988  1.00  0.00     0.032 A 
HETATM   13  N   UNL     1       8.190   1.461   4.608  1.00  0.00    -0.277 N 
HETATM   14  H   UNL     1       8.050   0.464   4.719  1.00  0.00     0.189 HD
HETATM   15  N   UNL     1       8.198   1.969   3.364  1.00  0.00    -0.168 NA
ENDBRANCH   1   5
BRANCH   2  16
HETATM   16  C   UNL     1       8.219   4.299  -0.053  1.00  0.00     0.116 C 
HETATM   17  C   UNL     1       9.347   5.289  -0.379  1.00  0.00     0.037 C 
BRANCH  16  18
HETATM   18  C   UNL     1       8.006   3.270  -1.160  1.00  0.00    -0.003 A 
HETATM   19  C   UNL     1       6.706   2.867  -1.534  1.00  0.00     0.076 A 
HETATM   20  C   UNL     1       6.536   1.918  -2.550  1.00  0.00     0.037 A 
HETATM   21  C   UNL     1       7.642   1.343  -3.178  1.00  0.00     0.003 A 
HETATM   22  C   UNL     1       8.927   1.705  -2.792  1.00  0.00     0.001 A 
HETATM   23  C   UNL     1       9.107   2.654  -1.787  1.00  0.00     0.012 A 
BRANCH  19  24
HETATM   24  O   UNL     1       5.670   3.462  -0.862  1.00  0.00    -0.355 OA
HETATM   25  C   UNL     1       4.381   2.877  -1.001  1.00  0.00     0.210 C 
ENDBRANCH  19  24
ENDBRANCH  16  18
ENDBRANCH   2  16
TORSDOF 4
