REMARK  5 active torsions:
REMARK  status: ('A' for Active; 'I' for Inactive)
REMARK    1  A    between atoms: C_2  and  O_3 
REMARK    2  A    between atoms: O_3  and  C_4 
REMARK    3  A    between atoms: C_7  and  C_8 
REMARK       I    between atoms: C_8  and  N_9 
REMARK    4  A    between atoms: N_12  and  C_13 
REMARK    5  A    between atoms: C_17  and  C_18 
ROOT
HETATM    1  C   UNL     1       8.278   2.163  -2.237  1.00  0.00     0.253 C 
HETATM    2  N   UNL     1       8.683   3.475  -2.465  1.00  0.00    -0.345 N 
HETATM    3  C   UNL     1       9.254   3.790  -3.779  1.00  0.00     0.146 C 
HETATM    4  C   UNL     1       9.018   5.260  -4.160  1.00  0.00     0.144 C 
HETATM    5  N   UNL     1       9.474   6.159  -3.082  1.00  0.00    -0.363 N 
HETATM    6  C   UNL     1       8.900   5.864  -1.759  1.00  0.00     0.144 C 
HETATM    7  C   UNL     1       9.124   4.383  -1.393  1.00  0.00     0.146 C 
HETATM    8  O   UNL     1       8.463   1.253  -3.042  1.00  0.00    -0.267 OA
ENDROOT
BRANCH   5   9
HETATM    9  C   UNL     1      10.354   7.169  -3.324  1.00  0.00     0.122 A 
HETATM   10  N   UNL     1      10.586   8.203  -2.454  1.00  0.00    -0.262 N 
HETATM   11  H   UNL     1      10.139   8.373  -1.563  1.00  0.00     0.191 HD
HETATM   12  N   UNL     1      11.497   9.094  -2.875  1.00  0.00    -0.173 NA
HETATM   13  C   UNL     1      11.883   8.635  -4.076  1.00  0.00     0.090 A 
HETATM   14  C   UNL     1      11.174   7.443  -4.396  1.00  0.00     0.084 A 
BRANCH  13  15
HETATM   15  C   UNL     1      12.897   9.328  -4.878  1.00  0.00    -0.005 A 
HETATM   16  C   UNL     1      13.262  10.650  -4.573  1.00  0.00     0.015 A 
HETATM   17  C   UNL     1      14.226  11.321  -5.332  1.00  0.00     0.024 A 
HETATM   18  C   UNL     1      14.837  10.673  -6.402  1.00  0.00     0.034 A 
HETATM   19 CL   UNL     1      16.024  11.494  -7.337  1.00  0.00    -0.084 Cl
HETATM   20  C   UNL     1      14.493   9.361  -6.718  1.00  0.00     0.024 A 
HETATM   21  C   UNL     1      13.527   8.692  -5.959  1.00  0.00     0.015 A 
ENDBRANCH  13  15
ENDBRANCH   5   9
BRANCH   1  22
HETATM   22  C   UNL     1       7.521   1.851  -1.001  1.00  0.00     0.032 A 
HETATM   23  C   UNL     1       6.493   2.689  -0.559  1.00  0.00     0.020 A 
HETATM   24  C   UNL     1       5.755   2.343   0.574  1.00  0.00     0.038 A 
HETATM   25  C   UNL     1       6.006   1.142   1.242  1.00  0.00     0.068 A 
HETATM   26  C   UNL     1       7.025   0.299   0.794  1.00  0.00     0.038 A 
HETATM   27  C   UNL     1       7.777   0.649  -0.333  1.00  0.00     0.020 A 
BRANCH  25  28
HETATM   28  O   UNL     1       5.201   0.907   2.322  1.00  0.00    -0.352 OA
BRANCH  28  29
HETATM   29  C   UNL     1       5.043  -0.460   2.701  1.00  0.00     0.171 C 
HETATM   30  C   UNL     1       3.884  -0.540   3.679  1.00  0.00     0.034 C 
ENDBRANCH  28  29
ENDBRANCH  25  28
ENDBRANCH   1  22
TORSDOF 5
