REMARK  5 active torsions:
REMARK  status: ('A' for Active; 'I' for Inactive)
REMARK    1  A    between atoms: C_9  and  C_10 
REMARK    2  A    between atoms: C_10  and  C_11 
REMARK       I    between atoms: C_11  and  N_12 
REMARK    3  A    between atoms: N_12  and  C_13 
REMARK    4  A    between atoms: C_13  and  C_14 
REMARK    5  A    between atoms: N_16  and  C_17 
ROOT
HETATM    1  C   UNL     1       1.183   3.250   0.379  1.00  0.00     0.084 A 
HETATM    2  N   UNL     1       1.025   4.530   0.201  1.00  0.00    -0.171 NA
HETATM    3  N   UNL     1      -0.204   5.022  -0.158  1.00  0.00    -0.229 N 
HETATM    4  C   UNL     1      -1.342   4.230  -0.312  1.00  0.00     0.275 A 
HETATM    5  O   UNL     1      -2.455   4.669  -0.592  1.00  0.00    -0.266 OA
HETATM    6  C   UNL     1      -1.170   2.781  -0.105  1.00  0.00     0.046 A 
HETATM    7  C   UNL     1       0.074   2.276   0.258  1.00  0.00     0.008 A 
HETATM    8  C   UNL     1      -2.271   1.924  -0.251  1.00  0.00     0.018 A 
HETATM    9  C   UNL     1      -2.125   0.557  -0.027  1.00  0.00     0.001 A 
HETATM   10  C   UNL     1      -0.885   0.048   0.349  1.00  0.00     0.001 A 
HETATM   11  C   UNL     1       0.213   0.902   0.496  1.00  0.00     0.014 A 
ENDROOT
BRANCH   1  12
HETATM   12  C   UNL     1       2.581   2.769   0.768  1.00  0.00     0.184 C 
BRANCH  12  13
HETATM   13  N   UNL     1       3.579   3.552   0.068  1.00  0.00    -0.355 N 
HETATM   14  C   UNL     1       4.896   3.152   0.031  1.00  0.00     0.222 C 
HETATM   15  O   UNL     1       5.282   2.111   0.559  1.00  0.00    -0.273 OA
HETATM   16  H   UNL     1       3.339   4.515  -0.152  1.00  0.00     0.162 HD
BRANCH  14  17
HETATM   17  C   UNL     1       5.812   4.065  -0.753  1.00  0.00     0.143 C 
BRANCH  17  18
HETATM   18  C   UNL     1       6.551   5.111   0.025  1.00  0.00    -0.021 A 
HETATM   19  C   UNL     1       6.543   5.430   1.427  1.00  0.00    -0.001 A 
HETATM   20  C   UNL     1       7.421   6.506   1.619  1.00  0.00     0.044 A 
HETATM   21  C   UNL     1       5.881   4.914   2.564  1.00  0.00     0.014 A 
HETATM   22  N   UNL     1       7.955   6.816   0.390  1.00  0.00    -0.360 N 
HETATM   23  C   UNL     1       7.649   7.079   2.882  1.00  0.00     0.030 A 
HETATM   24  C   UNL     1       8.935   7.851   0.147  1.00  0.00     0.155 C 
HETATM   25  C   UNL     1       7.436   5.996  -0.570  1.00  0.00     0.099 A 
HETATM   26  C   UNL     1       6.972   6.549   3.981  1.00  0.00     0.002 A 
HETATM   27  C   UNL     1       6.100   5.479   3.827  1.00  0.00     0.001 A 
ENDBRANCH  17  18
ENDBRANCH  14  17
ENDBRANCH  12  13
ENDBRANCH   1  12
BRANCH   3  28
HETATM   28  C   UNL     1      -0.354   6.473  -0.231  1.00  0.00     0.114 C 
HETATM   29  C   UNL     1      -0.838   7.075   1.088  1.00  0.00     0.027 C 
HETATM   30  C   UNL     1      -0.565   8.568   0.940  1.00  0.00     0.002 C 
HETATM   31  C   UNL     1       0.549   8.697  -0.101  1.00  0.00     0.002 C 
HETATM   32  C   UNL     1       0.921   7.273  -0.502  1.00  0.00     0.027 C 
ENDBRANCH   3  28
TORSDOF 5
