REMARK  6 active torsions:
REMARK  status: ('A' for Active; 'I' for Inactive)
REMARK    1  A    between atoms: C_2  and  O_3 
REMARK    2  A    between atoms: O_3  and  C_4 
REMARK    3  A    between atoms: C_4  and  C_5 
REMARK    4  A    between atoms: C_6  and  O_7 
REMARK    5  A    between atoms: C_12  and  O_13 
REMARK    6  A    between atoms: C_17  and  C_18 
ROOT
HETATM    1  C   UNL     1       5.696  -0.394  -0.438  1.00  0.00     0.133 C 
HETATM    2  C   UNL     1       6.001  -0.510   1.092  1.00  0.00     0.073 C 
HETATM    3  C   UNL     1       6.747  -1.806   1.450  1.00  0.00     0.047 C 
HETATM    4  C   UNL     1       6.781   0.702   1.676  1.00  0.00     0.097 C 
HETATM    5  C   UNL     1       6.285   1.968   1.082  1.00  0.00     0.042 A 
HETATM    6  C   UNL     1       5.555   2.118  -0.077  1.00  0.00     0.030 A 
HETATM    7  C   UNL     1       5.390   3.508  -0.175  1.00  0.00     0.190 A 
HETATM    8  N   UNL     1       5.961   4.185   0.814  1.00  0.00    -0.149 NA
HETATM    9  N   UNL     1       6.489   3.220   1.586  1.00  0.00    -0.279 N 
HETATM   10  H   UNL     1       6.978   3.494   2.432  1.00  0.00     0.189 HD
HETATM   11  C   UNL     1       5.151   0.975  -0.945  1.00  0.00     0.074 C 
ENDROOT
BRANCH  11  12
HETATM   12  C   UNL     1       3.632   1.021  -1.075  1.00  0.00    -0.048 A 
HETATM   13  C   UNL     1       3.061   0.949  -2.360  1.00  0.00     0.009 A 
HETATM   14  C   UNL     1       1.674   0.985  -2.532  1.00  0.00     0.024 A 
HETATM   15  C   UNL     1       0.841   1.083  -1.422  1.00  0.00     0.034 A 
HETATM   16 CL   UNL     1      -0.865   1.127  -1.634  1.00  0.00    -0.084 Cl
HETATM   17  C   UNL     1       1.382   1.145  -0.142  1.00  0.00     0.024 A 
HETATM   18  C   UNL     1       2.769   1.113   0.030  1.00  0.00     0.009 A 
ENDBRANCH  11  12
BRANCH   1  19
HETATM   19  C   UNL     1       6.913  -0.771  -1.260  1.00  0.00     0.267 C 
HETATM   20  O   UNL     1       7.015  -1.842  -1.843  1.00  0.00    -0.265 OA
BRANCH  19  21
HETATM   21  O   UNL     1       7.864   0.198  -1.243  1.00  0.00    -0.321 OA
BRANCH  21  22
HETATM   22  C   UNL     1       9.053  -0.066  -2.003  1.00  0.00     0.174 C 
HETATM   23  C   UNL     1       8.831   0.273  -3.466  1.00  0.00     0.034 C 
ENDBRANCH  21  22
ENDBRANCH  19  21
ENDBRANCH   1  19
BRANCH   2  24
HETATM   24  O   UNL     1       4.747  -0.591   1.803  1.00  0.00    -0.389 OA
HETATM   25  H   UNL     1       4.276  -1.391   1.510  1.00  0.00     0.210 HD
ENDBRANCH   2  24
BRANCH   7  26
HETATM   26  O   UNL     1       4.747   4.228  -1.096  1.00  0.00    -0.343 OA
HETATM   27  H   UNL     1       4.217   3.638  -1.652  1.00  0.00     0.219 HD
ENDBRANCH   7  26
TORSDOF 6
