REMARK  5 active torsions:
REMARK  status: ('A' for Active; 'I' for Inactive)
REMARK    1  A    between atoms: C_2  and  N_3 
REMARK       I    between atoms: N_3  and  C_4 
REMARK    2  A    between atoms: C_4  and  C_5 
REMARK    3  A    between atoms: C_8  and  N_9 
REMARK       I    between atoms: N_9  and  C_10 
REMARK       I    between atoms: C_10  and  N_11 
REMARK    4  A    between atoms: N_11  and  C_12 
REMARK    5  A    between atoms: C_17  and  C_18 
ROOT
HETATM    1  N   UNL     1       8.679  -3.106  -0.093  1.00  0.00    -0.309 N 
HETATM    2  C   UNL     1       8.152  -4.357   0.200  1.00  0.00     0.325 C 
HETATM    3  N   UNL     1       7.029  -4.219   1.004  1.00  0.00    -0.308 N 
HETATM    4  O   UNL     1       8.638  -5.420  -0.159  1.00  0.00    -0.247 OA
HETATM    5  H   UNL     1       8.036  -2.330  -0.036  1.00  0.00     0.170 HD
HETATM    6  H   UNL     1       6.946  -3.322   1.453  1.00  0.00     0.170 HD
ENDROOT
BRANCH   1   7
HETATM    7  C   UNL     1       9.971  -2.820  -0.578  1.00  0.00     0.036 A 
HETATM    8  C   UNL     1      10.976  -3.781  -0.714  1.00  0.00     0.030 A 
HETATM    9  C   UNL     1      12.266  -3.414  -1.113  1.00  0.00     0.019 A 
HETATM   10  C   UNL     1      12.570  -2.073  -1.366  1.00  0.00     0.032 A 
HETATM   11  C   UNL     1      11.558  -1.113  -1.271  1.00  0.00     0.019 A 
HETATM   12  C   UNL     1      10.268  -1.484  -0.876  1.00  0.00     0.030 A 
BRANCH  10  13
HETATM   13  C   UNL     1      13.946  -1.626  -1.723  1.00  0.00     0.251 C 
HETATM   14  N   UNL     1      14.982  -2.410  -1.254  1.00  0.00    -0.357 N 
HETATM   15  H   UNL     1      14.784  -3.139  -0.583  1.00  0.00     0.162 HD
HETATM   16  O   UNL     1      14.111  -0.588  -2.354  1.00  0.00    -0.268 OA
BRANCH  14  17
HETATM   17  C   UNL     1      16.365  -2.013  -1.414  1.00  0.00     0.118 C 
HETATM   18  C   UNL     1      16.811  -1.095  -0.290  1.00  0.00     0.026 C 
ENDBRANCH  14  17
ENDBRANCH  10  13
ENDBRANCH   1   7
BRANCH   3  19
HETATM   19  C   UNL     1       6.222  -5.259   1.528  1.00  0.00     0.043 A 
HETATM   20  C   UNL     1       5.376  -4.977   2.623  1.00  0.00    -0.035 A 
HETATM   21  C   UNL     1       5.295  -3.611   3.252  1.00  0.00     0.050 C 
HETATM   22  C   UNL     1       4.600  -6.009   3.173  1.00  0.00     0.010 A 
HETATM   23  C   UNL     1       4.646  -7.298   2.642  1.00  0.00     0.016 A 
HETATM   24  C   UNL     1       5.457  -7.587   1.540  1.00  0.00     0.019 A 
HETATM   25  C   UNL     1       6.236  -6.555   0.992  1.00  0.00     0.046 A 
BRANCH  24  26
HETATM   26  C   UNL     1       5.477  -8.944   1.001  1.00  0.00     0.179 A 
HETATM   27  O   UNL     1       6.192  -9.147  -0.153  1.00  0.00    -0.302 OA
HETATM   28  C   UNL     1       6.034 -10.473  -0.417  1.00  0.00     0.163 A 
HETATM   29  C   UNL     1       5.245 -11.010   0.567  1.00  0.00     0.144 A 
HETATM   30  N   UNL     1       4.888 -10.034   1.463  1.00  0.00    -0.234 NA
ENDBRANCH  24  26
ENDBRANCH   3  19
TORSDOF 5
