REMARK  3 active torsions:
REMARK  status: ('A' for Active; 'I' for Inactive)
REMARK    1  A    between atoms: C_7  and  C_8 
REMARK    2  A    between atoms: N_9  and  C_11 
REMARK    3  A    between atoms: C_11  and  C_12 
ROOT
HETATM    1  C   UNL     1      -4.121   0.113  -0.880  1.00  0.00     0.238 C 
HETATM    2  N   UNL     1      -4.938   0.873   0.149  1.00  0.00    -0.056 N 
HETATM    3  H   UNL     1      -5.899   0.857  -0.210  1.00  0.00     0.281 HD
HETATM    4  C   UNL     1      -4.549   2.332   0.252  1.00  0.00     0.236 C 
HETATM    5  C   UNL     1      -4.687   3.012  -1.099  1.00  0.00     0.028 C 
HETATM    6  C   UNL     1      -3.808   2.323  -2.129  1.00  0.00     0.004 C 
HETATM    7  C   UNL     1      -4.173   0.851  -2.233  1.00  0.00     0.040 C 
ENDROOT
BRANCH   2   8
HETATM    8  C   UNL     1      -5.025   0.210   1.520  1.00  0.00     0.295 C 
BRANCH   8   9
HETATM    9  C   UNL     1      -3.765   0.190   2.292  1.00  0.00     0.077 A 
HETATM   10  N   UNL     1      -2.964  -0.919   2.508  1.00  0.00    -0.155 N 
HETATM   11  C   UNL     1      -1.838  -0.481   3.211  1.00  0.00     0.732 A 
HETATM   12  C   UNL     1      -3.121  -2.255   2.150  1.00  0.00     0.117 A 
HETATM   13  N   UNL     1      -0.818  -1.332   3.510  1.00  0.00    -0.074 NA
HETATM   14  N   UNL     1      -1.957   0.792   3.515  1.00  0.00    -0.072 NA
HETATM   15  C   UNL     1      -0.979  -2.571   3.166  1.00  0.00     0.138 A 
HETATM   16  C   UNL     1      -2.161  -3.138   2.459  1.00  0.00     0.038 A 
HETATM   17  C   UNL     1      -3.154   1.196   3.015  1.00  0.00     0.164 A 
ENDBRANCH   8   9
ENDBRANCH   2   8
BRANCH   1  18
HETATM   18  C   UNL     1      -4.633  -1.279  -1.088  1.00  0.00     0.041 A 
HETATM   19  N   UNL     1      -3.778  -2.339  -1.313  1.00  0.00    -0.357 N 
HETATM   20  C   UNL     1      -4.492  -3.499  -1.507  1.00  0.00     0.042 A 
HETATM   21  H   UNL     1      -2.767  -2.296  -1.357  1.00  0.00     0.166 HD
HETATM   22  C   UNL     1      -5.843  -3.172  -1.440  1.00  0.00    -0.008 A 
HETATM   23  C   UNL     1      -4.045  -4.801  -1.760  1.00  0.00     0.030 A 
HETATM   24  C   UNL     1      -6.802  -4.184  -1.635  1.00  0.00     0.014 A 
HETATM   25  C   UNL     1      -5.922  -1.776  -1.190  1.00  0.00     0.040 A 
HETATM   26  C   UNL     1      -6.372  -5.491  -1.889  1.00  0.00     0.001 A 
HETATM   27  C   UNL     1      -5.013  -5.792  -1.950  1.00  0.00     0.002 A 
ENDBRANCH   1  18
TORSDOF 3
