REMARK  7 active torsions:
REMARK  status: ('A' for Active; 'I' for Inactive)
REMARK    1  A    between atoms: C_2  and  C_3 
REMARK    2  A    between atoms: C_6  and  C_7 
REMARK       I    between atoms: C_7  and  N_8 
REMARK    3  A    between atoms: C_14  and  C_15 
REMARK       I    between atoms: C_15  and  N_16 
REMARK    4  A    between atoms: N_16  and  C_17 
REMARK    5  A    between atoms: C_17  and  C_18 
REMARK       I    between atoms: N_25  and  C_26 
REMARK    6  A    between atoms: C_26  and  C_27 
REMARK    7  A    between atoms: C_30  and  O_31 
ROOT
HETATM    1  C   UNL     1       4.186   5.456  -0.932  1.00  0.00     0.253 C 
HETATM    2  N   UNL     1       3.482   6.548  -0.399  1.00  0.00    -0.348 N 
HETATM    3  C   UNL     1       2.543   6.408   0.713  1.00  0.00     0.131 C 
HETATM    4  C   UNL     1       2.283   7.710   1.437  1.00  0.00     0.081 C 
HETATM    5  C   UNL     1       1.900   8.867   0.514  1.00  0.00     0.142 C 
HETATM    6  O   UNL     1       2.085  10.060   1.342  1.00  0.00    -0.358 OA
HETATM    7  C   UNL     1       1.048  10.994   1.020  1.00  0.00     0.206 C 
HETATM    8  C   UNL     1      -0.138  10.128   0.688  1.00  0.00     0.206 C 
HETATM    9  N   UNL     1       0.486   8.940   0.102  1.00  0.00    -0.300 N 
HETATM   10  C   UNL     1      -0.110   8.105  -0.828  1.00  0.00     0.257 C 
HETATM   11  O   UNL     1       0.411   7.093  -1.282  1.00  0.00    -0.267 OA
HETATM   12  C   UNL     1       2.923   8.995  -0.623  1.00  0.00     0.081 C 
HETATM   13  C   UNL     1       3.307   7.685  -1.300  1.00  0.00     0.131 C 
HETATM   14  O   UNL     1       4.967   5.545  -1.876  1.00  0.00    -0.267 OA
ENDROOT
BRANCH   8  15
HETATM   15  C   UNL     1      -0.931   9.840   1.985  1.00  0.00     0.243 C 
HETATM   16  N   UNL     1      -0.933   8.529   2.378  1.00  0.00    -0.354 N 
HETATM   17  H   UNL     1      -0.555   7.835   1.739  1.00  0.00     0.162 HD
HETATM   18  O   UNL     1      -1.525  10.721   2.601  1.00  0.00    -0.271 OA
BRANCH  16  19
HETATM   19  C   UNL     1      -1.757   7.976   3.432  1.00  0.00     0.181 C 
BRANCH  19  20
HETATM   20  C   UNL     1      -2.225   6.586   3.042  1.00  0.00     0.051 A 
HETATM   21  N   UNL     1      -1.754   6.083   1.864  1.00  0.00    -0.264 NA
HETATM   22  C   UNL     1      -2.192   4.864   1.484  1.00  0.00     0.117 A 
HETATM   23  C   UNL     1      -3.073   4.103   2.231  1.00  0.00     0.019 A 
HETATM   24  C   UNL     1      -3.530   4.620   3.439  1.00  0.00     0.003 A 
HETATM   25  C   UNL     1      -3.103   5.879   3.856  1.00  0.00     0.029 A 
ENDBRANCH  19  20
ENDBRANCH  16  19
ENDBRANCH   8  15
BRANCH  10  26
HETATM   26  C   UNL     1      -1.428   8.455  -1.405  1.00  0.00     0.032 A 
HETATM   27  C   UNL     1      -1.486   8.708  -2.779  1.00  0.00     0.020 A 
HETATM   28  C   UNL     1      -2.717   8.964  -3.389  1.00  0.00     0.038 A 
HETATM   29  C   UNL     1      -3.897   8.959  -2.640  1.00  0.00     0.068 A 
HETATM   30  C   UNL     1      -3.836   8.695  -1.271  1.00  0.00     0.038 A 
HETATM   31  C   UNL     1      -2.606   8.429  -0.658  1.00  0.00     0.020 A 
BRANCH  29  32
HETATM   32  O   UNL     1      -5.032   9.208  -3.360  1.00  0.00    -0.356 OA
HETATM   33  C   UNL     1      -6.269   9.113  -2.664  1.00  0.00     0.210 C 
ENDBRANCH  29  32
ENDBRANCH  10  26
BRANCH   1  34
HETATM   34  C   UNL     1       3.986   4.113  -0.342  1.00  0.00     0.032 A 
HETATM   35  C   UNL     1       2.733   3.495  -0.401  1.00  0.00     0.017 A 
HETATM   36  C   UNL     1       2.557   2.229   0.158  1.00  0.00     0.008 A 
HETATM   37  C   UNL     1       3.638   1.556   0.749  1.00  0.00    -0.059 A 
HETATM   38  C   UNL     1       4.899   2.171   0.765  1.00  0.00     0.008 A 
HETATM   39  C   UNL     1       5.076   3.444   0.218  1.00  0.00     0.017 A 
BRANCH  37  40
HETATM   40  C   UNL     1       3.446   0.184   1.347  1.00  0.00     0.034 C 
HETATM   41  C   UNL     1       3.178  -0.878   0.291  1.00  0.00     0.010 C 
ENDBRANCH  37  40
ENDBRANCH   1  34
TORSDOF 7
