REMARK  8 active torsions:
REMARK  status: ('A' for Active; 'I' for Inactive)
REMARK    1  A    between atoms: O_2  and  C_3 
REMARK    2  A    between atoms: C_4  and  N_5 
REMARK       I    between atoms: N_5  and  C_6 
REMARK       I    between atoms: C_6  and  N_7 
REMARK    3  A    between atoms: N_7  and  C_8 
REMARK    4  A    between atoms: C_11  and  C_12 
REMARK    5  A    between atoms: C_12  and  C_13 
REMARK       I    between atoms: C_13  and  N_14 
REMARK    6  A    between atoms: N_14  and  C_15 
REMARK    7  A    between atoms: C_16  and  O_17 
REMARK    8  A    between atoms: O_17  and  C_18 
ROOT
HETATM    1  C   UNL     1       5.814  -0.197   3.115  1.00  0.00     0.174 C 
HETATM    2  S   UNL     1       4.774  -0.413   1.783  1.00  0.00    -0.062 SA
HETATM    3  C   UNL     1       3.718  -1.314   2.787  1.00  0.00     0.081 C 
HETATM    4  C   UNL     1       4.247  -1.413   4.063  1.00  0.00     0.052 C 
HETATM    5  N   UNL     1       5.415  -0.683   4.264  1.00  0.00    -0.228 NA
ENDROOT
BRANCH   4   6
HETATM    6  C   UNL     1       3.711  -2.255   5.175  1.00  0.00     0.163 C 
BRANCH   6   7
HETATM    7  C   UNL     1       4.025  -3.723   4.899  1.00  0.00     0.227 C 
HETATM    8  N   UNL     1       4.812  -4.316   5.869  1.00  0.00    -0.324 N 
HETATM    9  H   UNL     1       4.921  -3.843   6.760  1.00  0.00     0.169 HD
HETATM   10  O   UNL     1       3.596  -4.283   3.891  1.00  0.00    -0.273 OA
BRANCH   8  11
HETATM   11  C   UNL     1       5.501  -5.548   5.774  1.00  0.00     0.069 A 
HETATM   12  C   UNL     1       6.101  -6.060   6.937  1.00  0.00     0.102 A 
HETATM   13  C   UNL     1       6.895  -7.213   6.889  1.00  0.00     0.039 A 
HETATM   14  C   UNL     1       7.053  -7.894   5.684  1.00  0.00     0.003 A 
HETATM   15  C   UNL     1       6.431  -7.416   4.532  1.00  0.00     0.002 A 
HETATM   16  C   UNL     1       5.662  -6.247   4.575  1.00  0.00     0.032 A 
BRANCH  12  17
HETATM   17  O   UNL     1       5.926  -5.368   8.120  1.00  0.00    -0.309 OA
BRANCH  17  18
HETATM   18  C   UNL     1       5.481  -6.083   9.212  1.00  0.00     0.076 A 
HETATM   19  C   UNL     1       5.985  -5.695  10.454  1.00  0.00     0.037 A 
HETATM   20  C   UNL     1       5.578  -6.360  11.612  1.00  0.00     0.003 A 
HETATM   21  C   UNL     1       4.657  -7.404  11.530  1.00  0.00     0.000 A 
HETATM   22  C   UNL     1       4.133  -7.777  10.292  1.00  0.00     0.003 A 
HETATM   23  C   UNL     1       4.534  -7.110   9.133  1.00  0.00     0.037 A 
ENDBRANCH  17  18
ENDBRANCH  12  17
ENDBRANCH   8  11
ENDBRANCH   6   7
ENDBRANCH   4   6
BRANCH   1  24
HETATM   24  N   UNL     1       6.983   0.432   2.810  1.00  0.00    -0.287 N 
HETATM   25  C   UNL     1       8.004   0.709   3.669  1.00  0.00     0.326 C 
HETATM   26  N   UNL     1       7.709   0.720   5.003  1.00  0.00    -0.306 N 
HETATM   27  O   UNL     1       9.095   1.004   3.181  1.00  0.00    -0.247 OA
HETATM   28  H   UNL     1       6.723   0.734   5.248  1.00  0.00     0.171 HD
HETATM   29  H   UNL     1       7.196   0.562   1.833  1.00  0.00     0.172 HD
BRANCH  26  30
HETATM   30  C   UNL     1       8.602   0.995   6.059  1.00  0.00     0.069 A 
HETATM   31  C   UNL     1       8.077   1.515   7.254  1.00  0.00     0.095 A 
HETATM   32  C   UNL     1       8.914   1.768   8.345  1.00  0.00     0.039 A 
HETATM   33  C   UNL     1      10.284   1.527   8.240  1.00  0.00     0.003 A 
HETATM   34  C   UNL     1      10.814   1.027   7.052  1.00  0.00     0.002 A 
HETATM   35  C   UNL     1       9.977   0.763   5.964  1.00  0.00     0.032 A 
BRANCH  31  36
HETATM   36  O   UNL     1       6.725   1.762   7.307  1.00  0.00    -0.354 OA
HETATM   37  C   UNL     1       6.439   3.102   7.713  1.00  0.00     0.210 C 
ENDBRANCH  31  36
ENDBRANCH  26  30
ENDBRANCH   1  24
TORSDOF 8
