REMARK  9 active torsions:
REMARK  status: ('A' for Active; 'I' for Inactive)
REMARK       I    between atoms: N_2  and  C_3 
REMARK    1  A    between atoms: N_2  and  C_28 
REMARK    2  A    between atoms: C_3  and  C_4 
REMARK    3  A    between atoms: C_6  and  N_7 
REMARK       I    between atoms: N_7  and  C_8 
REMARK    4  A    between atoms: C_8  and  C_9 
REMARK    5  A    between atoms: C_9  and  O_10 
REMARK    6  A    between atoms: N_17  and  C_18 
REMARK    7  A    between atoms: C_18  and  C_19 
REMARK    8  A    between atoms: C_19  and  C_20 
REMARK    9  A    between atoms: C_28  and  C_29 
ROOT
HETATM    1  C   UNL     1       6.141   0.605  -4.052  1.00  0.00     0.036 A 
HETATM    2  C   UNL     1       5.021   1.116  -4.720  1.00  0.00     0.049 A 
HETATM    3  C   UNL     1       5.131   2.089  -5.731  1.00  0.00     0.065 A 
HETATM    4  C   UNL     1       6.436   2.558  -6.011  1.00  0.00     0.091 A 
HETATM    5  C   UNL     1       7.560   2.031  -5.357  1.00  0.00     0.088 A 
HETATM    6  N   UNL     1       8.723   2.617  -5.782  1.00  0.00    -0.242 NA
HETATM    7  C   UNL     1       8.349   3.507  -6.664  1.00  0.00     0.210 A 
HETATM    8  N   UNL     1       6.990   3.507  -6.848  1.00  0.00    -0.337 N 
HETATM    9  C   UNL     1       7.424   1.022  -4.398  1.00  0.00     0.051 A 
ENDROOT
BRANCH   1  10
HETATM   10  C   UNL     1       5.938  -0.476  -3.058  1.00  0.00     0.253 C 
HETATM   11  N   UNL     1       6.511  -0.379  -1.784  1.00  0.00    -0.350 N 
HETATM   12  C   UNL     1       6.414  -1.548  -0.921  1.00  0.00     0.153 C 
HETATM   13  O   UNL     1       5.263  -1.438  -3.425  1.00  0.00    -0.267 OA
BRANCH  11  14
HETATM   14  C   UNL     1       7.278   0.788  -1.302  1.00  0.00     0.158 C 
BRANCH  14  15
HETATM   15  C   UNL     1       7.312   1.025   0.222  1.00  0.00     0.151 A 
HETATM   16  O   UNL     1       5.997   1.446   0.675  1.00  0.00    -0.343 OA
HETATM   17  C   UNL     1       6.172   2.709   1.170  1.00  0.00     0.075 A 
HETATM   18  C   UNL     1       7.482   3.150   1.148  1.00  0.00    -0.022 A 
HETATM   19  C   UNL     1       5.149   3.493   1.662  1.00  0.00     0.037 A 
HETATM   20  C   UNL     1       8.357   2.097   0.597  1.00  0.00     0.075 A 
HETATM   21  C   UNL     1       7.819   4.405   1.625  1.00  0.00     0.010 A 
HETATM   22  C   UNL     1       6.799   5.217   2.127  1.00  0.00     0.001 A 
HETATM   23  C   UNL     1       5.471   4.763   2.146  1.00  0.00     0.003 A 
ENDBRANCH  14  15
ENDBRANCH  11  14
ENDBRANCH   1  10
BRANCH   3  24
HETATM   24  N   UNL     1       4.017   2.540  -6.460  1.00  0.00    -0.323 N 
HETATM   25  C   UNL     1       2.675   2.273  -6.230  1.00  0.00     0.246 C 
HETATM   26  O   UNL     1       2.189   1.695  -5.265  1.00  0.00    -0.271 OA
HETATM   27  H   UNL     1       4.177   3.078  -7.300  1.00  0.00     0.169 HD
BRANCH  25  28
HETATM   28  C   UNL     1       1.786   2.870  -7.328  1.00  0.00     0.270 C 
BRANCH  28  29
HETATM   29  O   UNL     1       2.483   3.066  -8.560  1.00  0.00    -0.387 OA
HETATM   30  C   UNL     1       2.435   1.900  -9.381  1.00  0.00     0.202 C 
ENDBRANCH  28  29
ENDBRANCH  25  28
ENDBRANCH   3  24
BRANCH   8  31
HETATM   31  C   UNL     1       6.343   4.421  -7.773  1.00  0.00     0.134 C 
BRANCH  31  32
HETATM   32  C   UNL     1       6.226   3.818  -9.175  1.00  0.00     0.058 C 
BRANCH  32  33
HETATM   33  C   UNL     1       5.918   4.823 -10.260  1.00  0.00    -0.057 A 
HETATM   34  C   UNL     1       4.943   5.817 -10.100  1.00  0.00     0.007 A 
HETATM   35  C   UNL     1       4.678   6.724 -11.130  1.00  0.00     0.001 A 
HETATM   36  C   UNL     1       5.368   6.637 -12.337  1.00  0.00     0.000 A 
HETATM   37  C   UNL     1       6.322   5.639 -12.519  1.00  0.00     0.001 A 
HETATM   38  C   UNL     1       6.593   4.737 -11.489  1.00  0.00     0.007 A 
ENDBRANCH  32  33
ENDBRANCH  31  32
ENDBRANCH   8  31
TORSDOF 9
