REMARK  6 active torsions:
REMARK  status: ('A' for Active; 'I' for Inactive)
REMARK    1  A    between atoms: N_2  and  C_4 
REMARK    2  A    between atoms: N_2  and  C_16 
REMARK    3  A    between atoms: C_4  and  C_5 
REMARK       I    between atoms: C_5  and  N_6 
REMARK    4  A    between atoms: N_6  and  C_7 
REMARK    5  A    between atoms: C_16  and  C_17 
REMARK    6  A    between atoms: C_21  and  C_22 
ROOT
HETATM    1  C   UNL     1       0.758  -0.061   1.075  1.00  0.00     0.270 C 
HETATM    2  N   UNL     1       2.236  -0.186   0.870  1.00  0.00    -0.061 N 
HETATM    3  H   UNL     1       2.360  -0.588  -0.077  1.00  0.00     0.280 HD
ENDROOT
BRANCH   2   4
HETATM    4  C   UNL     1       2.977   1.143   0.930  1.00  0.00     0.337 C 
BRANCH   4   5
HETATM    5  C   UNL     1       3.036   1.775   2.322  1.00  0.00     0.248 C 
HETATM    6  N   UNL     1       3.383   3.075   2.525  1.00  0.00    -0.326 N 
HETATM    7  H   UNL     1       3.273   3.324   3.507  1.00  0.00     0.169 HD
HETATM    8  O   UNL     1       2.733   1.104   3.316  1.00  0.00    -0.271 OA
BRANCH   6   9
HETATM    9  C   UNL     1       3.851   4.111   1.694  1.00  0.00     0.040 A 
HETATM   10  C   UNL     1       4.251   3.975   0.367  1.00  0.00     0.072 A 
HETATM   11  C   UNL     1       4.701   5.091  -0.347  1.00  0.00     0.121 A 
HETATM   12  F   UNL     1       5.076   4.929  -1.622  1.00  0.00    -0.206 F 
HETATM   13  C   UNL     1       4.773   6.347   0.231  1.00  0.00     0.084 A 
HETATM   14  C   UNL     1       4.392   6.478   1.553  1.00  0.00     0.121 A 
HETATM   15  F   UNL     1       4.456   7.677   2.145  1.00  0.00    -0.206 F 
HETATM   16  C   UNL     1       3.940   5.381   2.285  1.00  0.00     0.072 A 
ENDBRANCH   6   9
ENDBRANCH   4   5
ENDBRANCH   2   4
BRANCH   2  17
HETATM   17  C   UNL     1       2.847  -1.273   1.747  1.00  0.00     0.295 C 
BRANCH  17  18
HETATM   18  C   UNL     1       2.702  -2.608   1.081  1.00  0.00     0.082 A 
HETATM   19  N   UNL     1       2.511  -2.662  -0.248  1.00  0.00    -0.177 NA
HETATM   20  N   UNL     1       2.398  -3.988  -0.494  1.00  0.00    -0.277 N 
HETATM   21  H   UNL     1       2.231  -4.297  -1.447  1.00  0.00     0.189 HD
HETATM   22  C   UNL     1       2.488  -4.774   0.629  1.00  0.00     0.062 A 
HETATM   23  C   UNL     1       2.696  -3.888   1.668  1.00  0.00     0.062 A 
BRANCH  22  24
HETATM   24  C   UNL     1       2.340  -6.230   0.619  1.00  0.00    -0.008 A 
HETATM   25  C   UNL     1       2.712  -6.997  -0.494  1.00  0.00     0.014 A 
HETATM   26  C   UNL     1       2.553  -8.386  -0.489  1.00  0.00     0.001 A 
HETATM   27  C   UNL     1       2.024  -9.026   0.629  1.00  0.00     0.000 A 
HETATM   28  C   UNL     1       1.656  -8.279   1.745  1.00  0.00     0.001 A 
HETATM   29  C   UNL     1       1.814  -6.891   1.740  1.00  0.00     0.014 A 
ENDBRANCH  22  24
ENDBRANCH  17  18
ENDBRANCH   2  17
TORSDOF 6
