REMARK  3 active torsions:
REMARK  status: ('A' for Active; 'I' for Inactive)
REMARK    1  A    between atoms: C_4  and  N_5 
REMARK       I    between atoms: N_5  and  C_6 
REMARK    2  A    between atoms: C_6  and  C_7 
REMARK    3  A    between atoms: C_7  and  C_8 
ROOT
HETATM    1  C   UNL     1       1.186  -2.293  -0.042  1.00  0.00     0.286 C 
HETATM    2  N   UNL     1       1.042  -2.274   1.476  1.00  0.00    -0.056 N 
HETATM    3  H   UNL     1       0.021  -2.396   1.653  1.00  0.00     0.278 HD
HETATM    4  H   UNL     1       1.499  -3.087   1.905  1.00  0.00     0.278 HD
HETATM    5  C   UNL     1       1.464  -0.992   2.140  1.00  0.00     0.209 C 
HETATM    6  C   UNL     1       0.749   0.203   1.462  1.00  0.00     0.115 C 
HETATM    7  N   UNL     1       0.835   0.168   0.003  1.00  0.00    -0.353 N 
HETATM    8  C   UNL     1       0.708  -0.994  -0.721  1.00  0.00     0.249 C 
HETATM    9  O   UNL     1       0.338  -0.950  -1.889  1.00  0.00    -0.271 OA
HETATM   10  C   UNL     1       2.990  -0.877   2.127  1.00  0.00     0.035 C 
HETATM   11  C   UNL     1       3.443   0.459   2.710  1.00  0.00     0.002 C 
HETATM   12  C   UNL     1       2.794   1.631   1.979  1.00  0.00     0.002 C 
HETATM   13  C   UNL     1       1.269   1.538   2.007  1.00  0.00     0.027 C 
HETATM   14  H   UNL     1       0.471   0.971  -0.507  1.00  0.00     0.163 HD
ENDROOT
BRANCH   1  15
HETATM   15  C   UNL     1       0.516  -3.530  -0.661  1.00  0.00     0.146 C 
BRANCH  15  16
HETATM   16  C   UNL     1      -0.911  -3.675  -0.206  1.00  0.00     0.224 C 
HETATM   17  N   UNL     1      -1.754  -4.613  -0.706  1.00  0.00    -0.327 N 
HETATM   18  H   UNL     1      -2.671  -4.550  -0.271  1.00  0.00     0.169 HD
HETATM   19  O   UNL     1      -1.309  -2.957   0.724  1.00  0.00    -0.273 OA
BRANCH  17  20
HETATM   20  C   UNL     1      -1.639  -5.637  -1.669  1.00  0.00     0.034 A 
HETATM   21  C   UNL     1      -0.501  -5.945  -2.413  1.00  0.00     0.029 A 
HETATM   22  C   UNL     1      -0.519  -6.989  -3.348  1.00  0.00     0.002 A 
HETATM   23  C   UNL     1      -1.670  -7.746  -3.541  1.00  0.00     0.000 A 
HETATM   24  C   UNL     1      -2.808  -7.461  -2.798  1.00  0.00     0.002 A 
HETATM   25  C   UNL     1      -2.792  -6.414  -1.872  1.00  0.00     0.029 A 
ENDBRANCH  17  20
ENDBRANCH  15  16
ENDBRANCH   1  15
TORSDOF 3
