REMARK  4 active torsions:
REMARK  status: ('A' for Active; 'I' for Inactive)
REMARK    1  A    between atoms: C_4  and  C_5 
REMARK    2  A    between atoms: C_16  and  C_17 
REMARK    3  A    between atoms: C_20  and  C_21 
REMARK    4  A    between atoms: C_21  and  N_22 
REMARK       I    between atoms: N_22  and  C_23 
REMARK       I    between atoms: C_23  and  N_24 
ROOT
HETATM    1  C   UNL     1       2.796  -2.472   0.712  1.00  0.00     0.067 C 
HETATM    2  C   UNL     1       2.389  -3.602  -0.255  1.00  0.00     0.001 C 
HETATM    3  C   UNL     1       0.899  -3.503  -0.648  1.00  0.00     0.040 C 
HETATM    4  C   UNL     1      -0.018  -3.625   0.581  1.00  0.00     0.206 C 
HETATM    5  N   UNL     1       0.890  -3.666   1.798  1.00  0.00    -0.065 N 
HETATM    6  H   UNL     1       0.273  -3.634   2.640  1.00  0.00     0.280 HD
HETATM    7  C   UNL     1       1.801  -2.463   1.906  1.00  0.00     0.246 C 
HETATM    8  C   UNL     1       2.551  -4.940   0.521  1.00  0.00     0.033 C 
HETATM    9  C   UNL     1       1.707  -4.931   1.804  1.00  0.00     0.236 C 
ENDROOT
BRANCH   1  10
HETATM   10  C   UNL     1       3.016  -1.059   0.234  1.00  0.00     0.038 C 
HETATM   11  N   UNL     1       2.769  -0.433  -0.966  1.00  0.00    -0.277 N 
HETATM   12  C   UNL     1       2.429  -0.950  -2.270  1.00  0.00     0.179 C 
HETATM   13  N   UNL     1       2.858   0.909  -0.881  1.00  0.00    -0.172 NA
HETATM   14  C   UNL     1       3.417   1.159   0.307  1.00  0.00     0.089 C 
HETATM   15  C   UNL     1       3.556  -0.050   1.023  1.00  0.00     0.061 C 
BRANCH  14  16
HETATM   16  C   UNL     1       3.738   2.509   0.771  1.00  0.00    -0.005 A 
HETATM   17  C   UNL     1       4.736   2.710   1.737  1.00  0.00     0.026 A 
HETATM   18  C   UNL     1       5.004   3.990   2.255  1.00  0.00    -0.025 A 
HETATM   19  C   UNL     1       4.258   5.095   1.787  1.00  0.00    -0.026 A 
HETATM   20  C   UNL     1       5.991   4.191   3.233  1.00  0.00     0.012 A 
HETATM   21  C   UNL     1       3.280   4.894   0.801  1.00  0.00     0.013 A 
HETATM   22  C   UNL     1       4.511   6.368   2.322  1.00  0.00     0.012 A 
HETATM   23  C   UNL     1       3.026   3.614   0.296  1.00  0.00     0.014 A 
HETATM   24  C   UNL     1       5.490   6.550   3.300  1.00  0.00     0.001 A 
HETATM   25  C   UNL     1       6.231   5.463   3.753  1.00  0.00     0.001 A 
ENDBRANCH  14  16
ENDBRANCH   1  10
BRANCH   4  26
HETATM   26  C   UNL     1      -1.081  -2.497   0.624  1.00  0.00     0.157 C 
BRANCH  26  27
HETATM   27  N   UNL     1      -2.165  -2.658   1.579  1.00  0.00    -0.341 N 
HETATM   28  C   UNL     1      -2.015  -2.708   2.933  1.00  0.00     0.318 C 
HETATM   29  N   UNL     1      -3.163  -2.492   3.667  1.00  0.00    -0.330 N 
HETATM   30  O   UNL     1      -0.918  -2.953   3.433  1.00  0.00    -0.247 OA
HETATM   31  C   UNL     1      -4.252  -1.614   3.198  1.00  0.00     0.153 C 
HETATM   32  C   UNL     1      -3.020  -2.504   5.129  1.00  0.00     0.153 C 
HETATM   33  C   UNL     1      -5.544  -1.825   3.993  1.00  0.00     0.187 C 
HETATM   34  O   UNL     1      -5.308  -1.698   5.399  1.00  0.00    -0.388 OA
HETATM   35  C   UNL     1      -4.363  -2.682   5.838  1.00  0.00     0.187 C 
HETATM   36  H   UNL     1      -3.098  -2.793   1.216  1.00  0.00     0.164 HD
ENDBRANCH  26  27
ENDBRANCH   4  26
TORSDOF 4
