REMARK  4 active torsions:
REMARK  status: ('A' for Active; 'I' for Inactive)
REMARK    1  A    between atoms: C_2  and  C_3 
REMARK    2  A    between atoms: C_2  and  C_19 
REMARK       I    between atoms: C_3  and  N_4 
REMARK    3  A    between atoms: N_4  and  C_5 
REMARK    4  A    between atoms: C_12  and  C_13 
REMARK       I    between atoms: C_13  and  N_14 
ROOT
HETATM    1  C   UNL     1       3.018  -0.193  -1.299  1.00  0.00     0.230 C 
HETATM    2  N   UNL     1       3.226   0.947  -2.055  1.00  0.00    -0.327 N 
HETATM    3  O   UNL     1       3.272  -1.340  -1.662  1.00  0.00    -0.272 OA
HETATM    4  H   UNL     1       3.211   1.828  -1.558  1.00  0.00     0.169 HD
ENDROOT
BRANCH   2   5
HETATM    5  C   UNL     1       3.579   1.021  -3.418  1.00  0.00     0.035 A 
HETATM    6  C   UNL     1       3.529  -0.074  -4.291  1.00  0.00     0.046 A 
HETATM    7  C   UNL     1       3.838   0.110  -5.657  1.00  0.00     0.030 A 
HETATM    8  C   UNL     1       4.204   1.376  -6.097  1.00  0.00     0.063 A 
HETATM    9  C   UNL     1       3.869  -0.710  -6.826  1.00  0.00     0.156 A 
HETATM   10  N   UNL     1       4.444   1.240  -7.435  1.00  0.00    -0.277 N 
HETATM   11  C   UNL     1       4.271   2.487  -5.254  1.00  0.00     0.034 A 
HETATM   12  H   UNL     1       4.737   1.963  -8.083  1.00  0.00     0.189 HD
HETATM   13  N   UNL     1       4.247   0.001  -7.914  1.00  0.00    -0.168 NA
HETATM   14  C   UNL     1       3.941   2.283  -3.909  1.00  0.00     0.032 A 
BRANCH   9  15
HETATM   15  C   UNL     1       3.533  -2.137  -6.930  1.00  0.00     0.270 C 
HETATM   16  N   UNL     1       3.661  -2.649  -8.193  1.00  0.00    -0.365 N 
HETATM   17  H   UNL     1       3.954  -2.030  -8.940  1.00  0.00     0.159 HD
HETATM   18  H   UNL     1       3.435  -3.615  -8.365  1.00  0.00     0.159 HD
HETATM   19  O   UNL     1       3.158  -2.838  -5.997  1.00  0.00    -0.266 OA
ENDBRANCH   9  15
ENDBRANCH   2   5
BRANCH   1  20
HETATM   20  C   UNL     1       2.315   0.038   0.049  1.00  0.00     0.107 C 
HETATM   21  C   UNL     1       0.806  -0.108  -0.167  1.00  0.00     0.025 C 
BRANCH  20  22
HETATM   22  C   UNL     1       2.719   1.322   0.764  1.00  0.00    -0.044 A 
HETATM   23  C   UNL     1       2.017   2.531   0.606  1.00  0.00     0.020 A 
HETATM   24  C   UNL     1       2.430   3.710   1.250  1.00  0.00    -0.025 A 
HETATM   25  C   UNL     1       3.566   3.681   2.087  1.00  0.00    -0.026 A 
HETATM   26  C   UNL     1       1.736   4.919   1.077  1.00  0.00     0.012 A 
HETATM   27  C   UNL     1       4.265   2.476   2.248  1.00  0.00     0.013 A 
HETATM   28  C   UNL     1       3.972   4.858   2.737  1.00  0.00     0.012 A 
HETATM   29  C   UNL     1       3.853   1.315   1.588  1.00  0.00     0.009 A 
HETATM   30  C   UNL     1       3.271   6.051   2.556  1.00  0.00     0.001 A 
HETATM   31  C   UNL     1       2.155   6.082   1.725  1.00  0.00     0.001 A 
ENDBRANCH  20  22
ENDBRANCH   1  20
TORSDOF 4
