REMARK  4 active torsions:
REMARK  status: ('A' for Active; 'I' for Inactive)
REMARK    1  A    between atoms: C_3  and  C_4 
REMARK       I    between atoms: C_4  and  N_5 
REMARK    2  A    between atoms: N_5  and  C_6 
REMARK    3  A    between atoms: C_13  and  C_14 
REMARK       I    between atoms: C_14  and  N_15 
REMARK    4  A    between atoms: C_25  and  O_26 
ROOT
HETATM    1  C   UNL     1       3.020  -2.614   0.089  1.00  0.00     0.280 C 
HETATM    2  N   UNL     1       1.640  -2.657  -0.010  1.00  0.00    -0.321 N 
HETATM    3  O   UNL     1       3.745  -3.571   0.334  1.00  0.00    -0.265 OA
HETATM    4  H   UNL     1       1.208  -1.759  -0.199  1.00  0.00     0.169 HD
ENDROOT
BRANCH   2   5
HETATM    5  C   UNL     1       0.788  -3.775   0.066  1.00  0.00     0.036 A 
HETATM    6  C   UNL     1       1.237  -5.086   0.275  1.00  0.00     0.046 A 
HETATM    7  C   UNL     1       0.305  -6.147   0.299  1.00  0.00     0.030 A 
HETATM    8  C   UNL     1      -1.042  -5.861   0.121  1.00  0.00     0.063 A 
HETATM    9  C   UNL     1       0.363  -7.565   0.466  1.00  0.00     0.156 A 
HETATM   10  N   UNL     1      -1.682  -7.067   0.187  1.00  0.00    -0.277 N 
HETATM   11  C   UNL     1      -1.527  -4.567  -0.079  1.00  0.00     0.034 A 
HETATM   12  H   UNL     1      -2.676  -7.240   0.095  1.00  0.00     0.189 HD
HETATM   13  N   UNL     1      -0.870  -8.117   0.392  1.00  0.00    -0.168 NA
HETATM   14  C   UNL     1      -0.583  -3.533  -0.103  1.00  0.00     0.032 A 
BRANCH   9  15
HETATM   15  C   UNL     1       1.555  -8.394   0.685  1.00  0.00     0.270 C 
HETATM   16  N   UNL     1       1.291  -9.733   0.797  1.00  0.00    -0.365 N 
HETATM   17  H   UNL     1       0.331 -10.045   0.721  1.00  0.00     0.159 HD
HETATM   18  H   UNL     1       2.048 -10.380   0.946  1.00  0.00     0.159 HD
HETATM   19  O   UNL     1       2.701  -7.966   0.766  1.00  0.00    -0.266 OA
ENDBRANCH   9  15
ENDBRANCH   2   5
BRANCH   1  20
HETATM   20  C   UNL     1       3.551  -1.280  -0.154  1.00  0.00     0.150 A 
HETATM   21  C   UNL     1       4.857  -0.807  -0.219  1.00  0.00    -0.009 A 
HETATM   22  C   UNL     1       6.096  -1.602  -0.017  1.00  0.00     0.052 C 
HETATM   23  C   UNL     1       4.761   0.578  -0.552  1.00  0.00     0.009 A 
HETATM   24  C   UNL     1       3.405   0.861  -0.639  1.00  0.00     0.087 A 
HETATM   25  C   UNL     1       5.671   1.623  -0.799  1.00  0.00     0.051 A 
HETATM   26  O   UNL     1       2.671  -0.255  -0.395  1.00  0.00    -0.304 OA
HETATM   27  C   UNL     1       2.886   2.116  -0.944  1.00  0.00     0.041 A 
HETATM   28  C   UNL     1       3.812   3.138  -1.192  1.00  0.00     0.039 A 
HETATM   29  C   UNL     1       5.189   2.899  -1.133  1.00  0.00     0.069 A 
BRANCH  29  30
HETATM   30  O   UNL     1       6.170   3.824  -1.372  1.00  0.00    -0.356 OA
HETATM   31  C   UNL     1       5.758   5.079  -1.899  1.00  0.00     0.210 C 
ENDBRANCH  29  30
ENDBRANCH   1  20
TORSDOF 4
