REMARK  6 active torsions:
REMARK  status: ('A' for Active; 'I' for Inactive)
REMARK    1  A    between atoms: C_3  and  C_4 
REMARK    2  A    between atoms: C_14  and  N_15 
REMARK       I    between atoms: N_15  and  C_16 
REMARK    3  A    between atoms: C_16  and  C_17 
REMARK    4  A    between atoms: N_21  and  C_22 
REMARK    5  A    between atoms: C_22  and  C_23 
REMARK    6  A    between atoms: C_26  and  O_27 
ROOT
HETATM    1  C   UNL     1       0.766   0.373   0.780  1.00  0.00     0.051 C 
HETATM    2  C   UNL     1       2.195   0.016   0.547  1.00  0.00    -0.022 A 
HETATM    3  C   UNL     1       3.243   0.873   0.106  1.00  0.00     0.062 A 
HETATM    4  C   UNL     1       4.394   0.117  -0.073  1.00  0.00     0.125 A 
HETATM    5  N   UNL     1       4.105  -1.174   0.330  1.00  0.00    -0.332 N 
HETATM    6  C   UNL     1       2.759  -1.245   0.697  1.00  0.00     0.017 A 
HETATM    7  C   UNL     1       2.105  -2.525   1.118  1.00  0.00     0.069 C 
ENDROOT
BRANCH   3   8
HETATM    8  C   UNL     1       3.208   2.351  -0.145  1.00  0.00     0.143 A 
HETATM    9  N   UNL     1       4.240   3.022  -0.634  1.00  0.00    -0.228 NA
HETATM   10  C   UNL     1       3.868   4.348  -0.585  1.00  0.00     0.086 A 
HETATM   11  C   UNL     1       2.570   4.481  -0.108  1.00  0.00     0.062 A 
HETATM   12  C   UNL     1       4.594   5.501  -0.917  1.00  0.00     0.034 A 
HETATM   13  N   UNL     1       2.167   3.196   0.139  1.00  0.00    -0.338 N 
HETATM   14  C   UNL     1       1.932   5.712   0.060  1.00  0.00     0.032 A 
HETATM   15  H   UNL     1       1.279   2.934   0.536  1.00  0.00     0.167 HD
HETATM   16  C   UNL     1       2.673   6.851  -0.270  1.00  0.00     0.002 A 
HETATM   17  C   UNL     1       3.982   6.751  -0.749  1.00  0.00     0.002 A 
ENDBRANCH   3   8
BRANCH   4  18
HETATM   18  N   UNL     1       5.514   0.698  -0.663  1.00  0.00    -0.312 N 
HETATM   19  C   UNL     1       6.862   0.252  -0.645  1.00  0.00     0.226 C 
HETATM   20  O   UNL     1       7.281  -0.437   0.270  1.00  0.00    -0.273 OA
HETATM   21  H   UNL     1       5.323   1.618  -1.071  1.00  0.00     0.170 HD
BRANCH  19  22
HETATM   22  C   UNL     1       7.723   0.696  -1.812  1.00  0.00     0.070 C 
HETATM   23  C   UNL     1       7.272  -0.045  -3.066  1.00  0.00     0.019 C 
HETATM   24  C   UNL     1       7.716   2.205  -2.016  1.00  0.00     0.019 C 
ENDBRANCH  19  22
ENDBRANCH   4  18
BRANCH   5  25
HETATM   25  C   UNL     1       4.982  -2.343   0.329  1.00  0.00     0.169 C 
BRANCH  25  26
HETATM   26  C   UNL     1       5.023  -3.134  -0.957  1.00  0.00    -0.040 A 
HETATM   27  C   UNL     1       4.263  -2.840  -2.096  1.00  0.00     0.011 A 
HETATM   28  C   UNL     1       4.318  -3.671  -3.221  1.00  0.00     0.037 A 
HETATM   29  C   UNL     1       5.125  -4.809  -3.235  1.00  0.00     0.068 A 
HETATM   30  C   UNL     1       5.894  -5.106  -2.114  1.00  0.00     0.037 A 
HETATM   31  C   UNL     1       5.844  -4.275  -0.990  1.00  0.00     0.011 A 
BRANCH  29  32
HETATM   32  O   UNL     1       5.068  -5.540  -4.389  1.00  0.00    -0.356 OA
HETATM   33  C   UNL     1       5.850  -6.728  -4.439  1.00  0.00     0.210 C 
ENDBRANCH  29  32
ENDBRANCH  25  26
ENDBRANCH   5  25
TORSDOF 6
