REMARK  11 active torsions:
REMARK  status: ('A' for Active; 'I' for Inactive)
REMARK    1  A    between atoms: C_2  and  N_3 
REMARK    2  A    between atoms: N_3  and  C_5 
REMARK    3  A    between atoms: N_3  and  C_34 
REMARK    4  A    between atoms: C_5  and  C_6 
REMARK    5  A    between atoms: C_6  and  C_7 
REMARK    6  A    between atoms: C_7  and  N_8 
REMARK       I    between atoms: N_8  and  C_9 
REMARK    7  A    between atoms: C_9  and  C_10 
REMARK    8  A    between atoms: C_10  and  O_11 
REMARK    9  A    between atoms: N_12  and  C_13 
REMARK   10  A    between atoms: C_14  and  O_15 
REMARK   11  A    between atoms: C_18  and  O_19 
ROOT
HETATM    1  C   UNL     1      -0.847   3.815  -5.279  1.00  0.00     0.256 C 
HETATM    2  N   UNL     1       0.451   3.180  -5.533  1.00  0.00    -0.251 N 
HETATM    3  C   UNL     1       1.441   3.181  -4.565  1.00  0.00     0.330 C 
HETATM    4  O   UNL     1       2.420   2.436  -4.543  1.00  0.00    -0.246 OA
HETATM    5  N   UNL     1       1.335   4.120  -3.576  1.00  0.00    -0.308 N 
HETATM    6  C   UNL     1       0.363   5.114  -3.525  1.00  0.00     0.048 A 
HETATM    7  C   UNL     1      -0.724   5.035  -4.388  1.00  0.00     0.035 A 
HETATM    8  C   UNL     1       0.493   6.170  -2.622  1.00  0.00     0.031 A 
HETATM    9  C   UNL     1      -0.479   7.171  -2.586  1.00  0.00     0.021 A 
HETATM   10  C   UNL     1      -1.575   7.102  -3.444  1.00  0.00     0.011 A 
HETATM   11 BR   UNL     1      -2.900   8.447  -3.385  1.00  0.00    -0.051 Br
HETATM   12  C   UNL     1      -1.706   6.040  -4.337  1.00  0.00     0.034 A 
HETATM   13  H   UNL     1       2.142   4.174  -2.968  1.00  0.00     0.170 HD
ENDROOT
BRANCH   1  14
HETATM   14  C   UNL     1      -1.858   2.801  -4.575  1.00  0.00     0.279 C 
HETATM   15  N   UNL     1      -1.330   1.942  -3.618  1.00  0.00    -0.356 N 
HETATM   16  H   UNL     1      -0.378   1.639  -3.816  1.00  0.00     0.162 HD
HETATM   17  O   UNL     1      -3.073   2.850  -4.788  1.00  0.00    -0.268 OA
BRANCH  15  18
HETATM   18  C   UNL     1      -2.194   1.017  -2.917  1.00  0.00     0.124 C 
BRANCH  18  19
HETATM   19  C   UNL     1      -1.664   0.710  -1.517  1.00  0.00     0.047 C 
BRANCH  19  20
HETATM   20  C   UNL     1      -2.678  -0.135  -0.751  1.00  0.00     0.236 C 
BRANCH  20  21
HETATM   21  N   UNL     1      -2.216  -0.519   0.648  1.00  0.00    -0.072 N 
HETATM   22  H   UNL     1      -2.980  -1.092   1.035  1.00  0.00     0.279 HD
BRANCH  21  23
HETATM   23  C   UNL     1      -2.067   0.644   1.619  1.00  0.00     0.230 C 
HETATM   24  C   UNL     1      -3.394   1.340   1.862  1.00  0.00     0.034 C 
ENDBRANCH  21  23
BRANCH  21  25
HETATM   25  C   UNL     1      -0.988  -1.413   0.703  1.00  0.00     0.230 C 
HETATM   26  C   UNL     1      -1.209  -2.712  -0.051  1.00  0.00     0.034 C 
ENDBRANCH  21  25
ENDBRANCH  20  21
ENDBRANCH  19  20
ENDBRANCH  18  19
ENDBRANCH  15  18
ENDBRANCH   1  14
BRANCH   1  27
HETATM   27  O   UNL     1      -1.409   4.281  -6.507  1.00  0.00    -0.359 OA
HETATM   28  H   UNL     1      -1.987   3.566  -6.826  1.00  0.00     0.213 HD
ENDBRANCH   1  27
BRANCH   2  29
HETATM   29  C   UNL     1       0.579   2.325  -6.666  1.00  0.00     0.076 A 
HETATM   30  C   UNL     1       0.686   0.928  -6.557  1.00  0.00     0.098 A 
HETATM   31  C   UNL     1       0.841   0.143  -7.712  1.00  0.00     0.075 A 
HETATM   32  C   UNL     1       0.936   0.748  -8.968  1.00  0.00     0.070 A 
HETATM   33  C   UNL     1       0.843   2.135  -9.071  1.00  0.00     0.039 A 
HETATM   34  C   UNL     1       0.666   2.919  -7.931  1.00  0.00     0.035 A 
BRANCH  30  35
HETATM   35  O   UNL     1       0.527   0.363  -5.311  1.00  0.00    -0.354 OA
HETATM   36  C   UNL     1       1.482  -0.667  -5.046  1.00  0.00     0.210 C 
ENDBRANCH  30  35
BRANCH  32  37
HETATM   37  O   UNL     1       1.101   0.105 -10.163  1.00  0.00    -0.356 OA
HETATM   38  C   UNL     1       1.412  -1.281 -10.119  1.00  0.00     0.210 C 
ENDBRANCH  32  37
ENDBRANCH   2  29
TORSDOF 11
