REMARK  8 active torsions:
REMARK  status: ('A' for Active; 'I' for Inactive)
REMARK    1  A    between atoms: CG_8  and  CB_9 
REMARK    2  A    between atoms: CB_9  and  CA_10 
REMARK    3  A    between atoms: CA_10  and  N_11 
REMARK    4  A    between atoms: CA_10  and  C_14 
REMARK    5  A    between atoms: N_11  and  C_19 
REMARK    6  A    between atoms: C_14  and  O_15 
REMARK    7  A    between atoms: C_19  and  C_20 
REMARK    8  A    between atoms: C_22  and  C_23 
ROOT
ATOM      1  CA  TRP A   1      -1.171  -3.761  -0.113  1.00  0.00     0.214 C 
ENDROOT
BRANCH   1   2
ATOM      2  CB  TRP A   1      -2.100  -2.533  -0.061  1.00  0.00     0.076 C 
BRANCH   2   3
ATOM      3  CG  TRP A   1      -1.491  -1.270   0.473  1.00  0.00    -0.028 A 
ATOM      4  CD2 TRP A   1      -0.207  -0.688   0.198  1.00  0.00    -0.002 A 
ATOM      5  CE3 TRP A   1       0.889  -1.026  -0.627  1.00  0.00     0.014 A 
ATOM      6  CE2 TRP A   1      -0.103   0.466   0.979  1.00  0.00     0.042 A 
ATOM      7  CZ3 TRP A   1       2.044  -0.233  -0.609  1.00  0.00     0.001 A 
ATOM      8  CH2 TRP A   1       2.117   0.898   0.197  1.00  0.00     0.002 A 
ATOM      9  CZ2 TRP A   1       1.039   1.275   0.999  1.00  0.00     0.030 A 
ATOM     10  NE1 TRP A   1      -1.293   0.624   1.645  1.00  0.00    -0.365 N 
ATOM     11  HE1 TRP A   1      -1.515   1.406   2.249  1.00  0.00     0.165 HD
ATOM     12  CD1 TRP A   1      -2.126  -0.424   1.365  1.00  0.00     0.096 A 
ENDBRANCH   2   3
ENDBRANCH   1   2
BRANCH   1  13
ATOM     13  N   TRP A   1      -0.408  -3.910   1.189  1.00  0.00    -0.064 N 
ATOM     14  H1  TRP A   1      -0.158  -2.990   1.579  1.00  0.00     0.278 HD
ATOM     15  H2  TRP A   1      -1.071  -4.340   1.859  1.00  0.00     0.278 HD
BRANCH  13  16
HETATM   16  C   UNK A   0       0.816  -4.747   1.107  1.00  0.00     0.280 C 
BRANCH  16  17
HETATM   17  C   UNK A   0       1.589  -4.763   2.371  1.00  0.00     0.027 A 
HETATM   18  S   UNK A   0       2.537  -3.414   2.852  1.00  0.00    -0.076 SA
HETATM   19  C   UNK A   0       3.126  -4.319   4.186  1.00  0.00     0.079 A 
HETATM   20  N   UNK A   0       2.611  -5.521   4.321  1.00  0.00    -0.257 NA
HETATM   21  C   UNK A   0       1.736  -5.780   3.291  1.00  0.00     0.133 A 
BRANCH  19  22
HETATM   22  C   UNK A   0       4.206  -3.777   5.122  1.00  0.00     0.045 C 
HETATM   23  C   UNK A   0       4.057  -4.185   6.618  1.00  0.00     0.011 C 
HETATM   24  C   UNK A   0       5.585  -4.377   6.649  1.00  0.00     0.002 C 
HETATM   25  C   UNK A   0       5.491  -4.664   5.140  1.00  0.00     0.011 C 
ENDBRANCH  19  22
ENDBRANCH  16  17
ENDBRANCH  13  16
ENDBRANCH   1  13
BRANCH   1  26
ATOM     26  C   TRP A   1      -1.997  -5.050  -0.313  1.00  0.00     0.197 C 
BRANCH  26  27
ATOM     27  O   TRP A   1      -2.487  -5.464   0.968  1.00  0.00    -0.399 OA
ATOM     28  H   TRP A   1      -3.132  -6.184   0.813  1.00  0.00     0.209 HD
ENDBRANCH  26  27
ENDBRANCH   1  26
TORSDOF 8
