REMARK  3 active torsions:
REMARK  status: ('A' for Active; 'I' for Inactive)
REMARK    1  A    between atoms: C_4  and  C_5 
REMARK    2  A    between atoms: C_11  and  C_12 
REMARK    3  A    between atoms: C_21  and  N_22 
ROOT
HETATM    1  C   UNL     1       3.483   0.887   3.768  1.00  0.00     0.098 C 
HETATM    2  N   UNL     1       2.961   0.642   4.988  1.00  0.00    -0.172 NA
HETATM    3  N   UNL     1       2.696   1.854   5.500  1.00  0.00    -0.256 N 
HETATM    4  H   UNL     1       2.350   1.920   6.450  1.00  0.00     0.191 HD
HETATM    5  C   UNL     1       3.027   2.859   4.657  1.00  0.00     0.175 C 
HETATM    6  C   UNL     1       3.430   2.284   3.476  1.00  0.00     0.036 C 
HETATM    7  C   UNL     1       3.827   3.171   2.337  1.00  0.00     0.077 C 
HETATM    8  C   UNL     1       4.181   4.569   2.912  1.00  0.00     0.076 C 
HETATM    9  C   UNL     1       4.985   5.421   2.097  1.00  0.00     0.100 C 
HETATM   10  N   UNL     1       5.617   6.113   1.414  1.00  0.00    -0.192 NA
HETATM   11  C   UNL     1       3.770   4.985   4.141  1.00  0.00     0.140 C 
HETATM   12  O   UNL     1       3.032   4.143   4.990  1.00  0.00    -0.279 OA
ENDROOT
BRANCH   7  13
HETATM   13  C   UNL     1       2.768   3.343   1.192  1.00  0.00     0.003 C 
HETATM   14  C   UNL     1       1.388   3.881   1.635  1.00  0.00     0.032 C 
HETATM   15  C   UNL     1       0.379   2.826   1.956  1.00  0.00    -0.030 C 
HETATM   16  C   UNL     1       0.481   1.563   1.528  1.00  0.00    -0.031 C 
HETATM   17  C   UNL     1       1.602   1.067   0.673  1.00  0.00     0.027 C 
HETATM   18  C   UNL     1       2.617   2.130   0.252  1.00  0.00     0.009 C 
ENDBRANCH   7  13
BRANCH  11  19
HETATM   19  N   UNL     1       4.013   6.221   4.695  1.00  0.00    -0.282 NA
HETATM   20  H   UNL     1       4.191   6.974   4.034  1.00  0.00     0.126 HD
HETATM   21  H   UNL     1       3.327   6.465   5.405  1.00  0.00     0.126 HD
ENDBRANCH  11  19
BRANCH   1  22
HETATM   22  C   UNL     1       4.021  -0.224   2.979  1.00  0.00    -0.005 A 
HETATM   23  C   UNL     1       3.375  -1.470   2.998  1.00  0.00     0.014 A 
HETATM   24  C   UNL     1       3.860  -2.540   2.243  1.00  0.00     0.001 A 
HETATM   25  C   UNL     1       5.008  -2.380   1.470  1.00  0.00     0.000 A 
HETATM   26  C   UNL     1       5.675  -1.157   1.462  1.00  0.00     0.001 A 
HETATM   27  C   UNL     1       5.189  -0.086   2.218  1.00  0.00     0.014 A 
ENDBRANCH   1  22
TORSDOF 3
