REMARK  6 active torsions:
REMARK  status: ('A' for Active; 'I' for Inactive)
REMARK    1  A    between atoms: C_2  and  N_3 
REMARK    2  A    between atoms: C_2  and  C_25 
REMARK    3  A    between atoms: C_7  and  N_8 
REMARK       I    between atoms: N_8  and  C_9 
REMARK       I    between atoms: C_9  and  N_10 
REMARK    4  A    between atoms: N_10  and  C_11 
REMARK    5  A    between atoms: C_11  and  C_12 
REMARK    6  A    between atoms: C_20  and  O_21 
ROOT
HETATM    1  N   UNL     1       2.371  -2.591  -1.919  1.00  0.00    -0.293 N 
HETATM    2  C   UNL     1       1.891  -3.334  -0.825  1.00  0.00     0.322 C 
HETATM    3  N   UNL     1       1.920  -2.766   0.409  1.00  0.00    -0.337 N 
HETATM    4  O   UNL     1       1.415  -4.414  -1.127  1.00  0.00    -0.247 OA
HETATM    5  H   UNL     1       2.175  -3.084  -2.781  1.00  0.00     0.172 HD
HETATM    6  H   UNL     1       2.127  -1.784   0.435  1.00  0.00     0.164 HD
ENDROOT
BRANCH   3   7
HETATM    7  C   UNL     1       0.996  -3.188   1.444  1.00  0.00     0.181 C 
BRANCH   7   8
HETATM    8  C   UNL     1       1.209  -4.561   1.985  1.00  0.00     0.028 A 
HETATM    9  N   UNL     1       1.495  -5.660   1.207  1.00  0.00    -0.357 N 
HETATM   10  H   UNL     1       1.641  -5.638   0.205  1.00  0.00     0.166 HD
HETATM   11  C   UNL     1       1.374  -6.823   1.925  1.00  0.00     0.043 A 
HETATM   12  C   UNL     1       1.044  -6.466   3.227  1.00  0.00    -0.005 A 
HETATM   13  C   UNL     1       1.496  -8.151   1.507  1.00  0.00     0.033 A 
HETATM   14  C   UNL     1       0.999  -5.042   3.268  1.00  0.00     0.040 A 
HETATM   15  C   UNL     1       0.788  -7.491   4.159  1.00  0.00     0.050 A 
HETATM   16  C   UNL     1       0.843  -8.832   3.749  1.00  0.00     0.069 A 
HETATM   17  C   UNL     1       1.220  -9.152   2.445  1.00  0.00     0.039 A 
BRANCH  16  18
HETATM   18  O   UNL     1       0.508  -9.743   4.717  1.00  0.00    -0.356 OA
HETATM   19  C   UNL     1       0.132 -11.036   4.253  1.00  0.00     0.210 C 
ENDBRANCH  16  18
ENDBRANCH   7   8
ENDBRANCH   3   7
BRANCH   1  20
HETATM   20  C   UNL     1       2.976  -1.357  -2.014  1.00  0.00     0.129 A 
HETATM   21  N   UNL     1       2.992  -0.561  -3.145  1.00  0.00    -0.249 N 
HETATM   22  N   UNL     1       3.678   0.586  -2.962  1.00  0.00    -0.183 NA
HETATM   23  C   UNL     1       4.137   0.499  -1.714  1.00  0.00     0.142 A 
HETATM   24  C   UNL     1       3.735  -0.691  -1.078  1.00  0.00     0.071 A 
BRANCH  21  25
HETATM   25  C   UNL     1       2.310  -0.758  -4.430  1.00  0.00     0.111 C 
HETATM   26  C   UNL     1       0.879  -1.294  -4.285  1.00  0.00     0.035 C 
BRANCH  25  27
HETATM   27  C   UNL     1       3.192  -1.513  -5.466  1.00  0.00     0.002 C 
HETATM   28  C   UNL     1       3.615  -2.922  -5.040  1.00  0.00     0.011 C 
HETATM   29  C   UNL     1       2.510  -1.590  -6.837  1.00  0.00     0.011 C 
ENDBRANCH  25  27
ENDBRANCH  21  25
ENDBRANCH   1  20
TORSDOF 6
