REMARK  5 active torsions:
REMARK  status: ('A' for Active; 'I' for Inactive)
REMARK    1  A    between atoms: C_2  and  C_3 
REMARK    2  A    between atoms: C_6  and  C_7 
REMARK    3  A    between atoms: C_7  and  C_8 
REMARK       I    between atoms: C_8  and  N_9 
REMARK    4  A    between atoms: N_9  and  C_10 
REMARK    5  A    between atoms: C_12  and  C_13 
ROOT
HETATM    1  C   UNL     1       4.867   1.865   6.357  1.00  0.00     0.226 C 
HETATM    2  N   UNL     1       3.758   2.506   6.895  1.00  0.00    -0.327 N 
HETATM    3  O   UNL     1       5.932   2.395   6.054  1.00  0.00    -0.273 OA
HETATM    4  H   UNL     1       2.923   1.945   7.006  1.00  0.00     0.169 HD
ENDROOT
BRANCH   1   5
HETATM    5  C   UNL     1       4.652   0.365   6.201  1.00  0.00     0.144 C 
BRANCH   5   6
HETATM    6  C   UNL     1       4.512  -0.079   4.780  1.00  0.00    -0.021 A 
HETATM    7  C   UNL     1       3.459   0.236   3.856  1.00  0.00    -0.001 A 
HETATM    8  C   UNL     1       3.703  -0.478   2.679  1.00  0.00     0.049 A 
HETATM    9  C   UNL     1       2.310   1.049   3.915  1.00  0.00     0.014 A 
HETATM   10  C   UNL     1       2.848  -0.446   1.558  1.00  0.00    -0.031 A 
HETATM   11  N   UNL     1       4.882  -1.163   2.867  1.00  0.00    -0.364 N 
HETATM   12  C   UNL     1       1.721   0.389   1.659  1.00  0.00     0.009 A 
HETATM   13  C   UNL     1       1.456   1.124   2.811  1.00  0.00     0.002 A 
HETATM   14  C   UNL     1       5.371  -0.939   4.123  1.00  0.00     0.097 A 
HETATM   15  H   UNL     1       5.315  -1.754   2.172  1.00  0.00     0.165 HD
BRANCH  10  16
HETATM   16  C   UNL     1       3.092  -1.235   0.296  1.00  0.00     0.036 C 
HETATM   17  C   UNL     1       4.059  -0.529  -0.641  1.00  0.00     0.010 C 
ENDBRANCH  10  16
ENDBRANCH   5   6
ENDBRANCH   1   5
BRANCH   2  18
HETATM   18  C   UNL     1       3.639   3.860   7.268  1.00  0.00     0.035 A 
HETATM   19  C   UNL     1       2.373   4.295   7.691  1.00  0.00     0.042 A 
HETATM   20  C   UNL     1       2.158   5.620   8.103  1.00  0.00    -0.021 A 
HETATM   21  C   UNL     1       3.235   6.512   8.094  1.00  0.00     0.012 A 
HETATM   22  C   UNL     1       4.497   6.087   7.675  1.00  0.00     0.003 A 
HETATM   23  C   UNL     1       4.697   4.768   7.261  1.00  0.00     0.029 A 
BRANCH  20  24
HETATM   24  C   UNL     1       0.831   6.046   8.515  1.00  0.00     0.010 A 
HETATM   25  C   UNL     1      -0.450   5.611   8.099  1.00  0.00     0.152 A 
HETATM   26  N   UNL     1      -1.442   6.241   8.734  1.00  0.00    -0.187 NA
HETATM   27  N   UNL     1      -0.801   7.086   9.557  1.00  0.00    -0.289 N 
HETATM   28  H   UNL     1      -1.356   7.687  10.157  1.00  0.00     0.188 HD
HETATM   29  C   UNL     1       0.559   7.006   9.466  1.00  0.00     0.123 A 
ENDBRANCH  20  24
ENDBRANCH   2  18
TORSDOF 5
