REMARK  7 active torsions:
REMARK  status: ('A' for Active; 'I' for Inactive)
REMARK    1  A    between atoms: C_4  and  C_5 
REMARK    2  A    between atoms: C_5  and  N_6 
REMARK       I    between atoms: N_6  and  C_7 
REMARK       I    between atoms: C_7  and  N_8 
REMARK    3  A    between atoms: N_8  and  C_9 
REMARK    4  A    between atoms: C_9  and  C_10 
REMARK    5  A    between atoms: C_12  and  O_13 
REMARK    6  A    between atoms: O_13  and  C_14 
REMARK    7  A    between atoms: C_23  and  O_24 
ROOT
HETATM    1  N   UNL     1       6.390   2.427  -1.689  1.00  0.00    -0.335 N 
HETATM    2  C   UNL     1       7.656   1.944  -1.807  1.00  0.00     0.316 C 
HETATM    3  N   UNL     1       8.111   1.205  -0.763  1.00  0.00    -0.339 N 
HETATM    4  O   UNL     1       8.377   2.106  -2.784  1.00  0.00    -0.247 OA
HETATM    5  H   UNL     1       6.031   2.525  -0.756  1.00  0.00     0.165 HD
HETATM    6  H   UNL     1       9.044   0.847  -0.924  1.00  0.00     0.164 HD
ENDROOT
BRANCH   1   7
HETATM    7  C   UNL     1       5.799   3.295  -2.703  1.00  0.00     0.118 C 
HETATM    8  C   UNL     1       4.287   3.063  -2.738  1.00  0.00     0.037 C 
BRANCH   7   9
HETATM    9  C   UNL     1       6.096   4.777  -2.477  1.00  0.00    -0.002 A 
HETATM   10  C   UNL     1       6.301   5.297  -1.182  1.00  0.00     0.018 A 
HETATM   11  C   UNL     1       6.543   6.660  -0.972  1.00  0.00    -0.061 A 
HETATM   12  C   UNL     1       6.761   7.202   0.410  1.00  0.00     0.048 C 
HETATM   13  C   UNL     1       6.569   7.520  -2.072  1.00  0.00     0.009 A 
HETATM   14  C   UNL     1       6.354   7.028  -3.361  1.00  0.00     0.038 A 
HETATM   15  C   UNL     1       6.116   5.666  -3.573  1.00  0.00     0.076 A 
BRANCH  15  16
HETATM   16  O   UNL     1       5.862   5.112  -4.802  1.00  0.00    -0.355 OA
HETATM   17  C   UNL     1       6.062   5.932  -5.946  1.00  0.00     0.210 C 
ENDBRANCH  15  16
ENDBRANCH   7   9
ENDBRANCH   1   7
BRANCH   3  18
HETATM   18  C   UNL     1       7.401   0.752   0.413  1.00  0.00     0.163 C 
BRANCH  18  19
HETATM   19  C   UNL     1       7.298   1.816   1.474  1.00  0.00    -0.035 A 
HETATM   20  C   UNL     1       6.102   2.006   2.172  1.00  0.00     0.066 A 
HETATM   21  C   UNL     1       6.050   2.991   3.146  1.00  0.00     0.164 A 
HETATM   22  N   UNL     1       7.090   3.781   3.478  1.00  0.00    -0.237 NA
HETATM   23  C   UNL     1       8.242   3.570   2.809  1.00  0.00     0.120 A 
HETATM   24  C   UNL     1       8.395   2.614   1.818  1.00  0.00     0.028 A 
BRANCH  21  25
HETATM   25  O   UNL     1       4.841   3.155   3.795  1.00  0.00    -0.329 OA
BRANCH  25  26
HETATM   26  C   UNL     1       4.765   4.262   4.719  1.00  0.00     0.130 C 
HETATM   27  C   UNL     1       4.648   5.682   4.103  1.00  0.00     0.032 C 
HETATM   28  C   UNL     1       3.643   6.018   5.219  1.00  0.00     0.005 C 
HETATM   29  C   UNL     1       3.356   4.509   5.321  1.00  0.00     0.032 C 
ENDBRANCH  25  26
ENDBRANCH  21  25
ENDBRANCH  18  19
ENDBRANCH   3  18
TORSDOF 7
