REMARK  6 active torsions:
REMARK  status: ('A' for Active; 'I' for Inactive)
REMARK    1  A    between atoms: C_2  and  O_3 
REMARK    2  A    between atoms: O_3  and  C_4 
REMARK    3  A    between atoms: C_11  and  C_12 
REMARK    4  A    between atoms: C_12  and  N_13 
REMARK    5  A    between atoms: N_13  and  C_14 
REMARK    6  A    between atoms: C_17  and  O_18 
ROOT
HETATM    1  C   UNL     1       4.278   0.132   1.856  1.00  0.00     0.069 A 
HETATM    2  C   UNL     1       5.046  -1.030   1.965  1.00  0.00     0.050 A 
HETATM    3  C   UNL     1       6.423  -0.940   2.199  1.00  0.00    -0.006 A 
HETATM    4  C   UNL     1       7.026   0.316   2.326  1.00  0.00     0.045 A 
HETATM    5  N   UNL     1       8.403   0.394   2.563  1.00  0.00    -0.322 N 
HETATM    6  C   UNL     1       9.216  -0.702   2.689  1.00  0.00     0.253 A 
HETATM    7  O   UNL     1      10.417  -0.579   2.913  1.00  0.00    -0.268 OA
HETATM    8  C   UNL     1       8.579  -2.043   2.543  1.00  0.00     0.024 A 
HETATM    9  C   UNL     1       7.257  -2.136   2.307  1.00  0.00     0.027 A 
HETATM   10  C   UNL     1       6.269   1.479   2.219  1.00  0.00     0.033 A 
HETATM   11  C   UNL     1       4.896   1.380   1.982  1.00  0.00     0.039 A 
HETATM   12  H   UNL     1       8.853   1.293   2.667  1.00  0.00     0.169 HD
ENDROOT
BRANCH   8  13
HETATM   13  C   UNL     1       9.482  -3.238   2.618  1.00  0.00     0.136 C 
BRANCH  13  14
HETATM   14  N   UNL     1       9.613  -3.633   4.017  1.00  0.00    -0.289 NA
HETATM   15  H   UNL     1       9.991  -2.861   4.568  1.00  0.00     0.128 HD
BRANCH  14  16
HETATM   16  C   UNL     1      10.278  -4.826   4.333  1.00  0.00     0.008 A 
HETATM   17  C   UNL     1      10.844  -4.957   5.608  1.00  0.00     0.026 A 
HETATM   18  C   UNL     1      11.449  -6.151   6.016  1.00  0.00     0.038 A 
HETATM   19  C   UNL     1      11.471  -7.260   5.173  1.00  0.00     0.068 A 
HETATM   20  C   UNL     1      10.878  -7.160   3.918  1.00  0.00     0.038 A 
HETATM   21  C   UNL     1      10.277  -5.958   3.512  1.00  0.00     0.026 A 
BRANCH  19  22
HETATM   22  O   UNL     1      12.083  -8.367   5.691  1.00  0.00    -0.356 OA
HETATM   23  C   UNL     1      12.058  -9.544   4.894  1.00  0.00     0.210 C 
ENDBRANCH  19  22
ENDBRANCH  14  16
ENDBRANCH  13  14
ENDBRANCH   8  13
BRANCH   1  24
HETATM   24  O   UNL     1       2.930   0.185   1.626  1.00  0.00    -0.351 OA
BRANCH  24  25
HETATM   25  C   UNL     1       2.235  -1.057   1.530  1.00  0.00     0.171 C 
HETATM   26  C   UNL     1       0.766  -0.757   1.297  1.00  0.00     0.034 C 
ENDBRANCH  24  25
ENDBRANCH   1  24
TORSDOF 6
