REMARK  3 active torsions:
REMARK  status: ('A' for Active; 'I' for Inactive)
REMARK    1  A    between atoms: C_11  and  N_12 
REMARK       I    between atoms: N_12  and  C_13 
REMARK    2  A    between atoms: C_13  and  C_14 
REMARK    3  A    between atoms: C_15  and  C_16 
ROOT
HETATM    1  N   UNL     1       0.885   2.057  -1.659  1.00  0.00    -0.352 N 
HETATM    2  C   UNL     1       0.244   3.020  -0.891  1.00  0.00     0.255 C 
HETATM    3  O   UNL     1       0.828   3.651  -0.018  1.00  0.00    -0.268 OA
HETATM    4  H   UNL     1       0.391   1.793  -2.502  1.00  0.00     0.163 HD
ENDROOT
BRANCH   2   5
HETATM    5  C   UNL     1      -1.166   3.204  -1.192  1.00  0.00     0.080 A 
HETATM    6  C   UNL     1      -2.209   3.635  -0.308  1.00  0.00     0.107 A 
HETATM    7  N   UNL     1      -3.377   3.741  -0.965  1.00  0.00    -0.173 NA
HETATM    8  N   UNL     1      -3.101   3.386  -2.221  1.00  0.00    -0.288 N 
HETATM    9  H   UNL     1      -3.856   3.412  -2.901  1.00  0.00     0.188 HD
HETATM   10  C   UNL     1      -1.798   3.037  -2.413  1.00  0.00     0.128 A 
BRANCH   6  11
HETATM   11  C   UNL     1      -2.147   3.938   1.120  1.00  0.00     0.034 A 
HETATM   12  C   UNL     1      -1.485   3.096   2.019  1.00  0.00     0.129 A 
HETATM   13  F   UNL     1      -0.906   1.960   1.597  1.00  0.00    -0.205 F 
HETATM   14  C   UNL     1      -1.430   3.394   3.380  1.00  0.00     0.043 A 
HETATM   15  C   UNL     1      -2.056   4.542   3.864  1.00  0.00     0.003 A 
HETATM   16  C   UNL     1      -2.741   5.381   2.986  1.00  0.00     0.001 A 
HETATM   17  C   UNL     1      -2.788   5.080   1.622  1.00  0.00     0.017 A 
ENDBRANCH   6  11
ENDBRANCH   2   5
BRANCH   1  18
HETATM   18  C   UNL     1       2.322   1.851  -1.582  1.00  0.00     0.089 C 
HETATM   19  C   UNL     1       2.822   0.868  -2.647  1.00  0.00     0.063 C 
HETATM   20  C   UNL     1       2.558  -0.619  -2.355  1.00  0.00     0.121 C 
HETATM   21  N   UNL     1       2.946  -0.949  -0.932  1.00  0.00    -0.059 N 
HETATM   22  C   UNL     1       1.113  -1.054  -2.623  1.00  0.00     0.046 C 
HETATM   23  C   UNL     1       3.472  -1.478  -3.255  1.00  0.00     0.046 C 
HETATM   24  C   UNL     1       2.554  -0.023   0.202  1.00  0.00     0.121 C 
HETATM   25  H   UNL     1       3.973  -1.030  -0.907  1.00  0.00     0.279 HD
HETATM   26  H   UNL     1       2.616  -1.899  -0.706  1.00  0.00     0.279 HD
HETATM   27  C   UNL     1       1.105  -0.282   0.622  1.00  0.00     0.046 C 
HETATM   28  C   UNL     1       3.455  -0.412   1.393  1.00  0.00     0.046 C 
HETATM   29  C   UNL     1       2.848   1.426  -0.201  1.00  0.00     0.063 C 
ENDBRANCH   1  18
TORSDOF 3
