REMARK  9 active torsions:
REMARK  status: ('A' for Active; 'I' for Inactive)
REMARK    1  A    between atoms: C_2  and  O_3 
REMARK    2  A    between atoms: O_3  and  C_4 
REMARK    3  A    between atoms: C_4  and  C_5 
REMARK    4  A    between atoms: C_11  and  O_12 
REMARK    5  A    between atoms: C_13  and  C_14 
REMARK    6  A    between atoms: C_14  and  N_15 
REMARK    7  A    between atoms: N_19  and  C_20 
REMARK    8  A    between atoms: C_26  and  C_27 
REMARK    9  A    between atoms: C_27  and  N_28 
ROOT
HETATM    1  C   UNL     1       5.253   0.347   0.363  1.00  0.00     0.077 A 
HETATM    2  C   UNL     1       6.224   0.954  -0.551  1.00  0.00     0.020 A 
HETATM    3  C   UNL     1       6.821  -0.111  -1.240  1.00  0.00     0.053 A 
HETATM    4  C   UNL     1       7.872   0.071  -2.160  1.00  0.00     0.053 A 
HETATM    5  C   UNL     1       8.396   1.341  -2.330  1.00  0.00     0.047 A 
HETATM    6 BR   UNL     1       9.877   1.569  -3.489  1.00  0.00    -0.048 Br
HETATM    7  C   UNL     1       7.834   2.424  -1.664  1.00  0.00     0.092 A 
HETATM    8  C   UNL     1       6.696   2.298  -0.823  1.00  0.00     0.016 A 
HETATM    9  N   UNL     1       6.181  -1.289  -0.880  1.00  0.00    -0.312 N 
HETATM   10  C   UNL     1       5.252  -1.039   0.122  1.00  0.00     0.060 A 
ENDROOT
BRANCH  10  11
HETATM   11  C   UNL     1       4.614  -2.178   0.876  1.00  0.00     0.293 C 
BRANCH  11  12
HETATM   12  N   UNL     1       3.114  -2.128   0.953  1.00  0.00    -0.062 N 
HETATM   13  H   UNL     1       2.883  -1.215   1.366  1.00  0.00     0.280 HD
HETATM   14  C   UNL     1       2.402  -2.246  -0.383  1.00  0.00     0.261 C 
HETATM   15  C   UNL     1       0.888  -2.145  -0.164  1.00  0.00     0.195 C 
HETATM   16  O   UNL     1       0.435  -3.158   0.738  1.00  0.00    -0.388 OA
HETATM   17  C   UNL     1       1.050  -3.048   2.025  1.00  0.00     0.195 C 
HETATM   18  C   UNL     1       2.572  -3.188   1.917  1.00  0.00     0.261 C 
ENDBRANCH  11  12
ENDBRANCH  10  11
BRANCH   1  19
HETATM   19  C   UNL     1       4.495   1.039   1.421  1.00  0.00     0.296 C 
HETATM   20  O   UNL     1       4.591   2.237   1.635  1.00  0.00    -0.259 OA
BRANCH  19  21
HETATM   21  O   UNL     1       3.674   0.214   2.142  1.00  0.00    -0.318 OA
BRANCH  21  22
HETATM   22  C   UNL     1       2.970   0.846   3.234  1.00  0.00     0.174 C 
HETATM   23  C   UNL     1       3.885   1.052   4.429  1.00  0.00     0.034 C 
ENDBRANCH  21  22
ENDBRANCH  19  21
ENDBRANCH   1  19
BRANCH   9  24
HETATM   24  C   UNL     1       6.510  -2.565  -1.403  1.00  0.00     0.040 A 
HETATM   25  C   UNL     1       7.799  -3.076  -1.216  1.00  0.00     0.030 A 
HETATM   26  C   UNL     1       8.115  -4.335  -1.726  1.00  0.00     0.002 A 
HETATM   27  C   UNL     1       7.155  -5.070  -2.421  1.00  0.00     0.000 A 
HETATM   28  C   UNL     1       5.875  -4.549  -2.617  1.00  0.00     0.002 A 
HETATM   29  C   UNL     1       5.546  -3.292  -2.110  1.00  0.00     0.030 A 
ENDBRANCH   9  24
BRANCH   8  30
HETATM   30  C   UNL     1       6.084   3.543  -0.193  1.00  0.00     0.276 C 
BRANCH  30  31
HETATM   31  N   UNL     1       6.352   4.877  -0.860  1.00  0.00    -0.075 N 
HETATM   32  H   UNL     1       7.341   4.819  -1.159  1.00  0.00     0.279 HD
HETATM   33  C   UNL     1       5.548   5.101  -2.103  1.00  0.00     0.269 C 
HETATM   34  C   UNL     1       6.245   6.025   0.095  1.00  0.00     0.269 C 
ENDBRANCH  30  31
ENDBRANCH   8  30
BRANCH   7  35
HETATM   35  O   UNL     1       8.403   3.672  -1.818  1.00  0.00    -0.359 OA
HETATM   36  H   UNL     1       9.221   3.549  -2.352  1.00  0.00     0.218 HD
ENDBRANCH   7  35
TORSDOF 9
