REMARK  11 active torsions:
REMARK  status: ('A' for Active; 'I' for Inactive)
REMARK    1  A    between atoms: C_2  and  N_3 
REMARK    2  A    between atoms: N_3  and  C_5 
REMARK    3  A    between atoms: N_3  and  C_35 
REMARK    4  A    between atoms: C_5  and  C_6 
REMARK    5  A    between atoms: C_6  and  C_7 
REMARK    6  A    between atoms: C_7  and  N_8 
REMARK    7  A    between atoms: N_8  and  C_9 
REMARK    8  A    between atoms: N_8  and  C_19 
REMARK    9  A    between atoms: C_9  and  N_10 
REMARK   10  A    between atoms: N_10  and  C_11 
REMARK   11  A    between atoms: C_19  and  C_20 
ROOT
HETATM    1  N   UNL     1      -0.962  -0.341   4.019  1.00  0.00    -0.255 NA
ENDROOT
BRANCH   1   2
HETATM    2  C   UNL     1       0.355   0.323   3.964  1.00  0.00     0.100 C 
BRANCH   2   3
HETATM    3  C   UNL     1       1.153   0.155   2.658  1.00  0.00     0.042 C 
BRANCH   3   4
HETATM    4  C   UNL     1       0.958   1.326   1.701  1.00  0.00     0.236 C 
BRANCH   4   5
HETATM    5  N   UNL     1       1.822   1.228   0.447  1.00  0.00    -0.072 N 
HETATM    6  H   UNL     1       1.629   2.095  -0.074  1.00  0.00     0.279 HD
BRANCH   5   7
HETATM    7  C   UNL     1       1.436   0.099  -0.498  1.00  0.00     0.230 C 
HETATM    8  C   UNL     1       0.048   0.306  -1.074  1.00  0.00     0.034 C 
ENDBRANCH   5   7
BRANCH   5   9
HETATM    9  C   UNL     1       3.322   1.236   0.684  1.00  0.00     0.230 C 
HETATM   10  C   UNL     1       3.764   2.475   1.442  1.00  0.00     0.034 C 
ENDBRANCH   5   9
ENDBRANCH   4   5
ENDBRANCH   3   4
ENDBRANCH   2   3
ENDBRANCH   1   2
BRANCH   1  11
HETATM   11  C   UNL     1      -1.848  -0.085   2.983  1.00  0.00     0.153 C 
HETATM   12  S   UNL     1      -2.678   1.364   2.775  1.00  0.00    -0.047 SA
BRANCH  11  13
HETATM   13  N   UNL     1      -2.053  -1.044   2.037  1.00  0.00    -0.338 N 
HETATM   14  H   UNL     1      -2.733  -0.736   1.347  1.00  0.00     0.168 HD
BRANCH  13  15
HETATM   15  C   UNL     1      -1.600  -2.369   1.870  1.00  0.00     0.035 A 
HETATM   16  C   UNL     1      -2.021  -3.022   0.702  1.00  0.00     0.053 A 
HETATM   17  C   UNL     1      -1.615  -4.329   0.432  1.00  0.00     0.036 A 
HETATM   18 CL   UNL     1      -2.125  -5.095  -1.021  1.00  0.00    -0.084 Cl
HETATM   19  C   UNL     1      -0.793  -5.010   1.322  1.00  0.00     0.024 A 
HETATM   20  C   UNL     1      -0.379  -4.375   2.491  1.00  0.00     0.004 A 
HETATM   21  C   UNL     1      -0.781  -3.061   2.763  1.00  0.00     0.029 A 
ENDBRANCH  13  15
ENDBRANCH  11  13
ENDBRANCH   1  11
BRANCH   1  22
HETATM   22  C   UNL     1      -1.615  -0.297   5.352  1.00  0.00     0.142 C 
BRANCH  22  23
HETATM   23  C   UNL     1      -0.827  -0.947   6.452  1.00  0.00     0.024 A 
HETATM   24  C   UNL     1       0.025  -0.036   7.281  1.00  0.00     0.253 A 
HETATM   25  O   UNL     1       0.215   1.134   6.958  1.00  0.00    -0.268 OA
HETATM   26  N   UNL     1       0.601  -0.562   8.403  1.00  0.00    -0.322 N 
HETATM   27  C   UNL     1       0.461  -1.897   8.795  1.00  0.00     0.048 A 
HETATM   28  H   UNL     1       1.151   0.076   8.965  1.00  0.00     0.169 HD
HETATM   29  C   UNL     1      -0.300  -2.766   8.001  1.00  0.00    -0.006 A 
HETATM   30  C   UNL     1       1.067  -2.338   9.971  1.00  0.00     0.070 A 
HETATM   31  C   UNL     1      -0.438  -4.102   8.389  1.00  0.00     0.053 A 
HETATM   32  C   UNL     1      -0.966  -2.237   6.808  1.00  0.00     0.027 A 
HETATM   33  C   UNL     1       0.172  -4.551   9.562  1.00  0.00     0.103 A 
HETATM   34  C   UNL     1       0.901  -3.663  10.363  1.00  0.00     0.104 A 
HETATM   35  O   UNL     1      -0.002  -5.874   9.878  1.00  0.00    -0.346 OA
HETATM   36  O   UNL     1       1.482  -4.028  11.551  1.00  0.00    -0.346 OA
HETATM   37  C   UNL     1       0.938  -5.261  12.037  1.00  0.00     0.202 C 
HETATM   38  C   UNL     1       0.888  -6.293  10.922  1.00  0.00     0.202 C 
ENDBRANCH  22  23
ENDBRANCH   1  22
TORSDOF 11
