REMARK  4 active torsions:
REMARK  status: ('A' for Active; 'I' for Inactive)
REMARK    1  A    between atoms: C_3  and  C_4 
REMARK    2  A    between atoms: C_5  and  C_6 
REMARK       I    between atoms: C_6  and  N_7 
REMARK    3  A    between atoms: N_7  and  C_8 
REMARK    4  A    between atoms: C_15  and  C_16 
REMARK       I    between atoms: C_16  and  N_17 
ROOT
HETATM    1  C   UNL     1       4.470   4.673  -2.890  1.00  0.00     0.035 A 
HETATM    2  C   UNL     1       4.439   4.481  -4.278  1.00  0.00     0.046 A 
HETATM    3  C   UNL     1       5.574   4.802  -5.054  1.00  0.00     0.030 A 
HETATM    4  C   UNL     1       6.702   5.303  -4.416  1.00  0.00     0.063 A 
HETATM    5  N   UNL     1       7.620   5.503  -5.409  1.00  0.00    -0.277 N 
HETATM    6  H   UNL     1       8.564   5.857  -5.309  1.00  0.00     0.189 HD
HETATM    7  N   UNL     1       7.188   5.185  -6.640  1.00  0.00    -0.168 NA
HETATM    8  C   UNL     1       5.922   4.750  -6.437  1.00  0.00     0.156 A 
HETATM    9  C   UNL     1       6.766   5.514  -3.038  1.00  0.00     0.034 A 
HETATM   10  C   UNL     1       5.626   5.192  -2.291  1.00  0.00     0.032 A 
ENDROOT
BRANCH   1  11
HETATM   11  N   UNL     1       3.396   4.349  -2.032  1.00  0.00    -0.327 N 
HETATM   12  C   UNL     1       2.209   3.746  -2.379  1.00  0.00     0.227 C 
HETATM   13  O   UNL     1       1.818   3.459  -3.500  1.00  0.00    -0.273 OA
HETATM   14  H   UNL     1       3.535   4.541  -1.051  1.00  0.00     0.169 HD
BRANCH  12  15
HETATM   15  C   UNL     1       1.319   3.396  -1.238  1.00  0.00     0.087 A 
HETATM   16  C   UNL     1       1.492   1.986  -0.675  1.00  0.00     0.034 A 
HETATM   17  C   UNL     1       1.710   3.195   0.198  1.00  0.00     0.025 A 
BRANCH  16  18
HETATM   18  C   UNL     1       0.280   1.089  -0.556  1.00  0.00    -0.031 A 
HETATM   19  C   UNL     1      -0.543   0.889  -1.683  1.00  0.00     0.009 A 
HETATM   20  C   UNL     1      -1.645   0.031  -1.650  1.00  0.00     0.001 A 
HETATM   21  C   UNL     1      -1.951  -0.661  -0.484  1.00  0.00     0.002 A 
HETATM   22  C   UNL     1      -1.151  -0.496   0.644  1.00  0.00     0.024 A 
HETATM   23  C   UNL     1      -0.046   0.363   0.606  1.00  0.00     0.040 A 
HETATM   24 CL   UNL     1       0.928   0.472   2.032  1.00  0.00    -0.084 Cl
ENDBRANCH  16  18
ENDBRANCH  12  15
ENDBRANCH   1  11
BRANCH   8  25
HETATM   25  C   UNL     1       5.083   4.300  -7.557  1.00  0.00     0.270 C 
HETATM   26  N   UNL     1       5.698   4.361  -8.777  1.00  0.00    -0.365 N 
HETATM   27  H   UNL     1       6.651   4.702  -8.824  1.00  0.00     0.159 HD
HETATM   28  H   UNL     1       5.196   4.076  -9.603  1.00  0.00     0.159 HD
HETATM   29  O   UNL     1       3.929   3.899  -7.450  1.00  0.00    -0.266 OA
ENDBRANCH   8  25
TORSDOF 4
