REMARK  6 active torsions:
REMARK  status: ('A' for Active; 'I' for Inactive)
REMARK    1  A    between atoms: C_5  and  N_6 
REMARK       I    between atoms: N_6  and  C_7 
REMARK    2  A    between atoms: C_7  and  C_8 
REMARK    3  A    between atoms: C_8  and  N_9 
REMARK    4  A    between atoms: C_8  and  C_17 
REMARK       I    between atoms: N_9  and  C_10 
REMARK    5  A    between atoms: C_10  and  C_11 
REMARK    6  A    between atoms: C_17  and  C_18 
ROOT
HETATM    1  C   UNL     1       6.629  -2.374  -0.262  1.00  0.00     0.181 C 
ENDROOT
BRANCH   1   2
HETATM    2  C   UNL     1       6.956  -0.936  -0.731  1.00  0.00     0.245 C 
HETATM    3  N   UNL     1       6.704   0.042   0.212  1.00  0.00    -0.325 N 
HETATM    4  H   UNL     1       6.499  -0.289   1.155  1.00  0.00     0.169 HD
HETATM    5  O   UNL     1       7.424  -0.751  -1.854  1.00  0.00    -0.271 OA
BRANCH   3   6
HETATM    6  C   UNL     1       6.747   1.439   0.044  1.00  0.00     0.034 A 
HETATM    7  C   UNL     1       7.046   2.074  -1.161  1.00  0.00     0.030 A 
HETATM    8  C   UNL     1       7.036   3.471  -1.250  1.00  0.00     0.009 A 
HETATM    9  C   UNL     1       6.729   4.256  -0.134  1.00  0.00    -0.062 A 
HETATM   10  C   UNL     1       6.670   5.750  -0.245  1.00  0.00     0.048 C 
HETATM   11  C   UNL     1       6.416   3.620   1.070  1.00  0.00     0.009 A 
HETATM   12  C   UNL     1       6.433   2.224   1.159  1.00  0.00     0.030 A 
ENDBRANCH   3   6
ENDBRANCH   1   2
BRANCH   1  13
HETATM   13  N   UNL     1       7.624  -2.842   0.711  1.00  0.00    -0.342 N 
HETATM   14  C   UNL     1       7.684  -2.435   2.023  1.00  0.00     0.276 C 
HETATM   15  O   UNL     1       6.960  -1.541   2.459  1.00  0.00    -0.265 OA
HETATM   16  H   UNL     1       8.278  -3.562   0.423  1.00  0.00     0.163 HD
BRANCH  14  17
HETATM   17  C   UNL     1       8.651  -3.152   2.825  1.00  0.00     0.142 A 
HETATM   18  O   UNL     1       9.390  -4.156   2.251  1.00  0.00    -0.317 OA
HETATM   19  C   UNL     1      10.189  -4.669   3.222  1.00  0.00     0.143 A 
HETATM   20  C   UNL     1       9.983  -4.015   4.413  1.00  0.00     0.027 A 
HETATM   21  C   UNL     1       8.993  -3.035   4.159  1.00  0.00     0.045 A 
ENDBRANCH  14  17
ENDBRANCH   1  13
BRANCH   1  22
HETATM   22  C   UNL     1       5.183  -2.559   0.229  1.00  0.00     0.075 C 
BRANCH  22  23
HETATM   23  C   UNL     1       4.095  -2.427  -0.798  1.00  0.00    -0.028 A 
HETATM   24  C   UNL     1       2.714  -2.743  -0.560  1.00  0.00    -0.002 A 
HETATM   25  C   UNL     1       2.006  -2.455  -1.726  1.00  0.00     0.042 A 
HETATM   26  C   UNL     1       2.003  -3.239   0.552  1.00  0.00     0.014 A 
HETATM   27  C   UNL     1       0.622  -2.636  -1.836  1.00  0.00     0.030 A 
HETATM   28  N   UNL     1       2.915  -1.989  -2.643  1.00  0.00    -0.365 N 
HETATM   29  C   UNL     1      -0.058  -3.130  -0.719  1.00  0.00     0.002 A 
HETATM   30  C   UNL     1       0.620  -3.430   0.459  1.00  0.00     0.001 A 
HETATM   31  H   UNL     1       2.684  -1.690  -3.580  1.00  0.00     0.165 HD
HETATM   32  C   UNL     1       4.174  -1.974  -2.100  1.00  0.00     0.096 A 
ENDBRANCH  22  23
ENDBRANCH   1  22
TORSDOF 6
