REMARK  7 active torsions:
REMARK  status: ('A' for Active; 'I' for Inactive)
REMARK    1  A    between atoms: C_4  and  N_5 
REMARK    2  A    between atoms: C_6  and  S_7 
REMARK    3  A    between atoms: S_7  and  C_8 
REMARK    4  A    between atoms: C_8  and  C_9 
REMARK       I    between atoms: C_9  and  N_10 
REMARK    5  A    between atoms: N_10  and  C_11 
REMARK    6  A    between atoms: C_14  and  C_15 
REMARK       I    between atoms: C_15  and  N_16 
REMARK    7  A    between atoms: C_23  and  C_24 
ROOT
HETATM    1  N   UNL     1       5.249   2.301   0.027  1.00  0.00    -0.271 N 
HETATM    2  C   UNL     1       5.017   3.590   0.487  1.00  0.00     0.197 A 
HETATM    3  N   UNL     1       5.824   4.438  -0.105  1.00  0.00    -0.122 NA
HETATM    4  N   UNL     1       6.617   3.730  -0.962  1.00  0.00    -0.128 NA
HETATM    5  C   UNL     1       6.331   2.446  -0.839  1.00  0.00     0.171 A 
ENDROOT
BRANCH   2   6
HETATM    6  S   UNL     1       3.718   4.074   1.534  1.00  0.00    -0.080 SA
BRANCH   6   7
HETATM    7  C   UNL     1       3.845   5.886   1.406  1.00  0.00     0.185 C 
BRANCH   7   8
HETATM    8  C   UNL     1       2.745   6.562   2.213  1.00  0.00     0.231 C 
HETATM    9  N   UNL     1       2.706   6.158   3.539  1.00  0.00    -0.327 N 
HETATM   10  H   UNL     1       3.347   5.414   3.791  1.00  0.00     0.169 HD
HETATM   11  O   UNL     1       2.032   7.421   1.701  1.00  0.00    -0.272 OA
BRANCH   9  12
HETATM   12  C   UNL     1       1.825   6.591   4.550  1.00  0.00     0.034 A 
HETATM   13  C   UNL     1       0.845   7.568   4.368  1.00  0.00     0.030 A 
HETATM   14  C   UNL     1      -0.004   7.936   5.422  1.00  0.00     0.019 A 
HETATM   15  C   UNL     1       0.126   7.333   6.677  1.00  0.00     0.032 A 
HETATM   16  C   UNL     1       1.102   6.347   6.860  1.00  0.00     0.019 A 
HETATM   17  C   UNL     1       1.947   5.983   5.805  1.00  0.00     0.030 A 
BRANCH  15  18
HETATM   18  C   UNL     1      -0.751   7.677   7.828  1.00  0.00     0.249 C 
HETATM   19  N   UNL     1      -1.422   8.867   7.787  1.00  0.00    -0.366 N 
HETATM   20  H   UNL     1      -1.215   9.599   7.124  1.00  0.00     0.159 HD
HETATM   21  H   UNL     1      -1.941   9.119   8.619  1.00  0.00     0.159 HD
HETATM   22  O   UNL     1      -0.852   6.938   8.800  1.00  0.00    -0.268 OA
ENDBRANCH  15  18
ENDBRANCH   9  12
ENDBRANCH   7   8
ENDBRANCH   6   7
ENDBRANCH   2   6
BRANCH   1  23
HETATM   23  C   UNL     1       4.477   1.133   0.269  1.00  0.00     0.044 A 
HETATM   24  C   UNL     1       4.068   0.802   1.567  1.00  0.00     0.037 A 
HETATM   25  C   UNL     1       3.297  -0.347   1.794  1.00  0.00    -0.060 A 
HETATM   26  C   UNL     1       2.826  -0.693   3.176  1.00  0.00     0.048 C 
HETATM   27  C   UNL     1       2.922  -1.146   0.707  1.00  0.00     0.007 A 
HETATM   28  C   UNL     1       3.327  -0.817  -0.586  1.00  0.00     0.003 A 
HETATM   29  C   UNL     1       4.103   0.319  -0.809  1.00  0.00     0.030 A 
ENDBRANCH   1  23
BRANCH   5  30
HETATM   30  C   UNL     1       7.173   1.389  -1.489  1.00  0.00     0.040 A 
HETATM   31  C   UNL     1       8.076   1.579  -2.583  1.00  0.00     0.006 A 
HETATM   32  C   UNL     1       8.662   0.340  -2.853  1.00  0.00     0.043 A 
HETATM   33  C   UNL     1       8.441   2.678  -3.390  1.00  0.00     0.015 A 
HETATM   34  C   UNL     1       9.589   0.146  -3.884  1.00  0.00     0.030 A 
HETATM   35  N   UNL     1       8.156  -0.556  -1.941  1.00  0.00    -0.364 N 
HETATM   36  C   UNL     1       9.929   1.252  -4.668  1.00  0.00     0.002 A 
HETATM   37  C   UNL     1       9.365   2.501  -4.426  1.00  0.00     0.001 A 
HETATM   38  H   UNL     1       8.420  -1.530  -1.890  1.00  0.00     0.165 HD
HETATM   39  C   UNL     1       7.264   0.067  -1.107  1.00  0.00     0.104 A 
ENDBRANCH   5  30
TORSDOF 7
