REMARK  5 active torsions:
REMARK  status: ('A' for Active; 'I' for Inactive)
REMARK    1  A    between atoms: C_2  and  O_3 
REMARK    2  A    between atoms: O_3  and  C_4 
REMARK    3  A    between atoms: C_5  and  C_6 
REMARK       I    between atoms: C_6  and  N_7 
REMARK    4  A    between atoms: N_7  and  N_8 
REMARK    5  A    between atoms: C_9  and  C_10 
ROOT
HETATM    1  C   UNL     1       4.161   2.715  -1.839  1.00  0.00     0.274 C 
HETATM    2  N   UNL     1       2.780   2.614  -1.846  1.00  0.00    -0.243 N 
HETATM    3  O   UNL     1       4.783   3.775  -1.858  1.00  0.00    -0.266 OA
HETATM    4  H   UNL     1       2.341   1.698  -1.811  1.00  0.00     0.192 HD
ENDROOT
BRANCH   2   5
HETATM    5  N   UNL     1       2.027   3.737  -2.026  1.00  0.00    -0.183 NA
HETATM    6  C   UNL     1       0.749   3.563  -2.120  1.00  0.00     0.152 C 
BRANCH   6   7
HETATM    7  C   UNL     1      -0.098   4.710  -2.375  1.00  0.00     0.011 A 
HETATM    8  C   UNL     1      -1.520   4.735  -2.549  1.00  0.00     0.004 A 
HETATM    9  C   UNL     1      -1.885   6.059  -2.807  1.00  0.00     0.043 A 
HETATM   10  C   UNL     1      -2.536   3.756  -2.523  1.00  0.00     0.014 A 
HETATM   11  C   UNL     1      -3.208   6.451  -3.043  1.00  0.00     0.030 A 
HETATM   12  N   UNL     1      -0.735   6.812  -2.780  1.00  0.00    -0.364 N 
HETATM   13  C   UNL     1      -4.193   5.460  -3.013  1.00  0.00     0.002 A 
HETATM   14  C   UNL     1      -3.865   4.132  -2.755  1.00  0.00     0.001 A 
HETATM   15  H   UNL     1      -0.694   7.809  -2.937  1.00  0.00     0.165 HD
HETATM   16  C   UNL     1       0.343   6.013  -2.521  1.00  0.00     0.102 A 
ENDBRANCH   6   7
ENDBRANCH   2   5
BRANCH   1  17
HETATM   17  C   UNL     1       4.925   1.429  -1.875  1.00  0.00     0.068 A 
HETATM   18  C   UNL     1       4.400   0.178  -1.497  1.00  0.00     0.084 A 
HETATM   19  C   UNL     1       5.194  -0.970  -1.637  1.00  0.00     0.039 A 
HETATM   20  C   UNL     1       6.507  -0.877  -2.107  1.00  0.00     0.022 A 
HETATM   21  C   UNL     1       7.033   0.365  -2.445  1.00  0.00     0.012 A 
HETATM   22  C   UNL     1       6.253   1.511  -2.333  1.00  0.00     0.039 A 
HETATM   23 BR   UNL     1       8.808   0.490  -3.081  1.00  0.00    -0.051 Br
BRANCH  18  24
HETATM   24  O   UNL     1       3.107   0.123  -1.036  1.00  0.00    -0.350 OA
BRANCH  24  25
HETATM   25  C   UNL     1       2.831  -0.914  -0.086  1.00  0.00     0.171 C 
HETATM   26  C   UNL     1       1.557  -0.549   0.654  1.00  0.00     0.034 C 
ENDBRANCH  24  25
ENDBRANCH  18  24
ENDBRANCH   1  17
TORSDOF 5
