REMARK  5 active torsions:
REMARK  status: ('A' for Active; 'I' for Inactive)
REMARK    1  A    between atoms: C_4  and  C_5 
REMARK    2  A    between atoms: C_6  and  N_7 
REMARK    3  A    between atoms: C_9  and  C_10 
REMARK       I    between atoms: C_10  and  N_11 
REMARK    4  A    between atoms: N_11  and  C_12 
REMARK    5  A    between atoms: C_12  and  C_13 
ROOT
HETATM    1  C   UNL     1       4.730  -0.635   0.463  1.00  0.00     0.019 A 
HETATM    2  C   UNL     1       3.437  -0.938   0.169  1.00  0.00     0.111 A 
HETATM    3  C   UNL     1       2.365   0.128   0.379  1.00  0.00     0.273 A 
HETATM    4  O   UNL     1       1.170  -0.081   0.167  1.00  0.00    -0.266 OA
HETATM    5  N   UNL     1       2.761   1.355   0.826  1.00  0.00    -0.321 N 
HETATM    6  C   UNL     1       4.082   1.691   1.101  1.00  0.00     0.046 A 
HETATM    7  C   UNL     1       5.085   0.732   0.933  1.00  0.00     0.006 A 
HETATM    8  C   UNL     1       4.377   2.987   1.532  1.00  0.00     0.032 A 
HETATM    9  C   UNL     1       5.699   3.344   1.793  1.00  0.00     0.026 A 
HETATM   10  C   UNL     1       6.711   2.402   1.623  1.00  0.00     0.035 A 
HETATM   11 CL   UNL     1       8.345   2.844   1.935  1.00  0.00    -0.084 Cl
HETATM   12  C   UNL     1       6.412   1.107   1.198  1.00  0.00     0.038 A 
HETATM   13  H   UNL     1       2.019   2.029   0.947  1.00  0.00     0.169 HD
ENDROOT
BRANCH   2  14
HETATM   14  N   UNL     1       3.010  -2.194  -0.326  1.00  0.00    -0.375 N 
HETATM   15  C   UNL     1       2.139  -2.247  -1.517  1.00  0.00     0.137 C 
HETATM   16  C   UNL     1       2.316  -3.574  -2.266  1.00  0.00     0.096 C 
HETATM   17  C   UNL     1       2.082  -4.753  -1.306  1.00  0.00     0.017 C 
HETATM   18  C   UNL     1       2.894  -4.621  -0.015  1.00  0.00     0.021 C 
HETATM   19  C   UNL     1       2.693  -3.257   0.642  1.00  0.00     0.123 C 
BRANCH  16  20
HETATM   20  C   UNL     1       3.661  -3.674  -2.991  1.00  0.00     0.223 C 
HETATM   21  N   UNL     1       3.948  -2.614  -3.823  1.00  0.00    -0.358 N 
HETATM   22  H   UNL     1       3.215  -1.970  -4.090  1.00  0.00     0.162 HD
HETATM   23  O   UNL     1       4.397  -4.655  -2.913  1.00  0.00    -0.273 OA
BRANCH  21  24
HETATM   24  C   UNL     1       5.181  -2.536  -4.586  1.00  0.00     0.154 C 
BRANCH  24  25
HETATM   25  C   UNL     1       4.980  -2.947  -6.042  1.00  0.00     0.139 C 
HETATM   26  O   UNL     1       4.049  -2.048  -6.686  1.00  0.00    -0.384 OA
HETATM   27  C   UNL     1       4.531  -1.770  -8.010  1.00  0.00     0.168 C 
HETATM   28  C   UNL     1       5.731  -2.662  -8.247  1.00  0.00     0.029 C 
HETATM   29  C   UNL     1       6.263  -2.861  -6.852  1.00  0.00     0.035 C 
ENDBRANCH  24  25
ENDBRANCH  21  24
ENDBRANCH  16  20
ENDBRANCH   2  14
BRANCH   1  30
HETATM   30  C   UNL     1       5.755  -1.690   0.254  1.00  0.00    -0.023 A 
HETATM   31  C   UNL     1       6.307  -1.898  -1.016  1.00  0.00     0.012 A 
HETATM   32  C   UNL     1       7.287  -2.872  -1.208  1.00  0.00     0.001 A 
HETATM   33  C   UNL     1       7.726  -3.642  -0.132  1.00  0.00     0.000 A 
HETATM   34  C   UNL     1       7.188  -3.437   1.138  1.00  0.00     0.001 A 
HETATM   35  C   UNL     1       6.208  -2.462   1.333  1.00  0.00     0.012 A 
ENDBRANCH   1  30
TORSDOF 5
