REMARK  3 active torsions:
REMARK  status: ('A' for Active; 'I' for Inactive)
REMARK    1  A    between atoms: C_5  and  C_6 
REMARK       I    between atoms: C_6  and  N_7 
REMARK    2  A    between atoms: N_7  and  C_8 
REMARK    3  A    between atoms: C_15  and  C_16 
REMARK       I    between atoms: C_16  and  N_17 
ROOT
HETATM    1  C   UNL     1      -1.133   2.049   4.137  1.00  0.00     0.035 A 
HETATM    2  C   UNL     1      -1.445   1.031   5.054  1.00  0.00     0.046 A 
HETATM    3  C   UNL     1      -1.435   1.305   6.437  1.00  0.00     0.030 A 
HETATM    4  C   UNL     1      -1.113   2.586   6.861  1.00  0.00     0.063 A 
HETATM    5  N   UNL     1      -1.181   2.544   8.226  1.00  0.00    -0.277 N 
HETATM    6  H   UNL     1      -1.002   3.305   8.872  1.00  0.00     0.189 HD
HETATM    7  N   UNL     1      -1.527   1.347   8.729  1.00  0.00    -0.168 NA
HETATM    8  C   UNL     1      -1.688   0.571   7.633  1.00  0.00     0.156 A 
HETATM    9  C   UNL     1      -0.802   3.622   5.980  1.00  0.00     0.034 A 
HETATM   10  C   UNL     1      -0.822   3.327   4.609  1.00  0.00     0.032 A 
ENDROOT
BRANCH   1  11
HETATM   11  N   UNL     1      -1.156   1.699   2.771  1.00  0.00    -0.326 N 
HETATM   12  C   UNL     1      -0.831   2.495   1.676  1.00  0.00     0.240 C 
HETATM   13  O   UNL     1      -0.482   3.671   1.738  1.00  0.00    -0.272 OA
HETATM   14  H   UNL     1      -1.345   0.723   2.564  1.00  0.00     0.169 HD
BRANCH  12  15
HETATM   15  C   UNL     1      -0.992   1.741   0.331  1.00  0.00     0.172 C 
HETATM   16  C   UNL     1      -0.727   2.616  -0.886  1.00  0.00    -0.029 A 
HETATM   17  C   UNL     1       0.500   2.639  -1.582  1.00  0.00    -0.050 A 
HETATM   18  C   UNL     1      -1.758   3.483  -1.304  1.00  0.00     0.009 A 
HETATM   19  C   UNL     1       0.652   3.507  -2.679  1.00  0.00     0.007 A 
HETATM   20  C   UNL     1       1.657   1.718  -1.261  1.00  0.00     0.049 C 
HETATM   21  C   UNL     1      -0.381   4.354  -3.077  1.00  0.00     0.001 A 
HETATM   22  C   UNL     1      -1.587   4.343  -2.389  1.00  0.00     0.001 A 
HETATM   23  C   UNL     1       1.626   1.046   0.105  1.00  0.00     0.080 C 
HETATM   24  S   UNL     1       0.034   0.220   0.363  1.00  0.00    -0.149 SA
ENDBRANCH  12  15
ENDBRANCH   1  11
BRANCH   8  25
HETATM   25  C   UNL     1      -2.079  -0.841   7.743  1.00  0.00     0.270 C 
HETATM   26  N   UNL     1      -2.256  -1.273   9.029  1.00  0.00    -0.365 N 
HETATM   27  H   UNL     1      -2.114  -0.614   9.786  1.00  0.00     0.159 HD
HETATM   28  H   UNL     1      -2.530  -2.226   9.206  1.00  0.00     0.159 HD
HETATM   29  O   UNL     1      -2.243  -1.592   6.787  1.00  0.00    -0.266 OA
ENDBRANCH   8  25
TORSDOF 3
