REMARK  8 active torsions:
REMARK  status: ('A' for Active; 'I' for Inactive)
REMARK    1  A    between atoms: C_2  and  C_3 
REMARK    2  A    between atoms: C_3  and  N_4 
REMARK    3  A    between atoms: N_4  and  C_5 
REMARK    4  A    between atoms: C_7  and  N_8 
REMARK    5  A    between atoms: N_8  and  C_9 
REMARK    6  A    between atoms: C_9  and  C_10 
REMARK    7  A    between atoms: C_10  and  C_11 
REMARK    8  A    between atoms: C_14  and  O_15 
ROOT
HETATM    1  C   UNL     1       5.376  -2.544   1.305  1.00  0.00     0.119 A 
HETATM    2  N   UNL     1       4.744  -3.725   1.165  1.00  0.00    -0.207 NA
HETATM    3  C   UNL     1       5.490  -4.835   1.190  1.00  0.00     0.181 A 
HETATM    4  N   UNL     1       6.812  -4.827   1.316  1.00  0.00    -0.330 N 
HETATM    5  H   UNL     1       7.288  -5.717   1.249  1.00  0.00     0.168 HD
HETATM    6  C   UNL     1       7.485  -3.685   1.487  1.00  0.00     0.048 A 
HETATM    7  C   UNL     1       6.774  -2.469   1.502  1.00  0.00     0.031 A 
HETATM    8  C   UNL     1       8.877  -3.708   1.658  1.00  0.00     0.030 A 
HETATM    9  C   UNL     1       9.576  -2.519   1.861  1.00  0.00     0.002 A 
HETATM   10  C   UNL     1       8.891  -1.308   1.896  1.00  0.00     0.001 A 
HETATM   11  C   UNL     1       7.506  -1.279   1.718  1.00  0.00     0.017 A 
ENDROOT
BRANCH   3  12
HETATM   12  N   UNL     1       4.841  -6.050   1.011  1.00  0.00    -0.262 NA
HETATM   13  H   UNL     1       3.854  -5.797   0.894  1.00  0.00     0.130 HD
BRANCH  12  14
HETATM   14  C   UNL     1       5.006  -6.998   2.118  1.00  0.00     0.100 C 
BRANCH  14  15
HETATM   15  C   UNL     1       4.081  -8.207   1.931  1.00  0.00     0.053 C 
BRANCH  15  16
HETATM   16  C   UNL     1       4.434  -9.320   2.885  1.00  0.00    -0.057 A 
HETATM   17  C   UNL     1       4.189  -9.193   4.257  1.00  0.00     0.010 A 
HETATM   18  C   UNL     1       4.557 -10.215   5.135  1.00  0.00     0.037 A 
HETATM   19  C   UNL     1       5.161 -11.381   4.662  1.00  0.00     0.068 A 
HETATM   20  C   UNL     1       5.398 -11.518   3.295  1.00  0.00     0.037 A 
HETATM   21  C   UNL     1       5.037 -10.493   2.413  1.00  0.00     0.010 A 
BRANCH  19  22
HETATM   22  O   UNL     1       5.473 -12.296   5.628  1.00  0.00    -0.356 OA
HETATM   23  C   UNL     1       5.973 -13.554   5.189  1.00  0.00     0.210 C 
ENDBRANCH  19  22
ENDBRANCH  15  16
ENDBRANCH  14  15
ENDBRANCH  12  14
ENDBRANCH   3  12
BRANCH   1  24
HETATM   24  N   UNL     1       4.619  -1.365   1.309  1.00  0.00    -0.277 NA
HETATM   25  H   UNL     1       5.009  -0.682   0.662  1.00  0.00     0.129 HD
BRANCH  24  26
HETATM   26  C   UNL     1       3.174  -1.507   1.125  1.00  0.00     0.093 C 
BRANCH  26  27
HETATM   27  C   UNL     1       2.500  -0.135   1.181  1.00  0.00     0.010 C 
HETATM   28  C   UNL     1       2.613   0.523   2.549  1.00  0.00     0.006 C 
ENDBRANCH  26  27
ENDBRANCH  24  26
ENDBRANCH   1  24
TORSDOF 8
