REMARK  6 active torsions:
REMARK  status: ('A' for Active; 'I' for Inactive)
REMARK    1  A    between atoms: O_2  and  C_3 
REMARK    2  A    between atoms: C_6  and  C_7 
REMARK    3  A    between atoms: C_12  and  C_13 
REMARK       I    between atoms: C_13  and  N_14 
REMARK    4  A    between atoms: N_14  and  C_15 
REMARK    5  A    between atoms: C_17  and  O_18 
REMARK    6  A    between atoms: C_24  and  C_25 
ROOT
HETATM    1  C   UNL     1       4.650   2.219  -5.292  1.00  0.00     0.118 C 
HETATM    2  N   UNL     1       3.448   1.867  -6.046  1.00  0.00    -0.366 N 
HETATM    3  C   UNL     1       2.600   2.794  -6.535  1.00  0.00     0.123 A 
HETATM    4  N   UNL     1       2.695   4.105  -6.166  1.00  0.00    -0.240 N 
HETATM    5  N   UNL     1       1.879   4.929  -6.848  1.00  0.00    -0.165 NA
HETATM    6  C   UNL     1       1.161   4.080  -7.623  1.00  0.00     0.148 A 
HETATM    7  C   UNL     1       1.565   2.730  -7.427  1.00  0.00     0.089 A 
HETATM    8  C   UNL     1       3.698   4.593  -5.240  1.00  0.00     0.221 C 
HETATM    9  C   UNL     1       4.961   3.730  -5.376  1.00  0.00     0.066 C 
HETATM   10  H   UNL     1       3.373   0.886  -6.316  1.00  0.00     0.161 HD
ENDROOT
BRANCH   6  11
HETATM   11  C   UNL     1       0.138   4.557  -8.572  1.00  0.00     0.276 C 
HETATM   12  N   UNL     1       0.044   5.935  -8.575  1.00  0.00    -0.322 N 
HETATM   13  H   UNL     1       0.664   6.382  -7.904  1.00  0.00     0.169 HD
HETATM   14  O   UNL     1      -0.505   3.776  -9.265  1.00  0.00    -0.266 OA
BRANCH  12  15
HETATM   15  C   UNL     1      -0.753   6.754  -9.393  1.00  0.00     0.037 A 
HETATM   16  C   UNL     1      -1.616   6.264 -10.376  1.00  0.00     0.066 A 
HETATM   17  C   UNL     1      -2.356   7.154 -11.154  1.00  0.00     0.067 A 
HETATM   18  C   UNL     1      -2.253   8.526 -10.968  1.00  0.00     0.036 A 
HETATM   19  C   UNL     1      -1.396   9.022  -9.989  1.00  0.00     0.005 A 
HETATM   20  C   UNL     1      -0.649   8.139  -9.205  1.00  0.00     0.029 A 
BRANCH  17  21
HETATM   21  O   UNL     1      -3.205   6.707 -12.125  1.00  0.00    -0.361 OA
HETATM   22  H   UNL     1      -3.176   5.735 -12.133  1.00  0.00     0.217 HD
ENDBRANCH  17  21
ENDBRANCH  12  15
ENDBRANCH   6  11
BRANCH   8  23
HETATM   23  C   UNL     1       3.146   4.606  -3.833  1.00  0.00     0.409 C 
HETATM   24  F   UNL     1       2.083   5.430  -3.706  1.00  0.00    -0.169 F 
HETATM   25  F   UNL     1       2.782   3.388  -3.383  1.00  0.00    -0.169 F 
HETATM   26  F   UNL     1       4.095   5.068  -2.976  1.00  0.00    -0.169 F 
ENDBRANCH   8  23
BRANCH   1  27
HETATM   27  C   UNL     1       5.814   1.399  -5.823  1.00  0.00    -0.035 A 
HETATM   28  C   UNL     1       6.164   1.438  -7.185  1.00  0.00     0.012 A 
HETATM   29  C   UNL     1       7.243   0.698  -7.676  1.00  0.00     0.037 A 
HETATM   30  C   UNL     1       7.992  -0.100  -6.813  1.00  0.00     0.068 A 
HETATM   31  C   UNL     1       7.637  -0.164  -5.464  1.00  0.00     0.037 A 
HETATM   32  C   UNL     1       6.561   0.580  -4.968  1.00  0.00     0.012 A 
BRANCH  30  33
HETATM   33  O   UNL     1       9.070  -0.865  -7.164  1.00  0.00    -0.356 OA
HETATM   34  C   UNL     1       9.588  -0.671  -8.475  1.00  0.00     0.210 C 
ENDBRANCH  30  33
ENDBRANCH   1  27
TORSDOF 6
