REMARK  7 active torsions:
REMARK  status: ('A' for Active; 'I' for Inactive)
REMARK    1  A    between atoms: C_11  and  N_12 
REMARK       I    between atoms: N_12  and  C_13 
REMARK    2  A    between atoms: C_13  and  C_14 
REMARK    3  A    between atoms: C_14  and  S_15 
REMARK    4  A    between atoms: S_15  and  C_16 
REMARK    5  A    between atoms: N_17  and  C_18 
REMARK    6  A    between atoms: C_18  and  C_19 
REMARK    7  A    between atoms: C_25  and  C_26 
ROOT
HETATM    1  N   UNL     1       9.636   0.520  -0.654  1.00  0.00    -0.326 N 
HETATM    2  C   UNL     1       9.630  -0.109   0.582  1.00  0.00     0.231 C 
HETATM    3  O   UNL     1      10.562  -0.127   1.382  1.00  0.00    -0.272 OA
HETATM    4  H   UNL     1       8.850   0.309  -1.259  1.00  0.00     0.169 HD
ENDROOT
BRANCH   2   5
HETATM    5  C   UNL     1       8.296  -0.743   0.943  1.00  0.00     0.185 C 
BRANCH   5   6
HETATM    6  S   UNL     1       7.702  -1.866  -0.362  1.00  0.00    -0.081 SA
BRANCH   6   7
HETATM    7  C   UNL     1       6.288  -2.490   0.424  1.00  0.00     0.192 A 
HETATM    8  N   UNL     1       5.522  -3.539  -0.029  1.00  0.00    -0.307 N 
HETATM    9  C   UNL     1       4.527  -3.688   0.916  1.00  0.00     0.135 A 
HETATM   10  N   UNL     1       4.705  -2.780   1.859  1.00  0.00    -0.134 NA
HETATM   11  N   UNL     1       5.795  -2.023   1.544  1.00  0.00    -0.123 NA
BRANCH   8  12
HETATM   12  C   UNL     1       5.821  -4.375  -1.177  1.00  0.00     0.171 C 
BRANCH  12  13
HETATM   13  C   UNL     1       4.976  -4.097  -2.398  1.00  0.00    -0.040 A 
HETATM   14  C   UNL     1       4.506  -2.816  -2.727  1.00  0.00     0.009 A 
HETATM   15  C   UNL     1       3.741  -2.612  -3.878  1.00  0.00     0.001 A 
HETATM   16  C   UNL     1       3.452  -3.677  -4.726  1.00  0.00     0.000 A 
HETATM   17  C   UNL     1       3.933  -4.949  -4.430  1.00  0.00     0.001 A 
HETATM   18  C   UNL     1       4.695  -5.157  -3.278  1.00  0.00     0.009 A 
ENDBRANCH  12  13
ENDBRANCH   8  12
BRANCH   9  19
HETATM   19  C   UNL     1       3.341  -4.635   1.060  1.00  0.00     0.057 A 
HETATM   20  C   UNL     1       2.442  -4.929  -0.118  1.00  0.00     0.013 A 
HETATM   21  C   UNL     1       3.283  -6.017   0.461  1.00  0.00     0.013 A 
ENDBRANCH   9  19
ENDBRANCH   6   7
ENDBRANCH   5   6
ENDBRANCH   2   5
BRANCH   1  22
HETATM   22  C   UNL     1      10.659   1.326  -1.196  1.00  0.00     0.037 A 
HETATM   23  C   UNL     1      11.761   1.774  -0.462  1.00  0.00     0.032 A 
HETATM   24  C   UNL     1      12.728   2.593  -1.055  1.00  0.00     0.041 A 
HETATM   25  C   UNL     1      12.612   2.957  -2.392  1.00  0.00     0.096 A 
HETATM   26  O   UNL     1      13.585   3.777  -2.886  1.00  0.00    -0.335 OA
HETATM   27  C   UNL     1      11.515   2.518  -3.132  1.00  0.00     0.070 A 
HETATM   28  C   UNL     1      13.625   3.882  -4.307  1.00  0.00     0.217 C 
HETATM   29  C   UNL     1      14.720   2.948  -4.818  1.00  0.00     0.050 C 
HETATM   30  C   UNL     1      12.338   3.634  -5.106  1.00  0.00     0.251 C 
HETATM   31  N   UNL     1      11.378   2.899  -4.466  1.00  0.00    -0.323 N 
HETATM   32  O   UNL     1      12.185   3.996  -6.271  1.00  0.00    -0.270 OA
HETATM   33  H   UNL     1      10.553   2.664  -5.001  1.00  0.00     0.169 HD
HETATM   34  C   UNL     1      10.535   1.715  -2.537  1.00  0.00     0.062 A 
ENDBRANCH   1  22
TORSDOF 7
