REMARK  5 active torsions:
REMARK  status: ('A' for Active; 'I' for Inactive)
REMARK    1  A    between atoms: C_8  and  N_9 
REMARK    2  A    between atoms: N_9  and  C_10 
REMARK    3  A    between atoms: C_10  and  C_11 
REMARK    4  A    between atoms: C_11  and  N_12 
REMARK       I    between atoms: N_12  and  C_13 
REMARK    5  A    between atoms: C_13  and  C_14 
ROOT
HETATM    1  C   UNL     1       0.671   0.035   0.021  1.00  0.00     0.048 C 
HETATM    2  C   UNL     1       2.172   0.012   0.091  1.00  0.00    -0.061 A 
HETATM    3  C   UNL     1       2.868  -1.205   0.112  1.00  0.00     0.020 A 
HETATM    4  C   UNL     1       4.272  -1.228   0.154  1.00  0.00    -0.008 A 
HETATM    5  C   UNL     1       4.976  -0.010   0.164  1.00  0.00     0.043 A 
HETATM    6  N   UNL     1       6.318  -0.030   0.212  1.00  0.00    -0.346 N 
HETATM    7  H   UNL     1       6.791   0.866   0.206  1.00  0.00     0.167 HD
HETATM    8  C   UNL     1       7.066  -1.146   0.271  1.00  0.00     0.086 A 
HETATM    9  C   UNL     1       6.406  -2.389   0.215  1.00  0.00    -0.023 A 
HETATM   10  C   UNL     1       7.157  -3.693   0.238  1.00  0.00     0.052 C 
HETATM   11  C   UNL     1       5.005  -2.418   0.180  1.00  0.00     0.023 A 
HETATM   12  C   UNL     1       4.284   1.206   0.126  1.00  0.00     0.031 A 
HETATM   13  C   UNL     1       2.889   1.214   0.087  1.00  0.00     0.009 A 
ENDROOT
BRANCH   8  14
HETATM   14  N   UNL     1       8.463  -1.074   0.298  1.00  0.00    -0.277 NA
HETATM   15  H   UNL     1       8.852  -1.748   0.960  1.00  0.00     0.129 HD
BRANCH  14  16
HETATM   16  C   UNL     1       9.095   0.241   0.399  1.00  0.00     0.113 C 
BRANCH  16  17
HETATM   17  C   UNL     1      10.627   0.181   0.342  1.00  0.00     0.137 C 
BRANCH  17  18
HETATM   18  N   UNL     1      11.323   1.453   0.518  1.00  0.00    -0.360 N 
HETATM   19  C   UNL     1      10.738   2.704   0.483  1.00  0.00     0.221 C 
HETATM   20  O   UNL     1       9.524   2.874   0.394  1.00  0.00    -0.273 OA
HETATM   21  H   UNL     1      12.335   1.411   0.570  1.00  0.00     0.162 HD
BRANCH  19  22
HETATM   22  C   UNL     1      11.737   3.857   0.576  1.00  0.00     0.070 C 
HETATM   23  C   UNL     1      12.593   3.925  -0.687  1.00  0.00     0.019 C 
HETATM   24  C   UNL     1      11.015   5.186   0.798  1.00  0.00     0.019 C 
ENDBRANCH  19  22
ENDBRANCH  17  18
ENDBRANCH  16  17
ENDBRANCH  14  16
ENDBRANCH   8  14
TORSDOF 5
