REMARK  8 active torsions:
REMARK  status: ('A' for Active; 'I' for Inactive)
REMARK    1  A    between atoms: C_2  and  C_3 
REMARK    2  A    between atoms: C_3  and  O_4 
REMARK    3  A    between atoms: O_4  and  C_5 
REMARK    4  A    between atoms: C_8  and  C_9 
REMARK    5  A    between atoms: N_10  and  C_11 
REMARK    6  A    between atoms: C_11  and  C_12 
REMARK    7  A    between atoms: C_25  and  C_26 
REMARK    8  A    between atoms: C_27  and  O_28 
ROOT
HETATM    1  C   UNL     1       7.480   4.072  -4.345  1.00  0.00     0.159 A 
HETATM    2  N   UNL     1       8.936   4.207  -4.062  1.00  0.00    -0.329 N 
HETATM    3  C   UNL     1       9.386   5.533  -4.032  1.00  0.00     0.273 A 
HETATM    4  O   UNL     1      10.525   5.946  -3.907  1.00  0.00    -0.266 OA
HETATM    5  C   UNL     1       8.207   6.288  -4.232  1.00  0.00     0.129 A 
HETATM    6  C   UNL     1       7.109   5.503  -4.417  1.00  0.00     0.034 A 
HETATM    7  N   UNL     1       7.813   7.568  -4.302  1.00  0.00    -0.272 N 
HETATM    8  H   UNL     1       8.362   8.417  -4.207  1.00  0.00     0.189 HD
HETATM    9  N   UNL     1       6.477   7.665  -4.530  1.00  0.00    -0.173 NA
HETATM   10  C   UNL     1       6.035   6.387  -4.598  1.00  0.00     0.101 A 
ENDROOT
BRANCH   1  11
HETATM   11  C   UNL     1       6.672   3.463  -3.225  1.00  0.00    -0.030 A 
HETATM   12  C   UNL     1       6.887   3.778  -1.873  1.00  0.00     0.012 A 
HETATM   13  C   UNL     1       6.040   3.275  -0.882  1.00  0.00     0.037 A 
HETATM   14  C   UNL     1       4.961   2.460  -1.220  1.00  0.00     0.069 A 
HETATM   15  C   UNL     1       4.774   2.086  -2.549  1.00  0.00     0.037 A 
HETATM   16  C   UNL     1       5.619   2.588  -3.543  1.00  0.00     0.012 A 
BRANCH  14  17
HETATM   17  O   UNL     1       4.160   2.081  -0.177  1.00  0.00    -0.348 OA
BRANCH  17  18
HETATM   18  C   UNL     1       2.799   1.812  -0.520  1.00  0.00     0.202 C 
BRANCH  18  19
HETATM   19  C   UNL     1       1.984   1.930   0.733  1.00  0.00    -0.011 C 
HETATM   20  C   UNL     1       0.935   2.751   0.881  1.00  0.00     0.009 C 
ENDBRANCH  18  19
ENDBRANCH  17  18
ENDBRANCH  14  17
ENDBRANCH   1  11
BRANCH   2  21
HETATM   21  C   UNL     1       9.838   3.080  -4.167  1.00  0.00     0.167 C 
BRANCH  21  22
HETATM   22  C   UNL     1      10.073   2.686  -5.600  1.00  0.00    -0.023 A 
HETATM   23  C   UNL     1       9.524   1.521  -6.126  1.00  0.00     0.125 A 
HETATM   24  N   UNL     1       9.657   1.135  -7.415  1.00  0.00    -0.273 NA
HETATM   25  C   UNL     1      10.377   1.943  -8.222  1.00  0.00     0.116 A 
HETATM   26  C   UNL     1      10.971   3.120  -7.800  1.00  0.00     0.020 A 
HETATM   27  C   UNL     1      10.816   3.493  -6.468  1.00  0.00     0.012 A 
ENDBRANCH  21  22
ENDBRANCH   2  21
BRANCH  10  28
HETATM   28  C   UNL     1       4.627   6.068  -4.804  1.00  0.00     0.028 A 
HETATM   29  C   UNL     1       4.202   5.103  -5.728  1.00  0.00     0.078 A 
HETATM   30  C   UNL     1       2.858   4.744  -5.824  1.00  0.00     0.037 A 
HETATM   31  C   UNL     1       1.911   5.377  -5.019  1.00  0.00     0.003 A 
HETATM   32  C   UNL     1       2.311   6.365  -4.121  1.00  0.00     0.001 A 
HETATM   33  C   UNL     1       3.661   6.707  -4.012  1.00  0.00     0.017 A 
BRANCH  29  34
HETATM   34  O   UNL     1       5.057   4.480  -6.598  1.00  0.00    -0.360 OA
HETATM   35  H   UNL     1       5.743   5.131  -6.834  1.00  0.00     0.217 HD
ENDBRANCH  29  34
ENDBRANCH  10  28
TORSDOF 8
