REMARK  6 active torsions:
REMARK  status: ('A' for Active; 'I' for Inactive)
REMARK    1  A    between atoms: O_2  and  C_3 
REMARK    2  A    between atoms: C_6  and  C_7 
REMARK    3  A    between atoms: C_12  and  C_13 
REMARK       I    between atoms: C_13  and  N_14 
REMARK    4  A    between atoms: N_14  and  C_15 
REMARK    5  A    between atoms: C_17  and  O_18 
REMARK    6  A    between atoms: C_24  and  C_25 
ROOT
HETATM    1  C   UNL     1       4.330   4.197  -3.305  1.00  0.00     0.118 C 
HETATM    2  N   UNL     1       3.106   4.765  -3.858  1.00  0.00    -0.366 N 
HETATM    3  C   UNL     1       2.802   6.077  -3.787  1.00  0.00     0.123 A 
HETATM    4  N   UNL     1       3.574   6.955  -3.083  1.00  0.00    -0.240 N 
HETATM    5  N   UNL     1       3.176   8.238  -3.179  1.00  0.00    -0.165 NA
HETATM    6  C   UNL     1       2.045   8.159  -3.920  1.00  0.00     0.148 A 
HETATM    7  C   UNL     1       1.780   6.818  -4.316  1.00  0.00     0.089 A 
HETATM    8  C   UNL     1       4.762   6.571  -2.347  1.00  0.00     0.221 C 
HETATM    9  C   UNL     1       5.358   5.289  -2.951  1.00  0.00     0.066 C 
HETATM   10  H   UNL     1       2.500   4.107  -4.347  1.00  0.00     0.161 HD
ENDROOT
BRANCH   6  11
HETATM   11  C   UNL     1       1.241   9.349  -4.254  1.00  0.00     0.276 C 
HETATM   12  N   UNL     1       1.769  10.499  -3.698  1.00  0.00    -0.322 N 
HETATM   13  H   UNL     1       2.612  10.332  -3.154  1.00  0.00     0.169 HD
HETATM   14  O   UNL     1       0.234   9.266  -4.948  1.00  0.00    -0.266 OA
BRANCH  12  15
HETATM   15  C   UNL     1       1.290  11.817  -3.795  1.00  0.00     0.037 A 
HETATM   16  C   UNL     1       0.144  12.176  -4.509  1.00  0.00     0.066 A 
HETATM   17  C   UNL     1      -0.256  13.512  -4.550  1.00  0.00     0.067 A 
HETATM   18  C   UNL     1       0.467  14.499  -3.893  1.00  0.00     0.036 A 
HETATM   19  C   UNL     1       1.610  14.148  -3.179  1.00  0.00     0.005 A 
HETATM   20  C   UNL     1       2.019  12.812  -3.131  1.00  0.00     0.029 A 
BRANCH  17  21
HETATM   21  O   UNL     1      -1.371  13.895  -5.238  1.00  0.00    -0.361 OA
HETATM   22  H   UNL     1      -1.772  13.103  -5.635  1.00  0.00     0.217 HD
ENDBRANCH  17  21
ENDBRANCH  12  15
ENDBRANCH   6  11
BRANCH   8  23
HETATM   23  C   UNL     1       4.447   6.480  -0.872  1.00  0.00     0.409 C 
HETATM   24  F   UNL     1       3.379   5.716  -0.583  1.00  0.00    -0.169 F 
HETATM   25  F   UNL     1       5.508   5.963  -0.200  1.00  0.00    -0.169 F 
HETATM   26  F   UNL     1       4.223   7.704  -0.337  1.00  0.00    -0.169 F 
ENDBRANCH   8  23
BRANCH   1  27
HETATM   27  C   UNL     1       4.060   3.199  -2.193  1.00  0.00    -0.035 A 
HETATM   28  C   UNL     1       5.065   2.284  -1.834  1.00  0.00     0.012 A 
HETATM   29  C   UNL     1       4.858   1.331  -0.828  1.00  0.00     0.037 A 
HETATM   30  C   UNL     1       3.640   1.275  -0.157  1.00  0.00     0.068 A 
HETATM   31  C   UNL     1       2.632   2.173  -0.508  1.00  0.00     0.037 A 
HETATM   32  C   UNL     1       2.836   3.121  -1.516  1.00  0.00     0.012 A 
BRANCH  30  33
HETATM   33  O   UNL     1       3.308   0.402   0.841  1.00  0.00    -0.356 OA
HETATM   34  C   UNL     1       4.323  -0.492   1.279  1.00  0.00     0.210 C 
ENDBRANCH  30  33
ENDBRANCH   1  27
TORSDOF 6
