REMARK  5 active torsions:
REMARK  status: ('A' for Active; 'I' for Inactive)
REMARK    1  A    between atoms: O_2  and  C_3 
REMARK    2  A    between atoms: C_6  and  N_7 
REMARK    3  A    between atoms: C_11  and  C_12 
REMARK    4  A    between atoms: C_12  and  N_13 
REMARK       I    between atoms: N_13  and  C_14 
REMARK    5  A    between atoms: C_14  and  C_15 
ROOT
HETATM    1  N   UNL     1       1.821   5.057  -6.966  1.00  0.00    -0.360 N 
HETATM    2  C   UNL     1       2.079   5.049  -8.324  1.00  0.00     0.230 C 
HETATM    3  O   UNL     1       3.052   5.622  -8.814  1.00  0.00    -0.272 OA
HETATM    4  H   UNL     1       0.933   4.683  -6.646  1.00  0.00     0.162 HD
ENDROOT
BRANCH   1   5
HETATM    5  C   UNL     1       2.643   5.796  -6.029  1.00  0.00     0.129 C 
BRANCH   5   6
HETATM    6  C   UNL     1       4.018   5.147  -5.805  1.00  0.00     0.031 C 
HETATM    7  C   UNL     1       4.895   6.012  -4.909  1.00  0.00     0.111 C 
HETATM    8  C   UNL     1       4.590   5.515  -3.517  1.00  0.00     0.224 C 
HETATM    9  N   UNL     1       4.022   4.237  -3.633  1.00  0.00    -0.318 N 
HETATM   10  O   UNL     1       4.869   6.155  -2.515  1.00  0.00    -0.273 OA
HETATM   11  C   UNL     1       3.922   3.845  -5.023  1.00  0.00     0.139 C 
BRANCH   9  12
HETATM   12  C   UNL     1       3.694   3.358  -2.563  1.00  0.00     0.037 A 
HETATM   13  C   UNL     1       3.759   3.764  -1.224  1.00  0.00     0.032 A 
HETATM   14  C   UNL     1       3.426   2.893  -0.174  1.00  0.00     0.039 A 
HETATM   15  C   UNL     1       3.018   1.591  -0.443  1.00  0.00     0.068 A 
HETATM   16  C   UNL     1       2.958   1.169  -1.769  1.00  0.00     0.039 A 
HETATM   17  C   UNL     1       3.290   2.039  -2.815  1.00  0.00     0.032 A 
BRANCH  15  18
HETATM   18  O   UNL     1       2.662   0.649   0.480  1.00  0.00    -0.356 OA
HETATM   19  C   UNL     1       2.600   1.075   1.836  1.00  0.00     0.210 C 
ENDBRANCH  15  18
ENDBRANCH   9  12
ENDBRANCH   5   6
ENDBRANCH   1   5
BRANCH   2  20
HETATM   20  C   UNL     1       1.068   4.287  -9.194  1.00  0.00     0.149 C 
HETATM   21  C   UNL     1      -0.234   5.046  -9.299  1.00  0.00    -0.007 A 
HETATM   22  C   UNL     1      -1.411   4.497  -8.785  1.00  0.00     0.083 A 
HETATM   23  C   UNL     1      -0.279   6.312  -9.906  1.00  0.00     0.011 A 
HETATM   24  C   UNL     1      -2.613   5.204  -8.864  1.00  0.00     0.038 A 
HETATM   25  O   UNL     1      -1.473   3.267  -8.179  1.00  0.00    -0.310 OA
HETATM   26  C   UNL     1      -2.649   6.462  -9.465  1.00  0.00     0.003 A 
HETATM   27  C   UNL     1      -1.481   7.015  -9.987  1.00  0.00     0.001 A 
HETATM   28  C   UNL     1      -0.368   2.452  -8.230  1.00  0.00     0.083 A 
HETATM   29  C   UNL     1       0.875   2.866  -8.713  1.00  0.00    -0.007 A 
HETATM   30  C   UNL     1      -0.544   1.150  -7.758  1.00  0.00     0.038 A 
HETATM   31  C   UNL     1       1.941   1.952  -8.729  1.00  0.00     0.011 A 
HETATM   32  C   UNL     1       1.762   0.650  -8.260  1.00  0.00     0.001 A 
HETATM   33  C   UNL     1       0.520   0.249  -7.772  1.00  0.00     0.003 A 
ENDBRANCH   2  20
TORSDOF 5
