REMARK  10 active torsions:
REMARK  status: ('A' for Active; 'I' for Inactive)
REMARK    1  A    between atoms: C_2  and  N_3 
REMARK    2  A    between atoms: N_3  and  C_4 
REMARK    3  A    between atoms: N_3  and  C_37 
REMARK    4  A    between atoms: C_7  and  C_8 
REMARK    5  A    between atoms: N_9  and  C_11 
REMARK    6  A    between atoms: C_11  and  C_12 
REMARK       I    between atoms: C_12  and  N_13 
REMARK    7  A    between atoms: N_13  and  C_14 
REMARK    8  A    between atoms: C_20  and  C_21 
REMARK    9  A    between atoms: C_21  and  O_22 
REMARK   10  A    between atoms: C_28  and  O_29 
ROOT
HETATM    1  C   UNL     1       0.314  -1.293  -0.139  1.00  0.00     0.228 C 
HETATM    2  N   UNL     1      -0.198  -0.554   1.091  1.00  0.00    -0.054 N 
HETATM    3  H   UNL     1      -0.585   0.335   0.729  1.00  0.00     0.281 HD
HETATM    4  C   UNL     1      -1.394  -1.226   1.719  1.00  0.00     0.239 C 
HETATM    5  C   UNL     1      -1.058  -2.656   2.112  1.00  0.00     0.066 C 
HETATM    6  C   UNL     1      -0.586  -3.451   0.896  1.00  0.00     0.065 C 
HETATM    7  C   UNL     1       0.635  -2.770   0.227  1.00  0.00     0.055 C 
HETATM    8  C   UNL     1      -0.250  -4.901   1.287  1.00  0.00     0.038 C 
HETATM    9  C   UNL     1       0.218  -5.723   0.087  1.00  0.00     0.003 C 
HETATM   10  C   UNL     1       1.373  -5.047  -0.640  1.00  0.00     0.001 C 
HETATM   11  C   UNL     1       1.052  -3.600  -1.013  1.00  0.00     0.010 C 
ENDROOT
BRANCH   2  12
HETATM   12  C   UNL     1       0.831  -0.042   2.111  1.00  0.00     0.338 C 
BRANCH  12  13
HETATM   13  C   UNL     1       0.190   1.071   2.953  1.00  0.00     0.248 C 
HETATM   14  N   UNL     1       0.683   1.181   4.232  1.00  0.00    -0.319 N 
HETATM   15  H   UNL     1       1.645   0.897   4.429  1.00  0.00     0.169 HD
HETATM   16  O   UNL     1      -0.724   1.718   2.439  1.00  0.00    -0.271 OA
BRANCH  14  17
HETATM   17  C   UNL     1       0.055   1.837   5.287  1.00  0.00     0.094 A 
HETATM   18  S   UNL     1      -1.605   2.166   5.223  1.00  0.00    -0.076 SA
HETATM   19  C   UNL     1      -1.623   2.817   6.795  1.00  0.00    -0.012 A 
HETATM   20  C   UNL     1      -2.913   3.318   7.364  1.00  0.00     0.057 C 
HETATM   21  C   UNL     1      -0.365   2.800   7.384  1.00  0.00    -0.030 A 
HETATM   22  C   UNL     1      -0.087   3.321   8.764  1.00  0.00     0.050 C 
HETATM   23  C   UNL     1       0.628   2.201   6.499  1.00  0.00     0.080 A 
BRANCH  23  24
HETATM   24  C   UNL     1       2.057   1.978   6.753  1.00  0.00     0.296 C 
HETATM   25  O   UNL     1       2.767   1.357   5.963  1.00  0.00    -0.259 OA
BRANCH  24  26
HETATM   26  O   UNL     1       2.500   2.522   7.917  1.00  0.00    -0.322 OA
HETATM   27  C   UNL     1       3.896   2.350   8.169  1.00  0.00     0.213 C 
ENDBRANCH  24  26
ENDBRANCH  23  24
ENDBRANCH  14  17
ENDBRANCH  12  13
ENDBRANCH   2  12
BRANCH   1  28
HETATM   28  C   UNL     1       1.396  -0.498  -0.855  1.00  0.00    -0.027 A 
HETATM   29  C   UNL     1       2.765  -0.781  -0.739  1.00  0.00     0.011 A 
HETATM   30  C   UNL     1       3.713  -0.071  -1.489  1.00  0.00     0.030 A 
HETATM   31  C   UNL     1       3.336   0.967  -2.344  1.00  0.00     0.030 A 
HETATM   32  C   UNL     1       1.977   1.299  -2.395  1.00  0.00     0.030 A 
HETATM   33  C   UNL     1       1.019   0.578  -1.674  1.00  0.00     0.011 A 
BRANCH  31  34
HETATM   34  N   UNL     1       4.233   1.649  -3.162  1.00  0.00    -0.382 N 
BRANCH  34  35
HETATM   35  C   UNL     1       5.303   0.906  -3.845  1.00  0.00     0.118 C 
HETATM   36  C   UNL     1       4.729  -0.058  -4.876  1.00  0.00     0.026 C 
ENDBRANCH  34  35
BRANCH  34  37
HETATM   37  C   UNL     1       4.540   3.030  -2.759  1.00  0.00     0.118 C 
HETATM   38  C   UNL     1       5.577   3.088  -1.645  1.00  0.00     0.026 C 
ENDBRANCH  34  37
ENDBRANCH  31  34
ENDBRANCH   1  28
BRANCH   6  39
HETATM   39  O   UNL     1      -1.670  -3.451  -0.040  1.00  0.00    -0.389 OA
HETATM   40  H   UNL     1      -2.241  -4.228   0.123  1.00  0.00     0.210 HD
ENDBRANCH   6  39
TORSDOF 10
