REMARK  9 active torsions:
REMARK  status: ('A' for Active; 'I' for Inactive)
REMARK    1  A    between atoms: C_4  and  C_5 
REMARK    2  A    between atoms: C_5  and  N_6 
REMARK    3  A    between atoms: C_12  and  N_13 
REMARK       I    between atoms: N_13  and  C_14 
REMARK    4  A    between atoms: N_13  and  C_27 
REMARK    5  A    between atoms: C_14  and  C_15 
REMARK    6  A    between atoms: C_15  and  C_16 
REMARK    7  A    between atoms: C_27  and  C_28 
REMARK    8  A    between atoms: C_28  and  C_29 
REMARK    9  A    between atoms: C_35  and  N_36 
ROOT
HETATM    1  N   UNL     1       2.127  -5.201  -0.820  1.00  0.00    -0.310 N 
HETATM    2  C   UNL     1       2.766  -6.438  -0.598  1.00  0.00     0.228 C 
HETATM    3  O   UNL     1       3.705  -6.569   0.201  1.00  0.00    -0.273 OA
ENDROOT
BRANCH   1   4
HETATM    4  C   UNL     1       2.835  -3.994  -0.506  1.00  0.00     0.144 C 
HETATM    5  C   UNL     1       2.900  -2.931  -1.576  1.00  0.00     0.279 C 
HETATM    6  N   UNL     1       3.161  -1.672  -1.153  1.00  0.00    -0.273 N 
HETATM    7  O   UNL     1       2.737  -3.168  -2.771  1.00  0.00    -0.265 OA
HETATM    8  C   UNL     1       4.109  -1.483  -0.203  1.00  0.00     0.331 C 
HETATM    9  H   UNL     1       3.214  -0.986  -1.892  1.00  0.00     0.173 HD
HETATM   10  N   UNL     1       4.258  -2.512   0.715  1.00  0.00    -0.284 N 
HETATM   11  O   UNL     1       4.792  -0.462  -0.239  1.00  0.00    -0.246 OA
HETATM   12  C   UNL     1       3.514  -3.700   0.642  1.00  0.00     0.117 C 
BRANCH  10  13
HETATM   13  C   UNL     1       5.360  -2.361   1.670  1.00  0.00     0.173 C 
BRANCH  13  14
HETATM   14  C   UNL     1       5.023  -1.787   3.029  1.00  0.00    -0.040 A 
HETATM   15  C   UNL     1       3.747  -1.334   3.386  1.00  0.00     0.009 A 
HETATM   16  C   UNL     1       3.515  -0.794   4.655  1.00  0.00     0.001 A 
HETATM   17  C   UNL     1       4.552  -0.699   5.580  1.00  0.00     0.000 A 
HETATM   18  C   UNL     1       5.827  -1.141   5.240  1.00  0.00     0.001 A 
HETATM   19  C   UNL     1       6.060  -1.681   3.974  1.00  0.00     0.009 A 
ENDBRANCH  13  14
ENDBRANCH  10  13
BRANCH  12  20
HETATM   20  N   UNL     1       3.454  -4.537   1.750  1.00  0.00    -0.286 NA
HETATM   21  H   UNL     1       3.491  -5.521   1.456  1.00  0.00     0.125 HD
HETATM   22  H   UNL     1       4.165  -4.367   2.449  1.00  0.00     0.125 HD
ENDBRANCH  12  20
ENDBRANCH   1   4
BRANCH   1  23
HETATM   23  C   UNL     1       0.952  -5.025  -1.721  1.00  0.00     0.137 C 
BRANCH  23  24
HETATM   24  C   UNL     1      -0.309  -5.916  -1.607  1.00  0.00     0.054 C 
BRANCH  24  25
HETATM   25  C   UNL     1      -0.833  -6.453  -0.298  1.00  0.00    -0.082 C 
HETATM   26  C   UNL     1      -1.859  -7.561  -0.471  1.00  0.00     0.034 C 
HETATM   27  C   UNL     1      -2.208  -8.306   0.816  1.00  0.00     0.005 C 
HETATM   28  C   UNL     1      -2.376  -7.336   1.976  1.00  0.00     0.004 C 
HETATM   29  C   UNL     1      -1.096  -6.530   2.199  1.00  0.00     0.027 C 
HETATM   30  C   UNL     1      -0.489  -6.011   0.924  1.00  0.00    -0.024 C 
ENDBRANCH  24  25
ENDBRANCH  23  24
ENDBRANCH   1  23
BRANCH   2  31
HETATM   31  C   UNL     1       2.323  -7.661  -1.390  1.00  0.00     0.144 C 
BRANCH  31  32
HETATM   32  C   UNL     1       3.459  -8.331  -2.101  1.00  0.00    -0.021 A 
HETATM   33  C   UNL     1       4.229  -7.770  -3.172  1.00  0.00    -0.001 A 
HETATM   34  C   UNL     1       5.112  -8.756  -3.612  1.00  0.00     0.042 A 
HETATM   35  C   UNL     1       4.241  -6.519  -3.822  1.00  0.00     0.014 A 
HETATM   36  C   UNL     1       5.996  -8.557  -4.680  1.00  0.00     0.030 A 
HETATM   37  N   UNL     1       4.913  -9.860  -2.817  1.00  0.00    -0.365 N 
HETATM   38  C   UNL     1       5.982  -7.309  -5.310  1.00  0.00     0.002 A 
HETATM   39  C   UNL     1       5.122  -6.300  -4.886  1.00  0.00     0.001 A 
HETATM   40  H   UNL     1       5.423 -10.728  -2.908  1.00  0.00     0.165 HD
HETATM   41  C   UNL     1       3.916  -9.620  -1.910  1.00  0.00     0.097 A 
ENDBRANCH  31  32
ENDBRANCH   2  31
TORSDOF 9
