REMARK  2 active torsions:
REMARK  status: ('A' for Active; 'I' for Inactive)
REMARK    1  A    between atoms: C_7  and  C_8 
REMARK    2  A    between atoms: C_8  and  O_9 
ROOT
HETATM    1  C   UNL     1       2.287  -2.294  -0.032  1.00  0.00     0.199 A 
HETATM    2  C   UNL     1       3.100  -3.498  -0.613  1.00  0.00     0.266 A 
HETATM    3  O   UNL     1       3.416  -3.686  -1.779  1.00  0.00    -0.269 OA
HETATM    4  N   UNL     1       3.354  -4.378   0.438  1.00  0.00    -0.323 N 
HETATM    5  C   UNL     1       2.807  -3.910   1.625  1.00  0.00     0.045 A 
HETATM    6  C   UNL     1       2.171  -2.681   1.422  1.00  0.00     0.017 A 
HETATM    7  C   UNL     1       2.839  -4.538   2.853  1.00  0.00     0.030 A 
HETATM    8  C   UNL     1       2.199  -3.900   3.918  1.00  0.00     0.002 A 
HETATM    9  C   UNL     1       1.549  -2.668   3.732  1.00  0.00     0.001 A 
HETATM   10  C   UNL     1       1.527  -2.051   2.477  1.00  0.00     0.013 A 
HETATM   11  H   UNL     1       3.836  -5.254   0.316  1.00  0.00     0.169 HD
ENDROOT
BRANCH   1  12
HETATM   12  C   UNL     1       3.000  -0.960  -0.096  1.00  0.00     0.025 A 
HETATM   13  C   UNL     1       2.396   0.289  -0.267  1.00  0.00     0.016 A 
HETATM   14  C   UNL     1       0.967   0.678  -0.417  1.00  0.00     0.069 C 
HETATM   15  N   UNL     1       3.380   1.242  -0.287  1.00  0.00    -0.359 N 
HETATM   16  H   UNL     1       3.227   2.234  -0.403  1.00  0.00     0.166 HD
HETATM   17  C   UNL     1       4.615   0.670  -0.127  1.00  0.00     0.043 A 
HETATM   18  C   UNL     1       4.421  -0.706   0.005  1.00  0.00     0.003 A 
HETATM   19  C   UNL     1       5.878   1.277  -0.090  1.00  0.00     0.030 A 
HETATM   20  C   UNL     1       5.570  -1.508   0.192  1.00  0.00     0.014 A 
HETATM   21  C   UNL     1       6.841  -0.920   0.228  1.00  0.00     0.001 A 
HETATM   22  C   UNL     1       6.991   0.454   0.087  1.00  0.00     0.002 A 
ENDBRANCH   1  12
BRANCH   1  23
HETATM   23  O   UNL     1       0.997  -2.268  -0.637  1.00  0.00    -0.371 OA
HETATM   24  H   UNL     1       1.183  -2.150  -1.586  1.00  0.00     0.212 HD
ENDBRANCH   1  23
TORSDOF 2
