REMARK  4 active torsions:
REMARK  status: ('A' for Active; 'I' for Inactive)
REMARK    1  A    between atoms: C_5  and  N_6 
REMARK    2  A    between atoms: N_10  and  C_11 
REMARK    3  A    between atoms: C_11  and  C_12 
REMARK    4  A    between atoms: C_13  and  O_14 
ROOT
HETATM    1  N   UNL     1       5.383  -1.610  -0.313  1.00  0.00    -0.312 N 
HETATM    2  C   UNL     1       5.296  -2.972   0.023  1.00  0.00     0.253 C 
HETATM    3  O   UNL     1       4.457  -3.453   0.790  1.00  0.00    -0.271 OA
HETATM    4  C   UNL     1       6.226  -3.935  -0.728  1.00  0.00     0.375 C 
HETATM    5  N   UNL     1       7.557  -3.395  -1.073  1.00  0.00     0.103 N 
HETATM    6  C   UNL     1       7.363  -2.137  -1.797  1.00  0.00     0.293 C 
HETATM    7  C   UNL     1       6.568  -1.094  -1.009  1.00  0.00     0.162 C 
ENDROOT
BRANCH   5   8
HETATM    8  C   UNL     1       8.424  -3.240   0.109  1.00  0.00     0.314 C 
BRANCH   8   9
HETATM    9  C   UNL     1       8.845  -4.570   0.698  1.00  0.00     0.006 A 
HETATM   10  C   UNL     1       8.538  -4.925   2.017  1.00  0.00     0.095 A 
HETATM   11  C   UNL     1       8.914  -6.174   2.528  1.00  0.00     0.069 A 
HETATM   12 CL   UNL     1       8.520  -6.604   4.152  1.00  0.00    -0.081 Cl
HETATM   13  C   UNL     1       9.606  -7.084   1.733  1.00  0.00     0.050 A 
HETATM   14  C   UNL     1       9.922  -6.736   0.423  1.00  0.00     0.036 A 
HETATM   15 CL   UNL     1      10.773  -7.853  -0.572  1.00  0.00    -0.084 Cl
HETATM   16  C   UNL     1       9.551  -5.494  -0.094  1.00  0.00     0.035 A 
BRANCH  10  17
HETATM   17  O   UNL     1       7.853  -4.028   2.793  1.00  0.00    -0.358 OA
HETATM   18  H   UNL     1       7.646  -4.466   3.640  1.00  0.00     0.218 HD
ENDBRANCH  10  17
ENDBRANCH   8   9
ENDBRANCH   5   8
BRANCH   1  19
HETATM   19  C   UNL     1       4.413  -0.710   0.177  1.00  0.00     0.073 A 
HETATM   20  C   UNL     1       3.220  -0.936   0.914  1.00  0.00     0.169 A 
HETATM   21  N   UNL     1       2.542   0.188   1.171  1.00  0.00    -0.183 NA
HETATM   22  N   UNL     1       3.293   1.141   0.602  1.00  0.00    -0.283 N 
HETATM   23  C   UNL     1       2.866   2.518   0.647  1.00  0.00     0.179 C 
HETATM   24  C   UNL     1       4.423   0.660   0.006  1.00  0.00     0.143 A 
ENDBRANCH   1  19
TORSDOF 4
