REMARK  4 active torsions:
REMARK  status: ('A' for Active; 'I' for Inactive)
REMARK    1  A    between atoms: C_7  and  C_8 
REMARK    2  A    between atoms: N_9  and  N_10 
REMARK       I    between atoms: N_10  and  C_11 
REMARK    3  A    between atoms: C_11  and  C_12 
REMARK    4  A    between atoms: C_16  and  C_17 
ROOT
HETATM    1  N   UNL     1       3.052  -4.822   0.071  1.00  0.00    -0.242 N 
HETATM    2  C   UNL     1       3.846  -5.959   0.057  1.00  0.00     0.289 C 
HETATM    3  O   UNL     1       5.074  -5.948   0.063  1.00  0.00    -0.264 OA
HETATM    4  H   UNL     1       2.045  -4.899   0.020  1.00  0.00     0.192 HD
ENDROOT
BRANCH   1   5
HETATM    5  N   UNL     1       3.631  -3.583   0.076  1.00  0.00    -0.183 NA
HETATM    6  C   UNL     1       2.818  -2.577   0.049  1.00  0.00     0.153 C 
BRANCH   6   7
HETATM    7  C   UNL     1       3.331  -1.219   0.045  1.00  0.00     0.018 A 
HETATM    8  C   UNL     1       4.663  -0.826   0.053  1.00  0.00     0.018 A 
HETATM    9  C   UNL     1       5.921  -1.623   0.067  1.00  0.00     0.069 C 
HETATM   10  N   UNL     1       4.695   0.546   0.045  1.00  0.00    -0.358 N 
HETATM   11  H   UNL     1       5.536   1.106   0.048  1.00  0.00     0.166 HD
HETATM   12  C   UNL     1       3.422   1.061   0.030  1.00  0.00     0.043 A 
HETATM   13  C   UNL     1       2.541  -0.020   0.029  1.00  0.00     0.004 A 
HETATM   14  C   UNL     1       2.992   2.394   0.017  1.00  0.00     0.030 A 
HETATM   15  C   UNL     1       1.155   0.250   0.014  1.00  0.00     0.014 A 
HETATM   16  C   UNL     1       0.708   1.576   0.000  1.00  0.00     0.001 A 
HETATM   17  C   UNL     1       1.615   2.631   0.002  1.00  0.00     0.002 A 
ENDBRANCH   6   7
ENDBRANCH   1   5
BRANCH   2  18
HETATM   18  C   UNL     1       3.114  -7.201   0.017  1.00  0.00     0.121 A 
HETATM   19  N   UNL     1       3.761  -8.398  -0.114  1.00  0.00    -0.272 N 
HETATM   20  H   UNL     1       4.765  -8.539  -0.186  1.00  0.00     0.189 HD
HETATM   21  N   UNL     1       2.946  -9.463  -0.144  1.00  0.00    -0.174 NA
HETATM   22  C   UNL     1       1.710  -8.948  -0.046  1.00  0.00     0.091 A 
HETATM   23  C   UNL     1       1.776  -7.533   0.092  1.00  0.00     0.071 A 
BRANCH  22  24
HETATM   24  C   UNL     1       0.530  -9.816  -0.035  1.00  0.00     0.016 A 
HETATM   25  C   UNL     1      -0.667  -9.517  -0.707  1.00  0.00     0.046 A 
HETATM   26 CL   UNL     1      -0.879  -8.108  -1.692  1.00  0.00    -0.083 Cl
HETATM   27  C   UNL     1      -1.759 -10.394  -0.635  1.00  0.00     0.025 A 
HETATM   28  C   UNL     1      -1.669 -11.578   0.097  1.00  0.00     0.002 A 
HETATM   29  C   UNL     1      -0.486 -11.895   0.755  1.00  0.00     0.001 A 
HETATM   30  C   UNL     1       0.603 -11.023   0.688  1.00  0.00     0.015 A 
ENDBRANCH  22  24
ENDBRANCH   2  18
TORSDOF 4
