REMARK  7 active torsions:
REMARK  status: ('A' for Active; 'I' for Inactive)
REMARK    1  A    between atoms: C_2  and  S_3 
REMARK    2  A    between atoms: C_2  and  C_20 
REMARK    3  A    between atoms: S_3  and  C_4 
REMARK    4  A    between atoms: C_4  and  C_5 
REMARK       I    between atoms: C_5  and  N_6 
REMARK    5  A    between atoms: N_6  and  C_7 
REMARK    6  A    between atoms: C_10  and  C_11 
REMARK       I    between atoms: C_11  and  N_12 
REMARK    7  A    between atoms: N_12  and  C_13 
ROOT
HETATM    1  C   UNL     1       2.655   2.667   3.035  1.00  0.00     0.231 C 
HETATM    2  N   UNL     1       3.772   2.248   3.743  1.00  0.00    -0.327 N 
HETATM    3  O   UNL     1       1.875   3.555   3.370  1.00  0.00    -0.272 OA
HETATM    4  H   UNL     1       4.232   1.411   3.406  1.00  0.00     0.169 HD
ENDROOT
BRANCH   1   5
HETATM    5  C   UNL     1       2.472   1.921   1.721  1.00  0.00     0.177 C 
BRANCH   5   6
HETATM    6  S   UNL     1       1.489   0.410   2.002  1.00  0.00    -0.147 SA
BRANCH   6   7
HETATM    7  C   UNL     1       1.107  -0.057   0.264  1.00  0.00     0.113 C 
HETATM    8  C   UNL     1       2.365  -0.519  -0.467  1.00  0.00     0.029 C 
BRANCH   7   9
HETATM    9  C   UNL     1       0.404   1.056  -0.454  1.00  0.00     0.118 A 
HETATM   10  N   UNL     1       0.885   1.810  -1.424  1.00  0.00    -0.232 NA
HETATM   11  C   UNL     1      -0.101   2.722  -1.712  1.00  0.00     0.085 A 
HETATM   12  C   UNL     1      -1.212   2.522  -0.903  1.00  0.00     0.062 A 
HETATM   13  C   UNL     1      -0.113   3.765  -2.649  1.00  0.00     0.034 A 
HETATM   14  N   UNL     1      -0.870   1.453  -0.116  1.00  0.00    -0.342 N 
HETATM   15  C   UNL     1      -2.360   3.314  -0.966  1.00  0.00     0.032 A 
HETATM   16  H   UNL     1      -1.432   1.056   0.623  1.00  0.00     0.167 HD
HETATM   17  C   UNL     1      -2.355   4.352  -1.906  1.00  0.00     0.002 A 
HETATM   18  C   UNL     1      -1.252   4.576  -2.734  1.00  0.00     0.002 A 
ENDBRANCH   7   9
ENDBRANCH   6   7
ENDBRANCH   5   6
ENDBRANCH   1   5
BRANCH   2  19
HETATM   19  C   UNL     1       4.348   2.866   4.871  1.00  0.00     0.034 A 
HETATM   20  C   UNL     1       3.856   4.036   5.455  1.00  0.00     0.030 A 
HETATM   21  C   UNL     1       4.533   4.644   6.519  1.00  0.00     0.019 A 
HETATM   22  C   UNL     1       5.723   4.093   7.003  1.00  0.00     0.032 A 
HETATM   23  C   UNL     1       6.192   2.893   6.457  1.00  0.00     0.019 A 
HETATM   24  C   UNL     1       5.509   2.286   5.398  1.00  0.00     0.030 A 
BRANCH  22  25
HETATM   25  C   UNL     1       6.525   4.748   8.075  1.00  0.00     0.251 C 
HETATM   26  N   UNL     1       6.416   6.122   8.157  1.00  0.00    -0.353 N 
HETATM   27  H   UNL     1       5.942   6.603   7.406  1.00  0.00     0.163 HD
HETATM   28  O   UNL     1       7.264   4.071   8.780  1.00  0.00    -0.268 OA
BRANCH  26  29
HETATM   29  C   UNL     1       7.237   6.955   9.029  1.00  0.00     0.076 C 
HETATM   30  C   UNL     1       7.075   6.612  10.508  1.00  0.00     0.032 C 
HETATM   31  C   UNL     1       8.703   6.945   8.603  1.00  0.00     0.032 C 
ENDBRANCH  26  29
ENDBRANCH  22  25
ENDBRANCH   2  19
TORSDOF 7
