REMARK  6 active torsions:
REMARK  status: ('A' for Active; 'I' for Inactive)
REMARK    1  A    between atoms: O_2  and  C_3 
REMARK    2  A    between atoms: C_5  and  N_6 
REMARK    3  A    between atoms: C_7  and  C_9 
REMARK    4  A    between atoms: C_7  and  O_8 
REMARK       I    between atoms: C_9  and  N_10 
REMARK    5  A    between atoms: N_10  and  C_11 
REMARK    6  A    between atoms: C_11  and  C_12 
ROOT
HETATM    1  N   UNL     1       5.522  -2.306  -3.088  1.00  0.00    -0.254 N 
HETATM    2  C   UNL     1       6.384  -1.202  -3.558  1.00  0.00     0.256 C 
HETATM    3  C   UNL     1       6.695  -1.229  -5.046  1.00  0.00     0.034 A 
HETATM    4  C   UNL     1       6.436  -2.384  -5.765  1.00  0.00     0.048 A 
HETATM    5  N   UNL     1       5.868  -3.462  -5.113  1.00  0.00    -0.308 N 
HETATM    6  C   UNL     1       5.432  -3.481  -3.824  1.00  0.00     0.330 C 
HETATM    7  O   UNL     1       4.960  -4.549  -3.431  1.00  0.00    -0.246 OA
HETATM    8  C   UNL     1       7.303  -0.151  -5.718  1.00  0.00     0.015 A 
HETATM    9  C   UNL     1       7.609  -0.238  -7.079  1.00  0.00     0.001 A 
HETATM   10  C   UNL     1       7.334  -1.408  -7.780  1.00  0.00     0.002 A 
HETATM   11  C   UNL     1       6.752  -2.488  -7.121  1.00  0.00     0.030 A 
HETATM   12  H   UNL     1       5.737  -4.338  -5.601  1.00  0.00     0.170 HD
ENDROOT
BRANCH   2  13
HETATM   13  C   UNL     1       5.715   0.203  -3.231  1.00  0.00     0.279 C 
HETATM   14  N   UNL     1       4.389   0.351  -3.579  1.00  0.00    -0.352 N 
HETATM   15  H   UNL     1       3.861  -0.481  -3.817  1.00  0.00     0.162 HD
HETATM   16  O   UNL     1       6.398   1.131  -2.784  1.00  0.00    -0.268 OA
BRANCH  14  17
HETATM   17  C   UNL     1       3.656   1.555  -3.271  1.00  0.00     0.161 C 
BRANCH  17  18
HETATM   18  C   UNL     1       2.721   1.916  -4.395  1.00  0.00    -0.040 A 
HETATM   19  C   UNL     1       1.337   1.735  -4.267  1.00  0.00     0.010 A 
HETATM   20  C   UNL     1       0.480   2.087  -5.313  1.00  0.00     0.024 A 
HETATM   21  C   UNL     1       1.002   2.616  -6.491  1.00  0.00     0.034 A 
HETATM   22 CL   UNL     1      -0.056   3.055  -7.775  1.00  0.00    -0.084 Cl
HETATM   23  C   UNL     1       2.376   2.793  -6.636  1.00  0.00     0.024 A 
HETATM   24  C   UNL     1       3.233   2.442  -5.591  1.00  0.00     0.010 A 
ENDBRANCH  17  18
ENDBRANCH  14  17
ENDBRANCH   2  13
BRANCH   2  25
HETATM   25  O   UNL     1       7.652  -1.323  -2.911  1.00  0.00    -0.359 OA
HETATM   26  H   UNL     1       7.939  -0.405  -2.748  1.00  0.00     0.213 HD
ENDBRANCH   2  25
BRANCH   1  27
HETATM   27  C   UNL     1       4.955  -2.262  -1.751  1.00  0.00     0.045 A 
HETATM   28  C   UNL     1       3.785  -2.980  -1.447  1.00  0.00     0.066 A 
HETATM   29  C   UNL     1       3.220  -2.956  -0.168  1.00  0.00     0.070 A 
HETATM   30  C   UNL     1       3.775  -2.162   0.828  1.00  0.00     0.037 A 
HETATM   31  C   UNL     1       4.921  -1.426   0.549  1.00  0.00     0.005 A 
HETATM   32  C   UNL     1       5.507  -1.482  -0.722  1.00  0.00     0.030 A 
BRANCH  29  33
HETATM   33  O   UNL     1       2.082  -3.696   0.012  1.00  0.00    -0.356 OA
HETATM   34  C   UNL     1       2.131  -4.512   1.182  1.00  0.00     0.210 C 
ENDBRANCH  29  33
ENDBRANCH   1  27
TORSDOF 6
