REMARK  3 active torsions:
REMARK  status: ('A' for Active; 'I' for Inactive)
REMARK    1  A    between atoms: C_5  and  C_6 
REMARK    2  A    between atoms: C_13  and  O_14 
REMARK    3  A    between atoms: C_26  and  O_27 
ROOT
HETATM    1  C   UNL     1       1.030   0.212  -0.323  1.00  0.00     0.021 C 
HETATM    2  C   UNL     1       2.540   0.130  -0.079  1.00  0.00     0.033 C 
HETATM    3  C   UNL     1       3.293   1.107  -0.999  1.00  0.00     0.289 C 
HETATM    4  N   UNL     1       4.747   0.988  -0.792  1.00  0.00     0.126 N 
HETATM    5  C   UNL     1       5.210  -0.352  -1.157  1.00  0.00     0.458 C 
HETATM    6  N   UNL     1       4.547  -1.317  -0.199  1.00  0.00    -0.033 N 
HETATM    7  H   UNL     1       4.849  -2.266  -0.437  1.00  0.00     0.282 HD
HETATM    8  C   UNL     1       3.043  -1.286  -0.391  1.00  0.00     0.251 C 
HETATM    9  C   UNL     1       5.098   1.352   0.588  1.00  0.00     0.289 C 
HETATM   10  C   UNL     1       4.422   0.397   1.585  1.00  0.00     0.033 C 
HETATM   11  C   UNL     1       4.820   0.755   3.020  1.00  0.00     0.021 C 
HETATM   12  C   UNL     1       4.887  -1.023   1.248  1.00  0.00     0.251 C 
HETATM   13  C   UNL     1       2.892   0.482   1.386  1.00  0.00     0.141 C 
ENDROOT
BRANCH   5  14
HETATM   14  C   UNL     1       6.716  -0.488  -1.323  1.00  0.00     0.044 A 
HETATM   15  C   UNL     1       7.462   0.430  -2.060  1.00  0.00     0.137 A 
HETATM   16 CL   UNL     1       6.773   1.729  -2.957  1.00  0.00    -0.062 Cl
HETATM   17  N   UNL     1       8.799   0.380  -2.223  1.00  0.00    -0.233 NA
HETATM   18  C   UNL     1       9.504  -0.643  -1.698  1.00  0.00     0.102 A 
HETATM   19  C   UNL     1       8.841  -1.677  -1.010  1.00  0.00    -0.004 A 
HETATM   20  C   UNL     1      10.903  -0.718  -1.817  1.00  0.00     0.097 A 
HETATM   21  C   UNL     1       7.448  -1.585  -0.838  1.00  0.00     0.028 A 
HETATM   22  C   UNL     1       9.562  -2.772  -0.504  1.00  0.00     0.014 A 
HETATM   23  C   UNL     1      10.942  -2.843  -0.665  1.00  0.00     0.004 A 
HETATM   24  C   UNL     1      11.614  -1.816  -1.317  1.00  0.00     0.039 A 
BRANCH  20  25
HETATM   25  O   UNL     1      11.509   0.327  -2.480  1.00  0.00    -0.354 OA
HETATM   26  C   UNL     1      12.870   0.582  -2.156  1.00  0.00     0.210 C 
ENDBRANCH  20  25
ENDBRANCH   5  14
BRANCH  13  27
HETATM   27  O   UNL     1       2.243  -0.439   2.260  1.00  0.00    -0.394 OA
HETATM   28  H   UNL     1       1.899   0.060   3.028  1.00  0.00     0.210 HD
ENDBRANCH  13  27
TORSDOF 3
