REMARK  5 active torsions:
REMARK  status: ('A' for Active; 'I' for Inactive)
REMARK    1  A    between atoms: C_4  and  O_5 
REMARK    2  A    between atoms: O_5  and  C_6 
REMARK    3  A    between atoms: C_6  and  C_7 
REMARK       I    between atoms: C_7  and  N_8 
REMARK    4  A    between atoms: N_8  and  C_9 
REMARK    5  A    between atoms: C_15  and  C_16 
ROOT
HETATM    1  C   UNL     1       7.088   3.108  -0.595  1.00  0.00     0.137 A 
HETATM    2  N   UNL     1       6.183   2.521  -1.442  1.00  0.00    -0.262 N 
HETATM    3  H   UNL     1       5.225   2.805  -1.626  1.00  0.00     0.191 HD
HETATM    4  N   UNL     1       6.675   1.479  -2.131  1.00  0.00    -0.177 NA
HETATM    5  C   UNL     1       7.957   1.415  -1.751  1.00  0.00     0.065 A 
HETATM    6  C   UNL     1       8.839   0.353  -2.296  1.00  0.00     0.073 C 
HETATM    7  C   UNL     1       8.278   2.433  -0.809  1.00  0.00     0.046 A 
ENDROOT
BRANCH   1   8
HETATM    8  N   UNL     1       6.845   4.199   0.218  1.00  0.00    -0.309 N 
HETATM    9  C   UNL     1       5.654   4.657   0.714  1.00  0.00     0.247 C 
HETATM   10  O   UNL     1       5.648   5.717   1.348  1.00  0.00    -0.271 OA
HETATM   11  H   UNL     1       7.651   4.726   0.541  1.00  0.00     0.170 HD
BRANCH   9  12
HETATM   12  C   UNL     1       4.384   3.825   0.578  1.00  0.00     0.278 C 
BRANCH  12  13
HETATM   13  O   UNL     1       3.821   3.933  -0.727  1.00  0.00    -0.342 OA
BRANCH  13  14
HETATM   14  C   UNL     1       2.586   4.533  -0.739  1.00  0.00     0.075 A 
HETATM   15  C   UNL     1       2.351   5.756  -0.100  1.00  0.00     0.044 A 
HETATM   16  C   UNL     1       1.075   6.334  -0.116  1.00  0.00    -0.059 A 
HETATM   17  C   UNL     1       0.822   7.643   0.571  1.00  0.00     0.048 C 
HETATM   18  C   UNL     1       0.054   5.701  -0.831  1.00  0.00     0.007 A 
HETATM   19  C   UNL     1       0.299   4.503  -1.506  1.00  0.00     0.010 A 
HETATM   20  C   UNL     1       1.566   3.905  -1.467  1.00  0.00    -0.029 A 
HETATM   21  C   UNL     1       1.817   2.628  -2.216  1.00  0.00     0.051 C 
ENDBRANCH  13  14
ENDBRANCH  12  13
ENDBRANCH   9  12
ENDBRANCH   1   8
BRANCH   7  22
HETATM   22  C   UNL     1       9.527   2.707  -0.119  1.00  0.00    -0.020 A 
HETATM   23  C   UNL     1      10.704   2.916  -0.847  1.00  0.00     0.014 A 
HETATM   24  C   UNL     1      11.908   3.171  -0.183  1.00  0.00     0.020 A 
HETATM   25  C   UNL     1      11.936   3.219   1.210  1.00  0.00     0.011 A 
HETATM   26 BR   UNL     1      13.562   3.567   2.107  1.00  0.00    -0.051 Br
HETATM   27  C   UNL     1      10.772   3.009   1.947  1.00  0.00     0.020 A 
HETATM   28  C   UNL     1       9.571   2.749   1.282  1.00  0.00     0.014 A 
ENDBRANCH   7  22
TORSDOF 5
