REMARK  1 active torsions:
REMARK  status: ('A' for Active; 'I' for Inactive)
REMARK    1  A    between atoms: C_8  and  C_9 
ROOT
HETATM    1  C   UNL     1       1.114  -0.176   0.354  1.00  0.00     0.049 C 
HETATM    2  C   UNL     1       2.605  -0.070   0.175  1.00  0.00    -0.050 A 
HETATM    3  C   UNL     1       3.282   1.166   0.189  1.00  0.00    -0.002 A 
HETATM    4  C   UNL     1       4.675   1.198  -0.014  1.00  0.00     0.051 A 
HETATM    5  N   UNL     1       5.318   2.445  -0.051  1.00  0.00    -0.322 N 
HETATM    6  C   UNL     1       4.685   3.645   0.098  1.00  0.00     0.255 A 
HETATM    7  O   UNL     1       5.309   4.699   0.001  1.00  0.00    -0.268 OA
HETATM    8  C   UNL     1       3.228   3.630   0.411  1.00  0.00     0.048 A 
HETATM    9  C   UNL     1       2.591   2.442   0.421  1.00  0.00     0.030 A 
HETATM   10  C   UNL     1       5.413   0.016  -0.195  1.00  0.00    -0.034 A 
HETATM   11  C   UNL     1       6.904   0.020  -0.379  1.00  0.00     0.050 C 
HETATM   12  C   UNL     1       4.729  -1.205  -0.189  1.00  0.00     0.009 A 
HETATM   13  C   UNL     1       3.345  -1.247  -0.013  1.00  0.00     0.008 A 
HETATM   14  H   UNL     1       6.310   2.502  -0.233  1.00  0.00     0.169 HD
ENDROOT
BRANCH   8  15
HETATM   15  C   UNL     1       2.578   4.976   0.639  1.00  0.00     0.202 C 
HETATM   16  N   UNL     1       3.346   5.798   1.528  1.00  0.00    -0.336 N 
HETATM   17  C   UNL     1       2.864   7.034   1.888  1.00  0.00     0.255 C 
HETATM   18  H   UNL     1       4.347   5.829   1.346  1.00  0.00     0.164 HD
HETATM   19  O   UNL     1       3.605   7.952   2.212  1.00  0.00    -0.268 OA
HETATM   20  C   UNL     1       1.394   7.169   1.898  1.00  0.00     0.053 A 
HETATM   21  C   UNL     1       0.640   6.036   1.569  1.00  0.00     0.026 A 
HETATM   22  C   UNL     1       0.780   8.363   2.285  1.00  0.00     0.019 A 
HETATM   23  N   UNL     1       1.264   4.800   1.267  1.00  0.00    -0.266 NA
HETATM   24  C   UNL     1      -0.747   6.088   1.718  1.00  0.00     0.024 A 
HETATM   25  H   UNL     1       1.419   4.334   2.162  1.00  0.00     0.130 HD
HETATM   26  C   UNL     1      -1.371   7.277   2.107  1.00  0.00     0.002 A 
HETATM   27  C   UNL     1      -0.610   8.415   2.381  1.00  0.00     0.001 A 
ENDBRANCH   8  15
TORSDOF 1
