REMARK  5 active torsions:
REMARK  status: ('A' for Active; 'I' for Inactive)
REMARK    1  A    between atoms: C_3  and  N_4 
REMARK       I    between atoms: N_4  and  C_5 
REMARK    2  A    between atoms: C_5  and  C_6 
REMARK    3  A    between atoms: C_6  and  N_7 
REMARK       I    between atoms: N_7  and  C_8 
REMARK    4  A    between atoms: C_8  and  C_9 
REMARK    5  A    between atoms: C_10  and  C_11 
ROOT
HETATM    1  N   UNL     1       1.013   0.183   1.609  1.00  0.00    -0.348 N 
HETATM    2  C   UNL     1       1.694   0.892   0.648  1.00  0.00     0.255 C 
HETATM    3  O   UNL     1       2.061   0.379  -0.405  1.00  0.00    -0.268 OA
HETATM    4  H   UNL     1       0.828   0.624   2.500  1.00  0.00     0.163 HD
ENDROOT
BRANCH   1   5
HETATM    5  C   UNL     1       0.466  -1.142   1.378  1.00  0.00     0.226 C 
BRANCH   5   6
HETATM    6  C   UNL     1       1.468  -2.300   1.485  1.00  0.00     0.239 C 
HETATM    7  N   UNL     1       2.564  -2.151   0.649  1.00  0.00    -0.325 N 
HETATM    8  H   UNL     1       2.438  -1.446  -0.078  1.00  0.00     0.169 HD
HETATM    9  O   UNL     1       1.194  -3.298   2.146  1.00  0.00    -0.271 OA
BRANCH   7  10
HETATM   10  C   UNL     1       3.523  -3.158   0.387  1.00  0.00     0.046 A 
HETATM   11  C   UNL     1       3.875  -3.388  -0.965  1.00  0.00    -0.035 A 
HETATM   12  C   UNL     1       3.234  -2.635  -2.103  1.00  0.00     0.050 C 
HETATM   13  C   UNL     1       4.823  -4.375  -1.278  1.00  0.00     0.009 A 
HETATM   14  C   UNL     1       5.416  -5.132  -0.275  1.00  0.00     0.001 A 
HETATM   15  C   UNL     1       5.087  -4.893   1.055  1.00  0.00     0.009 A 
HETATM   16  C   UNL     1       4.163  -3.891   1.408  1.00  0.00    -0.035 A 
HETATM   17  C   UNL     1       3.954  -3.651   2.879  1.00  0.00     0.050 C 
ENDBRANCH   7  10
ENDBRANCH   5   6
ENDBRANCH   1   5
BRANCH   2  18
HETATM   18  C   UNL     1       1.929   2.279   1.002  1.00  0.00     0.080 A 
HETATM   19  C   UNL     1       3.078   3.118   0.817  1.00  0.00     0.104 A 
HETATM   20  N   UNL     1       2.813   4.366   1.254  1.00  0.00    -0.174 NA
HETATM   21  N   UNL     1       1.554   4.330   1.692  1.00  0.00    -0.288 N 
HETATM   22  H   UNL     1       1.146   5.188   2.049  1.00  0.00     0.188 HD
HETATM   23  C   UNL     1       0.982   3.104   1.587  1.00  0.00     0.128 A 
BRANCH  19  24
HETATM   24  C   UNL     1       4.422   2.817   0.295  1.00  0.00    -0.004 A 
HETATM   25  C   UNL     1       4.959   1.522   0.301  1.00  0.00     0.017 A 
HETATM   26  C   UNL     1       6.260   1.286  -0.160  1.00  0.00     0.043 A 
HETATM   27  C   UNL     1       7.035   2.344  -0.617  1.00  0.00     0.116 A 
HETATM   28  F   UNL     1       8.284   2.116  -1.043  1.00  0.00    -0.206 F 
HETATM   29  C   UNL     1       6.534   3.637  -0.628  1.00  0.00     0.043 A 
HETATM   30  C   UNL     1       5.233   3.871  -0.175  1.00  0.00     0.017 A 
ENDBRANCH  19  24
ENDBRANCH   2  18
TORSDOF 5
