REMARK  7 active torsions:
REMARK  status: ('A' for Active; 'I' for Inactive)
REMARK    1  A    between atoms: C_7  and  C_8 
REMARK    2  A    between atoms: C_8  and  C_9 
REMARK    3  A    between atoms: C_9  and  C_10 
REMARK    4  A    between atoms: C_10  and  O_11 
REMARK    5  A    between atoms: C_13  and  C_14 
REMARK    6  A    between atoms: C_21  and  C_22 
REMARK       I    between atoms: C_22  and  N_23 
REMARK    7  A    between atoms: N_23  and  C_24 
ROOT
HETATM    1  C   UNL     1       1.101   0.095  -0.550  1.00  0.00     0.070 C 
HETATM    2  C   UNL     1       2.528   0.034  -0.063  1.00  0.00     0.037 C 
HETATM    3  N   UNL     1       3.143   1.265   0.137  1.00  0.00    -0.192 N 
HETATM    4  C   UNL     1       4.466   1.402   0.348  1.00  0.00     0.726 A 
HETATM    5  N   UNL     1       5.240   0.286   0.510  1.00  0.00    -0.083 N 
HETATM    6  N   UNL     1       6.545   0.609   0.643  1.00  0.00    -0.140 NA
HETATM    7  C   UNL     1       6.479   1.947   0.588  1.00  0.00     0.166 A 
HETATM    8  N   UNL     1       5.219   2.469   0.405  1.00  0.00    -0.046 NA
HETATM    9  C   UNL     1       4.721  -1.086   0.482  1.00  0.00     0.202 C 
HETATM   10  C   UNL     1       3.239  -1.108   0.115  1.00  0.00     0.062 C 
HETATM   11  H   UNL     1       2.608   2.103  -0.080  1.00  0.00     0.184 HD
ENDROOT
BRANCH  10  12
HETATM   12  C   UNL     1       2.706  -2.474  -0.135  1.00  0.00     0.256 C 
HETATM   13  N   UNL     1       1.551  -2.750   0.565  1.00  0.00    -0.323 N 
HETATM   14  H   UNL     1       1.199  -2.024   1.175  1.00  0.00     0.169 HD
HETATM   15  O   UNL     1       3.330  -3.222  -0.875  1.00  0.00    -0.267 OA
BRANCH  13  16
HETATM   16  C   UNL     1       0.781  -3.930   0.507  1.00  0.00     0.035 A 
HETATM   17  C   UNL     1       1.148  -5.068  -0.215  1.00  0.00     0.031 A 
HETATM   18  C   UNL     1       0.319  -6.196  -0.236  1.00  0.00     0.026 A 
HETATM   19  C   UNL     1      -0.885  -6.186   0.462  1.00  0.00     0.034 A 
HETATM   20 CL   UNL     1      -1.909  -7.567   0.426  1.00  0.00    -0.084 Cl
HETATM   21  C   UNL     1      -1.264  -5.061   1.188  1.00  0.00     0.026 A 
HETATM   22  C   UNL     1      -0.429  -3.939   1.215  1.00  0.00     0.031 A 
ENDBRANCH  13  16
ENDBRANCH  10  12
BRANCH   9  23
HETATM   23  C   UNL     1       5.000  -1.786   1.812  1.00  0.00    -0.028 A 
HETATM   24  C   UNL     1       4.553  -1.258   3.038  1.00  0.00     0.012 A 
HETATM   25  C   UNL     1       4.826  -1.921   4.235  1.00  0.00     0.043 A 
HETATM   26  C   UNL     1       5.538  -3.114   4.214  1.00  0.00     0.116 A 
HETATM   27  F   UNL     1       5.801  -3.746   5.365  1.00  0.00    -0.206 F 
HETATM   28  C   UNL     1       5.981  -3.661   3.017  1.00  0.00     0.043 A 
HETATM   29  C   UNL     1       5.710  -3.002   1.817  1.00  0.00     0.012 A 
ENDBRANCH   9  23
BRANCH   7  30
HETATM   30  C   UNL     1       7.680   2.810   0.728  1.00  0.00     0.085 C 
BRANCH  30  31
HETATM   31  C   UNL     1       7.615   3.742   1.936  1.00  0.00     0.034 C 
BRANCH  31  32
HETATM   32  C   UNL     1       7.567   2.994   3.262  1.00  0.00     0.164 C 
BRANCH  32  33
HETATM   33  O   UNL     1       7.592   3.926   4.338  1.00  0.00    -0.401 OA
HETATM   34  H   UNL     1       8.433   4.412   4.285  1.00  0.00     0.209 HD
ENDBRANCH  32  33
ENDBRANCH  31  32
ENDBRANCH  30  31
ENDBRANCH   7  30
TORSDOF 7
