REMARK  6 active torsions:
REMARK  status: ('A' for Active; 'I' for Inactive)
REMARK    1  A    between atoms: C_5  and  C_6 
REMARK    2  A    between atoms: C_11  and  C_12 
REMARK       I    between atoms: C_12  and  N_13 
REMARK    3  A    between atoms: N_13  and  C_14 
REMARK    4  A    between atoms: C_17  and  C_18 
REMARK    5  A    between atoms: C_18  and  O_19 
REMARK    6  A    between atoms: C_25  and  C_26 
ROOT
HETATM    1  C   UNL     1       2.216   8.136 -10.299  1.00  0.00     0.118 C 
HETATM    2  N   UNL     1       2.664   7.917 -11.668  1.00  0.00    -0.366 N 
HETATM    3  C   UNL     1       3.871   7.398 -11.966  1.00  0.00     0.123 A 
HETATM    4  N   UNL     1       4.736   6.972 -10.998  1.00  0.00    -0.240 N 
HETATM    5  N   UNL     1       5.857   6.397 -11.479  1.00  0.00    -0.165 NA
HETATM    6  C   UNL     1       5.735   6.548 -12.819  1.00  0.00     0.148 A 
HETATM    7  C   UNL     1       4.502   7.170 -13.159  1.00  0.00     0.089 A 
HETATM    8  C   UNL     1       4.470   7.065  -9.576  1.00  0.00     0.221 C 
HETATM    9  C   UNL     1       2.959   7.213  -9.316  1.00  0.00     0.066 C 
HETATM   10  H   UNL     1       2.081   8.340 -12.389  1.00  0.00     0.161 HD
ENDROOT
BRANCH   6  11
HETATM   11  C   UNL     1       6.767   6.091 -13.768  1.00  0.00     0.276 C 
HETATM   12  N   UNL     1       7.836   5.494 -13.127  1.00  0.00    -0.322 N 
HETATM   13  H   UNL     1       7.736   5.462 -12.116  1.00  0.00     0.169 HD
HETATM   14  O   UNL     1       6.627   6.244 -14.976  1.00  0.00    -0.266 OA
BRANCH  12  15
HETATM   15  C   UNL     1       8.986   4.927 -13.702  1.00  0.00     0.035 A 
HETATM   16  C   UNL     1       9.254   4.935 -15.071  1.00  0.00     0.030 A 
HETATM   17  C   UNL     1      10.417   4.336 -15.571  1.00  0.00     0.012 A 
HETATM   18  C   UNL     1      11.337   3.719 -14.714  1.00  0.00    -0.030 A 
HETATM   19  C   UNL     1      11.065   3.716 -13.340  1.00  0.00     0.012 A 
HETATM   20  C   UNL     1       9.904   4.319 -12.840  1.00  0.00     0.030 A 
BRANCH  18  21
HETATM   21  C   UNL     1      12.570   3.031 -15.253  1.00  0.00     0.147 C 
HETATM   22  C   UNL     1      12.251   1.626 -15.751  1.00  0.00     0.044 C 
BRANCH  21  23
HETATM   23  O   UNL     1      13.121   3.795 -16.325  1.00  0.00    -0.391 OA
HETATM   24  H   UNL     1      13.925   3.338 -16.619  1.00  0.00     0.210 HD
ENDBRANCH  21  23
ENDBRANCH  18  21
ENDBRANCH  12  15
ENDBRANCH   6  11
BRANCH   8  25
HETATM   25  C   UNL     1       5.309   8.160  -8.958  1.00  0.00     0.409 C 
HETATM   26  F   UNL     1       5.202   9.349  -9.576  1.00  0.00    -0.169 F 
HETATM   27  F   UNL     1       4.952   8.346  -7.661  1.00  0.00    -0.169 F 
HETATM   28  F   UNL     1       6.624   7.832  -8.941  1.00  0.00    -0.169 F 
ENDBRANCH   8  25
BRANCH   1  29
HETATM   29  C   UNL     1       2.194   9.606  -9.918  1.00  0.00    -0.035 A 
HETATM   30  C   UNL     1       1.402  10.019  -8.833  1.00  0.00     0.010 A 
HETATM   31  C   UNL     1       1.316  11.368  -8.473  1.00  0.00     0.007 A 
HETATM   32  C   UNL     1       2.017  12.339  -9.192  1.00  0.00    -0.062 A 
HETATM   33  C   UNL     1       1.949  13.786  -8.806  1.00  0.00     0.048 C 
HETATM   34  C   UNL     1       2.821  11.937 -10.262  1.00  0.00     0.007 A 
HETATM   35  C   UNL     1       2.901  10.589 -10.625  1.00  0.00     0.010 A 
ENDBRANCH   1  29
TORSDOF 6
