REMARK  6 active torsions:
REMARK  status: ('A' for Active; 'I' for Inactive)
REMARK    1  A    between atoms: C_8  and  N_9 
REMARK       I    between atoms: N_9  and  C_10 
REMARK    2  A    between atoms: C_10  and  C_11 
REMARK    3  A    between atoms: C_11  and  N_12 
REMARK    4  A    between atoms: N_12  and  C_13 
REMARK    5  A    between atoms: C_13  and  C_14 
REMARK    6  A    between atoms: C_13  and  C_17 
ROOT
HETATM    1  C   UNL     1       0.469  -1.477  -0.591  1.00  0.00     0.372 C 
ENDROOT
BRANCH   1   2
HETATM    2  C   UNL     1      -0.605  -2.402  -0.017  1.00  0.00     0.250 C 
HETATM    3  N   UNL     1      -1.761  -2.414  -0.766  1.00  0.00    -0.322 N 
HETATM    4  H   UNL     1      -1.834  -1.667  -1.451  1.00  0.00     0.169 HD
HETATM    5  O   UNL     1      -0.364  -3.082   0.977  1.00  0.00    -0.271 OA
BRANCH   3   6
HETATM    6  C   UNL     1      -2.851  -3.253  -0.609  1.00  0.00     0.085 A 
HETATM    7  C   UNL     1      -4.040  -3.054  -1.287  1.00  0.00     0.052 A 
HETATM    8  C   UNL     1      -4.504  -2.027  -2.247  1.00  0.00     0.072 C 
HETATM    9  N   UNL     1      -4.875  -4.054  -0.878  1.00  0.00    -0.280 N 
HETATM   10  H   UNL     1      -5.838  -4.216  -1.152  1.00  0.00     0.189 HD
HETATM   11  N   UNL     1      -4.317  -4.912  -0.022  1.00  0.00    -0.177 NA
HETATM   12  C   UNL     1      -3.071  -4.442   0.152  1.00  0.00     0.079 A 
HETATM   13  C   UNL     1      -2.154  -5.217   1.025  1.00  0.00     0.075 C 
ENDBRANCH   3   6
ENDBRANCH   1   2
BRANCH   1  14
HETATM   14  N   UNL     1      -0.050  -0.265  -1.230  1.00  0.00     0.101 N 
HETATM   15  H   UNL     1       0.737   0.177  -1.706  1.00  0.00     0.317 HD
BRANCH  14  16
HETATM   16  C   UNL     1      -0.733   0.763  -0.409  1.00  0.00     0.259 C 
BRANCH  16  17
HETATM   17  C   UNL     1      -0.087   1.223   0.952  1.00  0.00     0.015 C 
HETATM   18  C   UNL     1      -0.768   2.495   1.508  1.00  0.00     0.012 C 
HETATM   19  C   UNL     1      -0.189   0.172   2.071  1.00  0.00     0.012 C 
ENDBRANCH  16  17
BRANCH  16  20
HETATM   20  C   UNL     1      -0.946   1.960  -1.357  1.00  0.00    -0.003 A 
HETATM   21  C   UNL     1      -2.204   2.328  -1.865  1.00  0.00     0.042 A 
HETATM   22 CL   UNL     1      -3.658   1.498  -1.445  1.00  0.00    -0.084 Cl
HETATM   23  C   UNL     1      -2.330   3.412  -2.744  1.00  0.00     0.024 A 
HETATM   24  C   UNL     1      -1.210   4.148  -3.129  1.00  0.00     0.002 A 
HETATM   25  C   UNL     1       0.043   3.804  -2.637  1.00  0.00     0.001 A 
HETATM   26  C   UNL     1       0.174   2.722  -1.764  1.00  0.00     0.011 A 
ENDBRANCH  16  20
ENDBRANCH  14  16
ENDBRANCH   1  14
TORSDOF 6
