REMARK  2 active torsions:
REMARK  status: ('A' for Active; 'I' for Inactive)
REMARK       I    between atoms: C_2  and  N_3 
REMARK    1  A    between atoms: N_3  and  C_4 
REMARK    2  A    between atoms: C_15  and  N_16 
REMARK       I    between atoms: N_16  and  C_17 
ROOT
HETATM    1  C   UNL     1       2.735   1.182  -2.069  1.00  0.00     0.036 A 
HETATM    2  C   UNL     1       2.787   2.540  -2.402  1.00  0.00     0.062 A 
HETATM    3  C   UNL     1       2.125   3.053  -3.514  1.00  0.00     0.070 A 
HETATM    4  C   UNL     1       1.385   2.170  -4.320  1.00  0.00    -0.006 A 
HETATM    5  C   UNL     1       1.323   0.806  -4.000  1.00  0.00     0.016 A 
HETATM    6  C   UNL     1       1.994   0.318  -2.879  1.00  0.00     0.030 A 
HETATM    7  N   UNL     1       2.206   4.368  -3.789  1.00  0.00    -0.247 NA
HETATM    8  C   UNL     1       1.568   4.871  -4.860  1.00  0.00     0.070 A 
HETATM    9  C   UNL     1       0.806   4.061  -5.721  1.00  0.00    -0.006 A 
HETATM   10  C   UNL     1       0.723   2.695  -5.434  1.00  0.00     0.027 A 
HETATM   11  C   UNL     1       1.655   6.233  -5.137  1.00  0.00     0.062 A 
HETATM   12  C   UNL     1       1.011   6.810  -6.236  1.00  0.00     0.036 A 
HETATM   13  C   UNL     1       0.259   5.991  -7.082  1.00  0.00     0.030 A 
HETATM   14  C   UNL     1       0.155   4.624  -6.828  1.00  0.00     0.016 A 
ENDROOT
BRANCH   1  15
HETATM   15  N   UNL     1       3.382   0.612  -0.951  1.00  0.00    -0.327 N 
HETATM   16  C   UNL     1       4.178   1.253  -0.019  1.00  0.00     0.218 C 
HETATM   17  C   UNL     1       4.693   0.314   1.044  1.00  0.00     0.117 C 
HETATM   18  O   UNL     1       4.497   2.436  -0.011  1.00  0.00    -0.274 OA
HETATM   19  H   UNL     1       3.253  -0.384  -0.827  1.00  0.00     0.169 HD
ENDBRANCH   1  15
BRANCH  12  20
HETATM   20  N   UNL     1       1.066   8.183  -6.562  1.00  0.00    -0.327 N 
HETATM   21  C   UNL     1       1.736   9.184  -5.883  1.00  0.00     0.218 C 
HETATM   22  C   UNL     1       1.570  10.543  -6.520  1.00  0.00     0.117 C 
HETATM   23  O   UNL     1       2.406   9.061  -4.864  1.00  0.00    -0.274 OA
HETATM   24  H   UNL     1       0.551   8.460  -7.387  1.00  0.00     0.169 HD
ENDBRANCH  12  20
TORSDOF 2
