REMARK  5 active torsions:
REMARK  status: ('A' for Active; 'I' for Inactive)
REMARK    1  A    between atoms: C_3  and  O_4 
REMARK    2  A    between atoms: C_6  and  N_7 
REMARK       I    between atoms: N_7  and  C_8 
REMARK    3  A    between atoms: C_8  and  C_9 
REMARK    4  A    between atoms: C_14  and  C_15 
REMARK    5  A    between atoms: C_23  and  C_24 
ROOT
HETATM    1  C   UNL     1      -3.685  -1.501  -0.242  1.00  0.00     0.148 A 
HETATM    2  N   UNL     1      -3.159  -0.275  -0.473  1.00  0.00    -0.165 NA
HETATM    3  N   UNL     1      -4.238   0.530  -0.491  1.00  0.00    -0.240 N 
HETATM    4  C   UNL     1      -5.416  -0.113  -0.235  1.00  0.00     0.123 A 
HETATM    5  N   UNL     1      -6.589   0.550  -0.164  1.00  0.00    -0.366 N 
HETATM    6  C   UNL     1      -6.699   1.986  -0.386  1.00  0.00     0.118 C 
HETATM    7  C   UNL     1      -5.352   2.689  -0.132  1.00  0.00     0.066 C 
HETATM    8  C   UNL     1      -4.122   1.959  -0.703  1.00  0.00     0.221 C 
HETATM    9  C   UNL     1      -5.097  -1.436  -0.085  1.00  0.00     0.089 A 
HETATM   10  H   UNL     1      -7.471   0.051  -0.062  1.00  0.00     0.161 HD
ENDROOT
BRANCH   1  11
HETATM   11  C   UNL     1      -2.848  -2.713  -0.171  1.00  0.00     0.276 C 
HETATM   12  N   UNL     1      -1.524  -2.438  -0.452  1.00  0.00    -0.322 N 
HETATM   13  H   UNL     1      -1.354  -1.459  -0.667  1.00  0.00     0.169 HD
HETATM   14  O   UNL     1      -3.333  -3.806   0.098  1.00  0.00    -0.266 OA
BRANCH  12  15
HETATM   15  C   UNL     1      -0.436  -3.326  -0.494  1.00  0.00     0.037 A 
HETATM   16  C   UNL     1      -0.526  -4.686  -0.196  1.00  0.00     0.066 A 
HETATM   17  C   UNL     1       0.611  -5.491  -0.266  1.00  0.00     0.067 A 
HETATM   18  C   UNL     1       1.845  -4.964  -0.633  1.00  0.00     0.036 A 
HETATM   19  C   UNL     1       1.942  -3.606  -0.931  1.00  0.00     0.005 A 
HETATM   20  C   UNL     1       0.807  -2.792  -0.860  1.00  0.00     0.029 A 
BRANCH  17  21
HETATM   21  O   UNL     1       0.473  -6.814   0.038  1.00  0.00    -0.361 OA
HETATM   22  H   UNL     1       1.335  -7.248  -0.054  1.00  0.00     0.217 HD
ENDBRANCH  17  21
ENDBRANCH  12  15
ENDBRANCH   1  11
BRANCH   8  23
HETATM   23  C   UNL     1      -3.851   2.251  -2.161  1.00  0.00     0.409 C 
HETATM   24  F   UNL     1      -4.726   1.677  -3.006  1.00  0.00    -0.169 F 
HETATM   25  F   UNL     1      -3.897   3.590  -2.385  1.00  0.00    -0.169 F 
HETATM   26  F   UNL     1      -2.611   1.851  -2.530  1.00  0.00    -0.169 F 
ENDBRANCH   8  23
BRANCH   6  27
HETATM   27  C   UNL     1      -7.360   2.328  -1.711  1.00  0.00    -0.035 A 
HETATM   28  C   UNL     1      -7.881   3.624  -1.899  1.00  0.00     0.012 A 
HETATM   29  C   UNL     1      -8.516   3.978  -3.092  1.00  0.00     0.043 A 
HETATM   30  C   UNL     1      -8.636   3.040  -4.108  1.00  0.00     0.116 A 
HETATM   31  F   UNL     1      -9.244   3.380  -5.252  1.00  0.00    -0.206 F 
HETATM   32  C   UNL     1      -8.136   1.755  -3.952  1.00  0.00     0.043 A 
HETATM   33  C   UNL     1      -7.507   1.399  -2.756  1.00  0.00     0.012 A 
ENDBRANCH   6  27
TORSDOF 5
