REMARK  8 active torsions:
REMARK  status: ('A' for Active; 'I' for Inactive)
REMARK    1  A    between atoms: C_4  and  S_5 
REMARK    2  A    between atoms: S_5  and  C_6 
REMARK    3  A    between atoms: C_6  and  C_7 
REMARK       I    between atoms: C_7  and  N_8 
REMARK    4  A    between atoms: N_8  and  C_9 
REMARK    5  A    between atoms: C_20  and  C_21 
REMARK    6  A    between atoms: C_27  and  C_28 
REMARK       I    between atoms: C_28  and  N_29 
REMARK    7  A    between atoms: N_29  and  C_30 
REMARK    8  A    between atoms: C_31  and  O_32 
ROOT
HETATM    1  C   UNL     1       1.075  -0.288   0.236  1.00  0.00     0.069 C 
HETATM    2  C   UNL     1       2.575  -0.307   0.045  1.00  0.00     0.019 A 
HETATM    3  N   UNL     1       3.137   0.910  -0.289  1.00  0.00    -0.353 N 
HETATM    4  C   UNL     1       4.471   1.146  -0.540  1.00  0.00     0.087 A 
HETATM    5  C   UNL     1       5.351   0.130  -0.405  1.00  0.00     0.055 A 
HETATM    6  C   UNL     1       6.814   0.249  -0.800  1.00  0.00     0.019 C 
HETATM    7  N   UNL     1       8.027   0.347  -1.128  1.00  0.00    -0.096 N 
HETATM    8  C   UNL     1       4.871  -1.299  -0.048  1.00  0.00     0.104 A 
HETATM    9  C   UNL     1       3.356  -1.412   0.166  1.00  0.00     0.046 A 
HETATM   10  H   UNL     1       2.544   1.734  -0.249  1.00  0.00     0.166 HD
ENDROOT
BRANCH   4  11
HETATM   11  S   UNL     1       4.956   2.758  -1.006  1.00  0.00    -0.102 SA
BRANCH  11  12
HETATM   12  C   UNL     1       5.071   2.697  -2.818  1.00  0.00     0.184 C 
BRANCH  12  13
HETATM   13  C   UNL     1       4.504   1.451  -3.473  1.00  0.00     0.231 C 
HETATM   14  N   UNL     1       3.125   1.453  -3.583  1.00  0.00    -0.325 N 
HETATM   15  H   UNL     1       2.620   2.172  -3.077  1.00  0.00     0.169 HD
HETATM   16  O   UNL     1       5.250   0.555  -3.857  1.00  0.00    -0.272 OA
BRANCH  14  17
HETATM   17  C   UNL     1       2.311   0.447  -4.164  1.00  0.00     0.056 A 
HETATM   18  C   UNL     1       0.921   0.499  -3.952  1.00  0.00     0.060 A 
HETATM   19 CL   UNL     1       0.209   1.786  -3.038  1.00  0.00    -0.082 Cl
HETATM   20  C   UNL     1       0.076  -0.490  -4.465  1.00  0.00     0.026 A 
HETATM   21  C   UNL     1       0.608  -1.538  -5.215  1.00  0.00     0.002 A 
HETATM   22  C   UNL     1       1.978  -1.585  -5.459  1.00  0.00     0.002 A 
HETATM   23  C   UNL     1       2.822  -0.596  -4.942  1.00  0.00     0.031 A 
ENDBRANCH  14  17
ENDBRANCH  12  13
ENDBRANCH  11  12
ENDBRANCH   4  11
BRANCH   8  24
HETATM   24  C   UNL     1       5.433  -2.281  -1.081  1.00  0.00    -0.044 A 
HETATM   25  C   UNL     1       6.568  -3.051  -0.772  1.00  0.00     0.008 A 
HETATM   26  C   UNL     1       7.131  -3.900  -1.726  1.00  0.00     0.001 A 
HETATM   27  C   UNL     1       6.562  -4.000  -2.994  1.00  0.00     0.000 A 
HETATM   28  C   UNL     1       5.435  -3.247  -3.311  1.00  0.00     0.001 A 
HETATM   29  C   UNL     1       4.878  -2.388  -2.365  1.00  0.00     0.008 A 
ENDBRANCH   8  24
BRANCH   9  30
HETATM   30  C   UNL     1       2.702  -2.679   0.652  1.00  0.00     0.255 C 
HETATM   31  N   UNL     1       3.133  -3.853   0.088  1.00  0.00    -0.321 N 
HETATM   32  H   UNL     1       4.014  -3.900  -0.406  1.00  0.00     0.169 HD
HETATM   33  O   UNL     1       1.831  -2.618   1.519  1.00  0.00    -0.268 OA
BRANCH  31  34
HETATM   34  C   UNL     1       2.447  -5.092   0.057  1.00  0.00     0.068 A 
HETATM   35  C   UNL     1       3.162  -6.216  -0.410  1.00  0.00     0.095 A 
HETATM   36  C   UNL     1       2.508  -7.443  -0.558  1.00  0.00     0.039 A 
HETATM   37  C   UNL     1       1.152  -7.556  -0.249  1.00  0.00     0.003 A 
HETATM   38  C   UNL     1       0.448  -6.449   0.220  1.00  0.00     0.002 A 
HETATM   39  C   UNL     1       1.093  -5.221   0.378  1.00  0.00     0.032 A 
BRANCH  35  40
HETATM   40  O   UNL     1       4.490  -5.999  -0.688  1.00  0.00    -0.354 OA
HETATM   41  C   UNL     1       5.276  -7.134  -1.027  1.00  0.00     0.210 C 
ENDBRANCH  35  40
ENDBRANCH  31  34
ENDBRANCH   9  30
TORSDOF 8
