REMARK  4 active torsions:
REMARK  status: ('A' for Active; 'I' for Inactive)
REMARK    1  A    between atoms: C_6  and  C_7 
REMARK    2  A    between atoms: C_7  and  N_8 
REMARK    3  A    between atoms: C_11  and  C_12 
REMARK    4  A    between atoms: C_12  and  C_13 
ROOT
HETATM    1  N   UNL     1      -4.271  -1.570   0.144  1.00  0.00    -0.064 N 
HETATM    2  H   UNL     1      -5.048  -1.378  -0.511  1.00  0.00     0.280 HD
HETATM    3  C   UNL     1      -3.535  -2.771  -0.420  1.00  0.00     0.247 C 
HETATM    4  C   UNL     1      -4.490  -3.967  -0.493  1.00  0.00     0.086 C 
HETATM    5  C   UNL     1      -5.067  -4.262   0.894  1.00  0.00     0.016 C 
HETATM    6  C   UNL     1      -5.745  -3.027   1.482  1.00  0.00     0.029 C 
HETATM    7  C   UNL     1      -4.817  -1.821   1.516  1.00  0.00     0.235 C 
ENDROOT
BRANCH   1   8
HETATM    8  C   UNL     1      -3.443  -0.298   0.054  1.00  0.00     0.313 C 
BRANCH   8   9
HETATM    9  C   UNL     1      -3.502   0.243  -1.332  1.00  0.00     0.131 A 
HETATM   10  N   UNL     1      -4.269  -0.242  -2.291  1.00  0.00    -0.232 NA
HETATM   11  C   UNL     1      -3.993   0.525  -3.400  1.00  0.00     0.085 A 
HETATM   12  C   UNL     1      -3.063   1.513  -3.096  1.00  0.00     0.062 A 
HETATM   13  C   UNL     1      -4.496   0.433  -4.705  1.00  0.00     0.034 A 
HETATM   14  C   UNL     1      -2.602   2.443  -4.029  1.00  0.00     0.032 A 
HETATM   15  N   UNL     1      -2.769   1.318  -1.770  1.00  0.00    -0.341 N 
HETATM   16  C   UNL     1      -3.115   2.338  -5.327  1.00  0.00     0.002 A 
HETATM   17  C   UNL     1      -4.044   1.350  -5.663  1.00  0.00     0.002 A 
HETATM   18  H   UNL     1      -2.116   1.875  -1.235  1.00  0.00     0.167 HD
ENDBRANCH   8   9
ENDBRANCH   1   8
BRANCH   4  19
HETATM   19  C   UNL     1      -3.707  -5.161  -1.016  1.00  0.00     0.165 C 
HETATM   20  O   UNL     1      -2.488  -5.212  -0.857  1.00  0.00    -0.292 OA
BRANCH  19  21
HETATM   21  C   UNL     1      -4.407  -6.278  -1.724  1.00  0.00     0.012 A 
HETATM   22  C   UNL     1      -3.619  -7.289  -2.292  1.00  0.00     0.039 A 
HETATM   23  C   UNL     1      -4.221  -8.350  -2.966  1.00  0.00     0.035 A 
HETATM   24 CL   UNL     1      -3.245  -9.581  -3.666  1.00  0.00    -0.084 Cl
HETATM   25  C   UNL     1      -5.607  -8.420  -3.079  1.00  0.00     0.024 A 
HETATM   26  C   UNL     1      -6.397  -7.420  -2.516  1.00  0.00     0.003 A 
HETATM   27  C   UNL     1      -5.802  -6.350  -1.842  1.00  0.00     0.015 A 
ENDBRANCH  19  21
ENDBRANCH   4  19
TORSDOF 4
