REMARK  8 active torsions:
REMARK  status: ('A' for Active; 'I' for Inactive)
REMARK    1  A    between atoms: O_2  and  C_3 
REMARK    2  A    between atoms: C_6  and  C_7 
REMARK    3  A    between atoms: C_11  and  S_12 
REMARK    4  A    between atoms: S_12  and  C_13 
REMARK    5  A    between atoms: C_13  and  C_14 
REMARK       I    between atoms: C_14  and  N_15 
REMARK    6  A    between atoms: N_15  and  C_16 
REMARK    7  A    between atoms: C_17  and  C_18 
REMARK       I    between atoms: C_18  and  N_19 
REMARK    8  A    between atoms: N_19  and  C_20 
ROOT
HETATM    1  C   UNL     1       5.676   0.992 -11.305  1.00  0.00     0.231 C 
HETATM    2  N   UNL     1       5.746  -0.384 -11.241  1.00  0.00    -0.326 N 
HETATM    3  O   UNL     1       5.158   1.600 -12.246  1.00  0.00    -0.272 OA
HETATM    4  H   UNL     1       5.847  -0.767 -10.304  1.00  0.00     0.169 HD
ENDROOT
BRANCH   1   5
HETATM    5  C   UNL     1       6.366   1.750 -10.176  1.00  0.00     0.185 C 
BRANCH   5   6
HETATM    6  S   UNL     1       5.907   1.199  -8.497  1.00  0.00    -0.081 SA
BRANCH   6   7
HETATM    7  C   UNL     1       7.039  -0.073  -8.277  1.00  0.00     0.185 A 
HETATM    8  N   UNL     1       7.592  -0.414  -7.088  1.00  0.00    -0.253 N 
HETATM    9  N   UNL     1       8.447  -1.447  -7.240  1.00  0.00    -0.152 NA
HETATM   10  H   UNL     1       7.450  -0.003  -6.173  1.00  0.00     0.191 HD
HETATM   11  C   UNL     1       8.361  -1.692  -8.561  1.00  0.00     0.182 A 
HETATM   12  N   UNL     1       7.470  -0.869  -9.215  1.00  0.00    -0.201 NA
BRANCH  11  13
HETATM   13  C   UNL     1       9.103  -2.716  -9.288  1.00  0.00     0.014 A 
HETATM   14  C   UNL     1       9.962  -3.603  -8.633  1.00  0.00     0.018 A 
HETATM   15  C   UNL     1      10.650  -4.583  -9.360  1.00  0.00     0.037 A 
HETATM   16  C   UNL     1      10.491  -4.694 -10.744  1.00  0.00     0.068 A 
HETATM   17  C   UNL     1       9.649  -3.803 -11.405  1.00  0.00     0.037 A 
HETATM   18  C   UNL     1       8.961  -2.823 -10.681  1.00  0.00     0.018 A 
BRANCH  16  19
HETATM   19  O   UNL     1      11.210  -5.699 -11.330  1.00  0.00    -0.356 OA
HETATM   20  C   UNL     1      10.976  -5.924 -12.716  1.00  0.00     0.210 C 
ENDBRANCH  16  19
ENDBRANCH  11  13
ENDBRANCH   6   7
ENDBRANCH   5   6
ENDBRANCH   1   5
BRANCH   2  21
HETATM   21  C   UNL     1       5.207  -1.245 -12.215  1.00  0.00     0.050 A 
HETATM   22  C   UNL     1       5.664  -1.315 -13.542  1.00  0.00     0.058 A 
HETATM   23  C   UNL     1       5.110  -2.257 -14.424  1.00  0.00     0.019 A 
HETATM   24  C   UNL     1       4.103  -3.120 -13.995  1.00  0.00     0.001 A 
HETATM   25  C   UNL     1       3.673  -3.076 -12.671  1.00  0.00     0.002 A 
HETATM   26  C   UNL     1       4.237  -2.158 -11.781  1.00  0.00     0.030 A 
BRANCH  22  27
HETATM   27  C   UNL     1       6.895  -0.644 -14.016  1.00  0.00     0.254 C 
HETATM   28  N   UNL     1       6.836   0.724 -14.137  1.00  0.00    -0.352 N 
HETATM   29  H   UNL     1       5.999   1.199 -13.793  1.00  0.00     0.163 HD
HETATM   30  O   UNL     1       7.869  -1.332 -14.310  1.00  0.00    -0.268 OA
BRANCH  28  31
HETATM   31  C   UNL     1       7.955   1.513 -14.542  1.00  0.00     0.084 A 
HETATM   32  C   UNL     1       7.840   2.444 -15.716  1.00  0.00     0.027 A 
HETATM   33  C   UNL     1       7.957   3.002 -14.327  1.00  0.00     0.027 A 
ENDBRANCH  28  31
ENDBRANCH  22  27
ENDBRANCH   2  21
TORSDOF 8
