REMARK  6 active torsions:
REMARK  status: ('A' for Active; 'I' for Inactive)
REMARK    1  A    between atoms: C_6  and  C_7 
REMARK    2  A    between atoms: C_10  and  O_11 
REMARK    3  A    between atoms: C_15  and  C_16 
REMARK    4  A    between atoms: C_16  and  C_17 
REMARK       I    between atoms: C_17  and  N_18 
REMARK    5  A    between atoms: N_18  and  C_19 
REMARK    6  A    between atoms: C_19  and  C_20 
ROOT
HETATM    1  C   UNL     1       2.144   2.158   1.522  1.00  0.00     0.146 C 
ENDROOT
BRANCH   1   2
HETATM    2  C   UNL     1       1.767   2.560   0.133  1.00  0.00     0.006 A 
HETATM    3  C   UNL     1       0.572   3.160  -0.233  1.00  0.00     0.033 A 
HETATM    4  C   UNL     1      -0.617   3.571   0.552  1.00  0.00     0.070 C 
HETATM    5  N   UNL     1       0.646   3.347  -1.580  1.00  0.00    -0.282 N 
HETATM    6  H   UNL     1      -0.044   3.767  -2.195  1.00  0.00     0.189 HD
HETATM    7  N   UNL     1       1.777   2.895  -2.121  1.00  0.00    -0.173 NA
HETATM    8  C   UNL     1       2.507   2.431  -1.092  1.00  0.00     0.096 A 
BRANCH   8   9
HETATM    9  C   UNL     1       3.842   1.869  -1.353  1.00  0.00    -0.005 A 
HETATM   10  C   UNL     1       4.865   1.884  -0.401  1.00  0.00     0.016 A 
HETATM   11  C   UNL     1       6.127   1.352  -0.699  1.00  0.00     0.037 A 
HETATM   12  C   UNL     1       6.401   0.828  -1.962  1.00  0.00     0.068 A 
HETATM   13  C   UNL     1       5.392   0.805  -2.920  1.00  0.00     0.037 A 
HETATM   14  C   UNL     1       4.126   1.320  -2.614  1.00  0.00     0.016 A 
BRANCH  12  15
HETATM   15  O   UNL     1       7.676   0.364  -2.133  1.00  0.00    -0.356 OA
HETATM   16  C   UNL     1       8.105   0.187  -3.478  1.00  0.00     0.210 C 
ENDBRANCH  12  15
ENDBRANCH   8   9
ENDBRANCH   1   2
BRANCH   1  17
HETATM   17  C   UNL     1       2.474   0.687   1.707  1.00  0.00     0.222 C 
HETATM   18  N   UNL     1       1.710  -0.205   0.994  1.00  0.00    -0.350 N 
HETATM   19  H   UNL     1       1.061   0.129   0.291  1.00  0.00     0.163 HD
HETATM   20  O   UNL     1       3.321   0.328   2.524  1.00  0.00    -0.273 OA
BRANCH  18  21
HETATM   21  C   UNL     1       1.718  -1.630   1.282  1.00  0.00     0.150 C 
HETATM   22  C   UNL     1       0.333  -2.051   1.769  1.00  0.00     0.040 C 
BRANCH  21  23
HETATM   23  C   UNL     1       2.141  -2.385   0.060  1.00  0.00     0.127 A 
HETATM   24  N   UNL     1       1.531  -3.417  -0.492  1.00  0.00    -0.231 NA
HETATM   25  C   UNL     1       2.371  -3.861  -1.482  1.00  0.00     0.085 A 
HETATM   26  C   UNL     1       3.503  -3.059  -1.569  1.00  0.00     0.062 A 
HETATM   27  C   UNL     1       2.240  -4.963  -2.340  1.00  0.00     0.034 A 
HETATM   28  N   UNL     1       3.324  -2.114  -0.593  1.00  0.00    -0.341 N 
HETATM   29  C   UNL     1       4.532  -3.287  -2.486  1.00  0.00     0.032 A 
HETATM   30  H   UNL     1       3.966  -1.369  -0.355  1.00  0.00     0.167 HD
HETATM   31  C   UNL     1       4.387  -4.395  -3.331  1.00  0.00     0.002 A 
HETATM   32  C   UNL     1       3.262  -5.221  -3.261  1.00  0.00     0.002 A 
ENDBRANCH  21  23
ENDBRANCH  18  21
ENDBRANCH   1  17
TORSDOF 6
