REMARK  5 active torsions:
REMARK  status: ('A' for Active; 'I' for Inactive)
REMARK    1  A    between atoms: O_2  and  C_3 
REMARK    2  A    between atoms: C_4  and  N_5 
REMARK       I    between atoms: N_5  and  C_6 
REMARK    3  A    between atoms: C_6  and  C_7 
REMARK    4  A    between atoms: C_8  and  S_9 
REMARK    5  A    between atoms: S_9  and  C_10 
ROOT
HETATM    1  C   UNL     1       2.755   4.358   2.384  1.00  0.00     0.068 A 
HETATM    2  C   UNL     1       1.926   3.907   3.406  1.00  0.00     0.113 A 
HETATM    3  N   UNL     1       2.035   4.384   4.676  1.00  0.00    -0.253 NA
HETATM    4  C   UNL     1       2.971   5.330   4.915  1.00  0.00     0.118 A 
HETATM    5  C   UNL     1       3.824   5.835   3.948  1.00  0.00     0.020 A 
HETATM    6  C   UNL     1       3.713   5.339   2.655  1.00  0.00     0.021 A 
ENDROOT
BRANCH   1   7
HETATM    7  C   UNL     1       2.668   3.837   1.013  1.00  0.00     0.259 C 
HETATM    8  N   UNL     1       3.448   2.723   0.801  1.00  0.00    -0.320 N 
HETATM    9  H   UNL     1       3.992   2.357   1.579  1.00  0.00     0.169 HD
HETATM   10  O   UNL     1       1.994   4.452   0.199  1.00  0.00    -0.267 OA
BRANCH   8  11
HETATM   11  C   UNL     1       3.598   1.992  -0.396  1.00  0.00     0.071 A 
HETATM   12  C   UNL     1       4.547   0.952  -0.395  1.00  0.00     0.095 A 
HETATM   13  C   UNL     1       4.735   0.142  -1.517  1.00  0.00     0.042 A 
HETATM   14  C   UNL     1       3.996   0.394  -2.671  1.00  0.00     0.045 A 
HETATM   15  C   UNL     1       3.078   1.440  -2.681  1.00  0.00     0.118 A 
HETATM   16  C   UNL     1       2.869   2.239  -1.558  1.00  0.00     0.074 A 
HETATM   17  F   UNL     1       2.372   1.674  -3.796  1.00  0.00    -0.206 F 
BRANCH  12  18
HETATM   18  O   UNL     1       5.257   0.718   0.759  1.00  0.00    -0.354 OA
HETATM   19  C   UNL     1       6.634   1.059   0.580  1.00  0.00     0.210 C 
ENDBRANCH  12  18
ENDBRANCH   8  11
ENDBRANCH   1   7
BRANCH   2  20
HETATM   20  S   UNL     1       0.650   2.686   3.157  1.00  0.00    -0.070 SA
BRANCH  20  21
HETATM   21  C   UNL     1       1.518   1.203   3.630  1.00  0.00     0.007 A 
HETATM   22  C   UNL     1       1.932   0.998   4.950  1.00  0.00     0.019 A 
HETATM   23  C   UNL     1       2.595  -0.177   5.308  1.00  0.00     0.001 A 
HETATM   24  C   UNL     1       2.843  -1.157   4.349  1.00  0.00     0.000 A 
HETATM   25  C   UNL     1       2.427  -0.964   3.032  1.00  0.00     0.001 A 
HETATM   26  C   UNL     1       1.761   0.211   2.675  1.00  0.00     0.019 A 
ENDBRANCH  20  21
ENDBRANCH   2  20
TORSDOF 5
