REMARK  9 active torsions:
REMARK  status: ('A' for Active; 'I' for Inactive)
REMARK    1  A    between atoms: O_2  and  C_3 
REMARK    2  A    between atoms: C_6  and  C_7 
REMARK    3  A    between atoms: C_13  and  C_14 
REMARK       I    between atoms: C_14  and  N_15 
REMARK    4  A    between atoms: N_15  and  N_16 
REMARK    5  A    between atoms: N_16  and  C_17 
REMARK    6  A    between atoms: C_17  and  N_18 
REMARK    7  A    between atoms: N_18  and  C_19 
REMARK    8  A    between atoms: C_19  and  C_20 
REMARK    9  A    between atoms: C_27  and  C_28 
ROOT
HETATM    1  C   UNL     1       5.068   2.983   4.443  1.00  0.00     0.118 C 
HETATM    2  N   UNL     1       6.250   2.197   4.762  1.00  0.00    -0.365 N 
HETATM    3  C   UNL     1       7.328   2.747   5.371  1.00  0.00     0.138 A 
HETATM    4  N   UNL     1       7.427   4.105   5.520  1.00  0.00    -0.240 N 
HETATM    5  N   UNL     1       8.600   4.510   6.033  1.00  0.00    -0.181 NA
HETATM    6  C   UNL     1       9.242   3.357   6.256  1.00  0.00     0.160 A 
HETATM    7  C   UNL     1       8.476   2.210   5.921  1.00  0.00     0.098 A 
HETATM    8  C   UNL     1       6.397   5.046   5.119  1.00  0.00     0.221 C 
HETATM    9  C   UNL     1       5.498   4.410   4.041  1.00  0.00     0.066 C 
HETATM   10  H   UNL     1       6.167   1.180   4.679  1.00  0.00     0.161 HD
ENDROOT
BRANCH   7  11
HETATM   11  C   UNL     1       8.783   0.795   6.036  1.00  0.00     0.275 C 
HETATM   12  N   UNL     1       9.708   0.384   6.977  1.00  0.00    -0.263 N 
HETATM   13  H   UNL     1       9.849  -0.623   7.043  1.00  0.00     0.190 HD
HETATM   14  O   UNL     1       8.228  -0.055   5.339  1.00  0.00    -0.266 OA
BRANCH  12  15
HETATM   15  N   UNL     1      10.110   1.137   8.098  1.00  0.00    -0.274 N 
HETATM   16  H   UNL     1       9.424   1.793   8.460  1.00  0.00     0.189 HD
BRANCH  15  17
HETATM   17  C   UNL     1      10.925   0.554   9.043  1.00  0.00     0.186 C 
HETATM   18  S   UNL     1      11.545  -0.996   8.969  1.00  0.00    -0.040 SA
BRANCH  17  19
HETATM   19  N   UNL     1      11.268   1.343  10.101  1.00  0.00    -0.364 N 
HETATM   20  H   UNL     1      11.981   0.917  10.692  1.00  0.00     0.162 HD
BRANCH  19  21
HETATM   21  C   UNL     1      11.282   2.803  10.122  1.00  0.00     0.154 C 
BRANCH  21  22
HETATM   22  C   UNL     1      11.847   3.324  11.445  1.00  0.00     0.139 C 
HETATM   23  O   UNL     1      13.147   2.741  11.682  1.00  0.00    -0.384 OA
HETATM   24  C   UNL     1      14.031   3.769  12.151  1.00  0.00     0.168 C 
HETATM   25  C   UNL     1      13.171   4.974  12.467  1.00  0.00     0.029 C 
HETATM   26  C   UNL     1      12.049   4.830  11.468  1.00  0.00     0.035 C 
ENDBRANCH  21  22
ENDBRANCH  19  21
ENDBRANCH  17  19
ENDBRANCH  15  17
ENDBRANCH  12  15
ENDBRANCH   7  11
BRANCH   1  27
HETATM   27  C   UNL     1       4.248   2.265   3.387  1.00  0.00    -0.035 A 
HETATM   28  C   UNL     1       3.116   1.529   3.776  1.00  0.00     0.012 A 
HETATM   29  C   UNL     1       2.320   0.868   2.833  1.00  0.00     0.037 A 
HETATM   30  C   UNL     1       2.644   0.927   1.479  1.00  0.00     0.068 A 
HETATM   31  C   UNL     1       3.790   1.619   1.086  1.00  0.00     0.037 A 
HETATM   32  C   UNL     1       4.590   2.275   2.028  1.00  0.00     0.012 A 
BRANCH  30  33
HETATM   33  O   UNL     1       1.942   0.349   0.458  1.00  0.00    -0.356 OA
HETATM   34  C   UNL     1       0.676  -0.210   0.790  1.00  0.00     0.210 C 
ENDBRANCH  30  33
ENDBRANCH   1  27
BRANCH   8  35
HETATM   35  C   UNL     1       5.614   5.492   6.333  1.00  0.00     0.409 C 
HETATM   36  F   UNL     1       5.043   4.469   7.005  1.00  0.00    -0.169 F 
HETATM   37  F   UNL     1       6.366   6.188   7.214  1.00  0.00    -0.169 F 
HETATM   38  F   UNL     1       4.604   6.318   5.955  1.00  0.00    -0.169 F 
ENDBRANCH   8  35
TORSDOF 9
