REMARK  3 active torsions:
REMARK  status: ('A' for Active; 'I' for Inactive)
REMARK    1  A    between atoms: C_2  and  C_3 
REMARK    2  A    between atoms: C_9  and  C_10 
REMARK    3  A    between atoms: C_23  and  N_24 
ROOT
HETATM    1  C   UNL     1       2.841  -1.264   1.063  1.00  0.00     0.066 A 
HETATM    2  N   UNL     1       2.599  -2.577   0.902  1.00  0.00    -0.177 NA
HETATM    3  N   UNL     1       3.264  -3.168   1.914  1.00  0.00    -0.256 N 
HETATM    4  H   UNL     1       3.220  -4.176   2.006  1.00  0.00     0.191 HD
HETATM    5  C   UNL     1       3.912  -2.277   2.706  1.00  0.00     0.175 A 
HETATM    6  C   UNL     1       3.672  -1.031   2.187  1.00  0.00     0.035 A 
HETATM    7  C   UNL     1       4.232   0.176   2.864  1.00  0.00     0.106 A 
HETATM    8  C   UNL     1       5.005  -0.227   4.124  1.00  0.00     0.081 A 
HETATM    9  C   UNL     1       5.523   0.834   4.922  1.00  0.00     0.100 C 
HETATM   10  N   UNL     1       5.947   1.692   5.579  1.00  0.00    -0.191 NA
HETATM   11  C   UNL     1       5.162  -1.523   4.514  1.00  0.00     0.140 A 
HETATM   12  O   UNL     1       4.624  -2.595   3.779  1.00  0.00    -0.279 OA
ENDROOT
BRANCH   7  13
HETATM   13  C   UNL     1       5.102   0.896   1.831  1.00  0.00    -0.033 A 
HETATM   14  C   UNL     1       4.897   2.273   1.492  1.00  0.00    -0.019 A 
HETATM   15  C   UNL     1       5.743   2.864   0.514  1.00  0.00    -0.025 A 
HETATM   16  C   UNL     1       3.906   3.110   2.064  1.00  0.00     0.013 A 
HETATM   17  C   UNL     1       5.571   4.207   0.140  1.00  0.00     0.012 A 
HETATM   18  C   UNL     1       6.763   2.115  -0.087  1.00  0.00     0.012 A 
HETATM   19  C   UNL     1       4.581   4.995   0.720  1.00  0.00     0.001 A 
HETATM   20  C   UNL     1       3.751   4.447   1.685  1.00  0.00     0.001 A 
HETATM   21  C   UNL     1       6.977   0.789   0.265  1.00  0.00     0.001 A 
HETATM   22  C   UNL     1       6.163   0.189   1.216  1.00  0.00     0.009 A 
ENDBRANCH   7  13
BRANCH  11  23
HETATM   23  N   UNL     1       5.838  -1.941   5.639  1.00  0.00    -0.282 NA
HETATM   24  H   UNL     1       6.545  -1.300   5.990  1.00  0.00     0.126 HD
HETATM   25  H   UNL     1       6.173  -2.897   5.552  1.00  0.00     0.126 HD
ENDBRANCH  11  23
BRANCH   1  26
HETATM   26  C   UNL     1       2.251  -0.277   0.111  1.00  0.00     0.057 C 
HETATM   27  C   UNL     1       1.008   0.397   0.670  1.00  0.00     0.011 C 
ENDBRANCH   1  26
TORSDOF 3
