REMARK  8 active torsions:
REMARK  status: ('A' for Active; 'I' for Inactive)
REMARK    1  A    between atoms: C_2  and  C_3 
REMARK    2  A    between atoms: C_3  and  C_4 
REMARK       I    between atoms: C_4  and  N_5 
REMARK    3  A    between atoms: N_8  and  C_9 
REMARK    4  A    between atoms: C_12  and  N_13 
REMARK    5  A    between atoms: N_13  and  C_14 
REMARK    6  A    between atoms: C_14  and  N_15 
REMARK       I    between atoms: N_15  and  C_16 
REMARK    7  A    between atoms: C_16  and  C_17 
REMARK    8  A    between atoms: C_18  and  O_19 
ROOT
HETATM    1  N   UNL     1       9.191  -4.515   6.027  1.00  0.00    -0.333 N 
HETATM    2  H   UNL     1       9.193  -5.517   5.866  1.00  0.00     0.168 HD
ENDROOT
BRANCH   1   3
HETATM    3  C   UNL     1       8.854  -3.760   4.887  1.00  0.00     0.034 A 
HETATM    4  C   UNL     1       9.163  -2.419   4.696  1.00  0.00     0.032 A 
HETATM    5  C   UNL     1       8.830  -1.772   3.491  1.00  0.00     0.031 A 
HETATM    6  C   UNL     1       8.200  -2.440   2.429  1.00  0.00     0.030 A 
HETATM    7  C   UNL     1       7.945  -3.805   2.630  1.00  0.00     0.031 A 
HETATM    8  C   UNL     1       8.253  -4.451   3.834  1.00  0.00     0.032 A 
BRANCH   6   9
HETATM    9  N   UNL     1       7.897  -1.836   1.198  1.00  0.00    -0.378 N 
HETATM   10  C   UNL     1       8.310  -0.435   0.978  1.00  0.00     0.143 C 
HETATM   11  C   UNL     1       8.202  -0.045  -0.510  1.00  0.00     0.145 C 
HETATM   12  N   UNL     1       6.914  -0.395  -1.121  1.00  0.00    -0.349 N 
HETATM   13  C   UNL     1       6.434   0.195  -2.289  1.00  0.00     0.219 C 
HETATM   14  C   UNL     1       6.439  -1.747  -0.814  1.00  0.00     0.145 C 
HETATM   15  O   UNL     1       5.537  -0.318  -2.958  1.00  0.00    -0.273 OA
HETATM   16  C   UNL     1       6.528  -2.097   0.681  1.00  0.00     0.143 C 
BRANCH  13  17
HETATM   17  C   UNL     1       7.053   1.528  -2.685  1.00  0.00     0.103 C 
BRANCH  17  18
HETATM   18  C   UNL     1       6.433   2.101  -3.959  1.00  0.00     0.005 C 
HETATM   19  C   UNL     1       7.021   3.459  -4.304  1.00  0.00     0.005 C 
ENDBRANCH  17  18
ENDBRANCH  13  17
ENDBRANCH   6   9
ENDBRANCH   1   3
BRANCH   1  20
HETATM   20  C   UNL     1       9.772  -4.187   7.195  1.00  0.00     0.179 C 
HETATM   21  S   UNL     1      10.725  -5.342   7.952  1.00  0.00    -0.040 SA
BRANCH  20  22
HETATM   22  N   UNL     1       9.610  -3.007   7.844  1.00  0.00    -0.299 N 
HETATM   23  C   UNL     1       8.488  -2.179   7.914  1.00  0.00     0.260 C 
HETATM   24  O   UNL     1       7.518  -2.212   7.172  1.00  0.00    -0.267 OA
HETATM   25  H   UNL     1      10.190  -2.988   8.673  1.00  0.00     0.171 HD
BRANCH  23  26
HETATM   26  C   UNL     1       8.532  -1.204   9.046  1.00  0.00     0.066 A 
HETATM   27  C   UNL     1       7.398  -0.922   9.816  1.00  0.00     0.084 A 
HETATM   28  C   UNL     1       7.472   0.003  10.863  1.00  0.00     0.050 A 
HETATM   29  C   UNL     1       8.684   0.626  11.193  1.00  0.00    -0.023 A 
HETATM   30  C   UNL     1       9.837   0.341  10.428  1.00  0.00    -0.025 A 
HETATM   31  C   UNL     1       8.775   1.525  12.268  1.00  0.00     0.012 A 
HETATM   32  C   UNL     1       9.744  -0.558   9.351  1.00  0.00     0.032 A 
HETATM   33  C   UNL     1      11.052   0.964  10.762  1.00  0.00     0.012 A 
HETATM   34  C   UNL     1      11.127   1.849  11.839  1.00  0.00     0.001 A 
HETATM   35  C   UNL     1       9.990   2.130  12.591  1.00  0.00     0.001 A 
BRANCH  27  36
HETATM   36  O   UNL     1       6.160  -1.464   9.595  1.00  0.00    -0.355 OA
HETATM   37  C   UNL     1       6.095  -2.833   9.991  1.00  0.00     0.210 C 
ENDBRANCH  27  36
ENDBRANCH  23  26
ENDBRANCH  20  22
ENDBRANCH   1  20
TORSDOF 8
