REMARK  5 active torsions:
REMARK  status: ('A' for Active; 'I' for Inactive)
REMARK    1  A    between atoms: C_5  and  C_6 
REMARK    2  A    between atoms: C_9  and  O_10 
REMARK    3  A    between atoms: N_14  and  C_15 
REMARK    4  A    between atoms: C_15  and  C_16 
REMARK       I    between atoms: C_16  and  N_17 
REMARK    5  A    between atoms: N_17  and  C_18 
ROOT
HETATM    1  C   UNL     1       1.603  -0.241   0.392  1.00  0.00     0.156 C 
HETATM    2  N   UNL     1       3.027  -0.186   0.163  1.00  0.00    -0.346 N 
HETATM    3  C   UNL     1       3.811   0.906   0.306  1.00  0.00     0.113 A 
HETATM    4  C   UNL     1       5.101   0.600  -0.033  1.00  0.00     0.014 A 
HETATM    5  C   UNL     1       5.965   1.802   0.088  1.00  0.00     0.158 A 
HETATM    6  N   UNL     1       4.980   2.762   0.646  1.00  0.00    -0.325 N 
HETATM    7  C   UNL     1       3.676   2.264   0.712  1.00  0.00     0.272 A 
HETATM    8  O   UNL     1       2.668   2.854   1.055  1.00  0.00    -0.266 OA
HETATM    9  C   UNL     1       5.149  -0.764  -0.372  1.00  0.00     0.002 A 
HETATM   10  C   UNL     1       3.832  -1.250  -0.230  1.00  0.00     0.045 A 
HETATM   11  C   UNL     1       6.168  -1.652  -0.762  1.00  0.00     0.014 A 
HETATM   12  C   UNL     1       5.856  -2.996  -0.993  1.00  0.00     0.001 A 
HETATM   13  C   UNL     1       4.551  -3.458  -0.847  1.00  0.00     0.002 A 
HETATM   14  C   UNL     1       3.517  -2.597  -0.466  1.00  0.00     0.030 A 
ENDROOT
BRANCH   6  15
HETATM   15  C   UNL     1       5.273   4.179   0.817  1.00  0.00     0.229 C 
BRANCH  15  16
HETATM   16  C   UNL     1       5.449   4.625   2.278  1.00  0.00     0.235 C 
HETATM   17  N   UNL     1       5.565   3.594   3.177  1.00  0.00    -0.355 N 
HETATM   18  H   UNL     1       5.364   2.681   2.790  1.00  0.00     0.162 HD
HETATM   19  O   UNL     1       5.548   5.813   2.563  1.00  0.00    -0.272 OA
BRANCH  17  20
HETATM   20  C   UNL     1       5.672   3.657   4.629  1.00  0.00     0.084 C 
HETATM   21  C   UNL     1       6.805   4.542   5.170  1.00  0.00     0.025 C 
HETATM   22  C   UNL     1       6.420   5.980   5.520  1.00  0.00     0.002 C 
HETATM   23  C   UNL     1       5.092   6.076   6.259  1.00  0.00     0.000 C 
HETATM   24  C   UNL     1       3.978   5.361   5.506  1.00  0.00     0.002 C 
HETATM   25  C   UNL     1       4.316   3.891   5.301  1.00  0.00     0.025 C 
ENDBRANCH  17  20
ENDBRANCH  15  16
ENDBRANCH   6  15
BRANCH   5  26
HETATM   26  C   UNL     1       7.131   1.517   1.006  1.00  0.00    -0.030 A 
HETATM   27  C   UNL     1       8.358   2.145   0.737  1.00  0.00     0.012 A 
HETATM   28  C   UNL     1       9.461   1.958   1.576  1.00  0.00     0.037 A 
HETATM   29  C   UNL     1       9.368   1.147   2.706  1.00  0.00     0.068 A 
HETATM   30  C   UNL     1       8.157   0.521   2.992  1.00  0.00     0.037 A 
HETATM   31  C   UNL     1       7.050   0.709   2.154  1.00  0.00     0.012 A 
BRANCH  29  32
HETATM   32  O   UNL     1      10.518   1.052   3.438  1.00  0.00    -0.356 OA
HETATM   33  C   UNL     1      10.471   0.246   4.608  1.00  0.00     0.210 C 
ENDBRANCH  29  32
ENDBRANCH   5  26
TORSDOF 5
