REMARK  5 active torsions:
REMARK  status: ('A' for Active; 'I' for Inactive)
REMARK    1  A    between atoms: C_5  and  C_6 
REMARK    2  A    between atoms: C_9  and  O_10 
REMARK    3  A    between atoms: N_14  and  C_15 
REMARK    4  A    between atoms: C_15  and  C_16 
REMARK       I    between atoms: C_16  and  N_17 
REMARK    5  A    between atoms: N_17  and  C_18 
ROOT
HETATM    1  C   UNL     1       1.801   0.345  -1.131  1.00  0.00     0.156 C 
HETATM    2  N   UNL     1       3.231   0.252  -0.960  1.00  0.00    -0.346 N 
HETATM    3  C   UNL     1       4.064   1.281  -0.677  1.00  0.00     0.113 A 
HETATM    4  C   UNL     1       5.347   0.816  -0.565  1.00  0.00     0.014 A 
HETATM    5  C   UNL     1       6.270   1.932  -0.233  1.00  0.00     0.158 C 
HETATM    6  N   UNL     1       5.282   3.019  -0.028  1.00  0.00    -0.325 N 
HETATM    7  C   UNL     1       3.981   2.675  -0.391  1.00  0.00     0.272 C 
HETATM    8  O   UNL     1       3.006   3.405  -0.429  1.00  0.00    -0.266 OA
HETATM    9  C   UNL     1       5.326  -0.579  -0.746  1.00  0.00     0.002 A 
HETATM   10  C   UNL     1       3.978  -0.922  -0.981  1.00  0.00     0.045 A 
HETATM   11  C   UNL     1       6.293  -1.600  -0.696  1.00  0.00     0.014 A 
HETATM   12  C   UNL     1       5.900  -2.931  -0.873  1.00  0.00     0.001 A 
HETATM   13  C   UNL     1       4.565  -3.252  -1.102  1.00  0.00     0.002 A 
HETATM   14  C   UNL     1       3.583  -2.258  -1.163  1.00  0.00     0.030 A 
ENDROOT
BRANCH   6  15
HETATM   15  C   UNL     1       5.663   4.323   0.480  1.00  0.00     0.229 C 
BRANCH  15  16
HETATM   16  C   UNL     1       6.363   5.210  -0.541  1.00  0.00     0.235 C 
HETATM   17  N   UNL     1       5.656   5.431  -1.707  1.00  0.00    -0.355 N 
HETATM   18  H   UNL     1       4.694   5.106  -1.730  1.00  0.00     0.162 HD
HETATM   19  O   UNL     1       7.424   5.777  -0.282  1.00  0.00    -0.272 OA
BRANCH  17  20
HETATM   20  C   UNL     1       6.045   6.516  -2.583  1.00  0.00     0.084 C 
HETATM   21  C   UNL     1       5.403   6.449  -3.961  1.00  0.00     0.025 C 
HETATM   22  C   UNL     1       5.620   7.858  -4.496  1.00  0.00     0.002 C 
HETATM   23  C   UNL     1       5.439   8.771  -3.287  1.00  0.00     0.002 C 
HETATM   24  C   UNL     1       5.600   7.882  -2.053  1.00  0.00     0.025 C 
ENDBRANCH  17  20
ENDBRANCH  15  16
ENDBRANCH   6  15
BRANCH   5  25
HETATM   25  C   UNL     1       7.056   1.538   0.991  1.00  0.00    -0.030 A 
HETATM   26  C   UNL     1       8.441   1.341   0.878  1.00  0.00     0.012 A 
HETATM   27  C   UNL     1       9.203   0.983   1.993  1.00  0.00     0.037 A 
HETATM   28  C   UNL     1       8.605   0.821   3.243  1.00  0.00     0.068 A 
HETATM   29  C   UNL     1       7.229   1.008   3.368  1.00  0.00     0.037 A 
HETATM   30  C   UNL     1       6.462   1.361   2.251  1.00  0.00     0.012 A 
BRANCH  28  31
HETATM   31  O   UNL     1       9.466   0.479   4.248  1.00  0.00    -0.356 OA
HETATM   32  C   UNL     1       8.923   0.410   5.560  1.00  0.00     0.210 C 
ENDBRANCH  28  31
ENDBRANCH   5  25
TORSDOF 5
