REMARK  3 active torsions:
REMARK  status: ('A' for Active; 'I' for Inactive)
REMARK    1  A    between atoms: C_6  and  N_7 
REMARK       I    between atoms: N_7  and  C_8 
REMARK    2  A    between atoms: C_8  and  C_9 
REMARK    3  A    between atoms: C_9  and  C_10 
ROOT
HETATM    1  C   UNL     1       5.394   2.135  -0.474  1.00  0.00     0.286 C 
HETATM    2  N   UNL     1       4.658   3.443  -0.774  1.00  0.00    -0.056 N 
HETATM    3  H   UNL     1       4.933   4.113  -0.027  1.00  0.00     0.278 HD
HETATM    4  H   UNL     1       4.993   3.846  -1.658  1.00  0.00     0.278 HD
HETATM    5  C   UNL     1       3.177   3.228  -0.793  1.00  0.00     0.209 C 
HETATM    6  C   UNL     1       2.850   2.209  -1.909  1.00  0.00     0.115 C 
HETATM    7  N   UNL     1       3.639   0.983  -1.797  1.00  0.00    -0.353 N 
HETATM    8  C   UNL     1       4.967   0.994  -1.420  1.00  0.00     0.249 C 
HETATM    9  O   UNL     1       5.714   0.082  -1.752  1.00  0.00    -0.271 OA
HETATM   10  C   UNL     1       2.450   4.545  -1.028  1.00  0.00     0.035 C 
HETATM   11  C   UNL     1       0.940   4.302  -1.074  1.00  0.00     0.002 C 
HETATM   12  C   UNL     1       0.553   3.228  -2.094  1.00  0.00     0.002 C 
HETATM   13  C   UNL     1       1.347   1.930  -1.920  1.00  0.00     0.027 C 
HETATM   14  H   UNL     1       3.423   0.220  -2.437  1.00  0.00     0.163 HD
ENDROOT
BRANCH   1  15
HETATM   15  C   UNL     1       6.907   2.370  -0.459  1.00  0.00     0.146 C 
BRANCH  15  16
HETATM   16  C   UNL     1       7.231   3.211   0.751  1.00  0.00     0.224 C 
HETATM   17  N   UNL     1       8.380   3.122   1.459  1.00  0.00    -0.327 N 
HETATM   18  H   UNL     1       8.499   3.926   2.070  1.00  0.00     0.169 HD
HETATM   19  O   UNL     1       6.433   4.119   1.037  1.00  0.00    -0.273 OA
BRANCH  17  20
HETATM   20  C   UNL     1       9.412   2.170   1.557  1.00  0.00     0.035 A 
HETATM   21  C   UNL     1       9.325   0.833   1.170  1.00  0.00     0.037 A 
HETATM   22  C   UNL     1      10.415  -0.048   1.327  1.00  0.00    -0.054 A 
HETATM   23  C   UNL     1      11.612   0.420   1.900  1.00  0.00    -0.056 A 
HETATM   24  C   UNL     1      10.280  -1.476   0.865  1.00  0.00     0.049 C 
HETATM   25  C   UNL     1      12.798  -0.482   2.110  1.00  0.00     0.049 C 
HETATM   26  C   UNL     1      11.678   1.746   2.337  1.00  0.00     0.009 A 
HETATM   27  C   UNL     1      10.591   2.607   2.170  1.00  0.00     0.030 A 
ENDBRANCH  17  20
ENDBRANCH  15  16
ENDBRANCH   1  15
TORSDOF 3
