REMARK  5 active torsions:
REMARK  status: ('A' for Active; 'I' for Inactive)
REMARK    1  A    between atoms: C_4  and  C_5 
REMARK    2  A    between atoms: C_5  and  C_6 
REMARK    3  A    between atoms: C_12  and  S_13 
REMARK    4  A    between atoms: S_13  and  C_14 
REMARK    5  A    between atoms: C_14  and  C_15 
ROOT
HETATM    1  C   UNL     1       3.831   1.590  -0.104  1.00  0.00     0.283 C 
HETATM    2  O   UNL     1       5.176   1.215  -0.364  1.00  0.00    -0.303 OA
HETATM    3  C   UNL     1       5.734   0.628   0.744  1.00  0.00     0.201 A 
HETATM    4  C   UNL     1       6.201   1.434   1.768  1.00  0.00     0.144 A 
HETATM    5  N   UNL     1       6.892   0.862   2.771  1.00  0.00    -0.142 NA
HETATM    6  N   UNL     1       7.086  -0.491   2.740  1.00  0.00    -0.122 NA
HETATM    7  C   UNL     1       6.593  -1.224   1.713  1.00  0.00     0.212 A 
HETATM    8  N   UNL     1       5.919  -0.705   0.673  1.00  0.00    -0.195 NA
HETATM    9  C   UNL     1       5.959   2.873   1.796  1.00  0.00     0.020 A 
HETATM   10  C   UNL     1       4.706   3.388   1.387  1.00  0.00     0.023 A 
HETATM   11  N   UNL     1       3.637   2.543   1.021  1.00  0.00    -0.259 NA
HETATM   12  C   UNL     1       6.956   3.765   2.233  1.00  0.00     0.016 A 
HETATM   13  C   UNL     1       6.727   5.140   2.260  1.00  0.00     0.001 A 
HETATM   14  C   UNL     1       5.491   5.643   1.869  1.00  0.00     0.002 A 
HETATM   15  C   UNL     1       4.484   4.772   1.450  1.00  0.00     0.024 A 
HETATM   16  H   UNL     1       2.811   3.107   0.792  1.00  0.00     0.130 HD
ENDROOT
BRANCH   7  17
HETATM   17  S   UNL     1       6.854  -2.980   1.708  1.00  0.00    -0.084 SA
BRANCH  17  18
HETATM   18  C   UNL     1       7.252  -3.228   3.466  1.00  0.00     0.121 C 
BRANCH  18  19
HETATM   19  C   UNL     1       7.493  -4.685   3.784  1.00  0.00    -0.048 A 
HETATM   20  C   UNL     1       8.797  -5.206   3.783  1.00  0.00     0.009 A 
HETATM   21  C   UNL     1       9.022  -6.551   4.084  1.00  0.00     0.024 A 
HETATM   22  C   UNL     1       7.947  -7.384   4.381  1.00  0.00     0.034 A 
HETATM   23 CL   UNL     1       8.226  -9.041   4.755  1.00  0.00    -0.084 Cl
HETATM   24  C   UNL     1       6.646  -6.885   4.376  1.00  0.00     0.024 A 
HETATM   25  C   UNL     1       6.419  -5.540   4.076  1.00  0.00     0.009 A 
ENDBRANCH  18  19
ENDBRANCH  17  18
ENDBRANCH   7  17
BRANCH   1  26
HETATM   26  C   UNL     1       3.198   2.239  -1.365  1.00  0.00     0.203 C 
HETATM   27  O   UNL     1       2.385   3.166  -1.269  1.00  0.00    -0.288 OA
BRANCH  26  28
HETATM   28  C   UNL     1       3.544   1.733  -2.721  1.00  0.00     0.014 A 
HETATM   29  C   UNL     1       3.432   2.624  -3.799  1.00  0.00     0.015 A 
HETATM   30  C   UNL     1       3.748   2.208  -5.093  1.00  0.00     0.001 A 
HETATM   31  C   UNL     1       4.167   0.898  -5.318  1.00  0.00     0.000 A 
HETATM   32  C   UNL     1       4.265   0.003  -4.252  1.00  0.00     0.001 A 
HETATM   33  C   UNL     1       3.951   0.415  -2.954  1.00  0.00     0.015 A 
ENDBRANCH  26  28
ENDBRANCH   1  26
TORSDOF 5
