REMARK  5 active torsions:
REMARK  status: ('A' for Active; 'I' for Inactive)
REMARK    1  A    between atoms: C_2  and  O_3 
REMARK    2  A    between atoms: O_3  and  C_4 
REMARK    3  A    between atoms: C_5  and  N_6 
REMARK       I    between atoms: N_6  and  C_7 
REMARK    4  A    between atoms: C_7  and  C_8 
REMARK    5  A    between atoms: C_9  and  C_10 
ROOT
HETATM    1  N   UNL     1       3.998   3.274  -1.429  1.00  0.00    -0.321 N 
HETATM    2  C   UNL     1       3.240   3.946  -0.493  1.00  0.00     0.245 C 
HETATM    3  O   UNL     1       3.120   3.705   0.699  1.00  0.00    -0.268 OA
HETATM    4  H   UNL     1       4.206   3.776  -2.281  1.00  0.00     0.169 HD
ENDROOT
BRANCH   1   5
HETATM    5  C   UNL     1       4.670   2.036  -1.284  1.00  0.00     0.071 A 
HETATM    6  C   UNL     1       4.342   1.019  -0.358  1.00  0.00     0.096 A 
HETATM    7  C   UNL     1       5.104  -0.158  -0.267  1.00  0.00     0.049 A 
HETATM    8  C   UNL     1       6.131  -0.346  -1.170  1.00  0.00    -0.020 A 
HETATM    9  C   UNL     1       6.413   0.614  -2.122  1.00  0.00     0.078 A 
HETATM   10  C   UNL     1       7.092  -1.464  -1.295  1.00  0.00     0.073 C 
HETATM   11  C   UNL     1       5.711   1.802  -2.198  1.00  0.00     0.069 A 
HETATM   12  O   UNL     1       7.444   0.276  -2.959  1.00  0.00    -0.345 OA
HETATM   13  C   UNL     1       7.696  -1.125  -2.668  1.00  0.00     0.129 C 
HETATM   14  C   UNL     1       7.104  -1.968  -3.796  1.00  0.00     0.040 C 
BRANCH   6  15
HETATM   15  O   UNL     1       3.255   1.128   0.466  1.00  0.00    -0.349 OA
BRANCH  15  16
HETATM   16  C   UNL     1       2.190   0.253   0.081  1.00  0.00     0.171 C 
HETATM   17  C   UNL     1       0.959   1.082  -0.238  1.00  0.00     0.034 C 
ENDBRANCH  15  16
ENDBRANCH   6  15
ENDBRANCH   1   5
BRANCH   2  18
HETATM   18  C   UNL     1       2.576   5.139  -1.091  1.00  0.00     0.077 C 
HETATM   19  C   UNL     1       1.777   5.902  -0.331  1.00  0.00     0.043 C 
BRANCH  19  20
HETATM   20  C   UNL     1       1.106   7.027  -0.883  1.00  0.00     0.077 A 
HETATM   21  O   UNL     1       1.267   7.463  -2.182  1.00  0.00    -0.310 OA
HETATM   22  C   UNL     1       0.475   8.549  -2.372  1.00  0.00     0.086 A 
HETATM   23  C   UNL     1      -0.220   8.847  -1.212  1.00  0.00     0.000 A 
HETATM   24  C   UNL     1       0.363   9.271  -3.558  1.00  0.00     0.038 A 
HETATM   25  C   UNL     1       0.192   7.875  -0.266  1.00  0.00     0.051 A 
HETATM   26  C   UNL     1      -1.102   9.942  -1.216  1.00  0.00     0.014 A 
HETATM   27  C   UNL     1      -1.240  10.688  -2.395  1.00  0.00     0.001 A 
HETATM   28  C   UNL     1      -0.518  10.358  -3.545  1.00  0.00     0.003 A 
ENDBRANCH  19  20
ENDBRANCH   2  18
TORSDOF 5
