REMARK  5 active torsions:
REMARK  status: ('A' for Active; 'I' for Inactive)
REMARK    1  A    between atoms: C_4  and  C_5 
REMARK    2  A    between atoms: C_5  and  C_6 
REMARK    3  A    between atoms: C_10  and  C_11 
REMARK       I    between atoms: C_11  and  N_12 
REMARK    4  A    between atoms: N_12  and  N_13 
REMARK    5  A    between atoms: N_13  and  C_14 
ROOT
HETATM    1  C   UNL     1       3.615   1.492  -0.448  1.00  0.00     0.033 A 
HETATM    2  C   UNL     1       3.151   2.753  -0.118  1.00  0.00     0.104 A 
HETATM    3  N   UNL     1       4.160   3.655  -0.326  1.00  0.00    -0.360 N 
HETATM    4  H   UNL     1       4.105   4.656  -0.177  1.00  0.00     0.165 HD
HETATM    5  C   UNL     1       5.291   3.015  -0.782  1.00  0.00     0.102 A 
HETATM    6  C   UNL     1       4.980   1.666  -0.834  1.00  0.00     0.052 A 
ENDROOT
BRANCH   5   7
HETATM    7  C   UNL     1       6.492   3.749  -1.114  1.00  0.00     0.282 C 
HETATM    8  N   UNL     1       7.554   2.989  -1.565  1.00  0.00    -0.280 N 
HETATM    9  H   UNL     1       7.623   1.998  -1.337  1.00  0.00     0.184 HD
HETATM   10  O   UNL     1       6.569   4.974  -1.003  1.00  0.00    -0.265 OA
BRANCH   8  11
HETATM   11  N   UNL     1       8.803   3.647  -1.718  1.00  0.00    -0.186 NA
HETATM   12  H   UNL     1       8.722   4.628  -1.432  1.00  0.00     0.154 HD
BRANCH  11  13
HETATM   13  C   UNL     1       9.826   3.001  -0.979  1.00  0.00     0.122 A 
HETATM   14  N   UNL     1       9.588   1.790  -0.425  1.00  0.00    -0.223 NA
HETATM   15  C   UNL     1      10.613   1.202   0.224  1.00  0.00     0.128 A 
HETATM   16 CL   UNL     1      10.235  -0.322   0.915  1.00  0.00    -0.062 Cl
HETATM   17  C   UNL     1      11.882   1.739   0.348  1.00  0.00     0.044 A 
HETATM   18  C   UNL     1      12.118   2.974  -0.241  1.00  0.00     0.007 A 
HETATM   19  C   UNL     1      11.080   3.611  -0.916  1.00  0.00     0.046 A 
ENDBRANCH  11  13
ENDBRANCH   8  11
ENDBRANCH   5   7
BRANCH   1  20
HETATM   20  C   UNL     1       2.898   0.219  -0.378  1.00  0.00     0.193 C 
HETATM   21  O   UNL     1       3.497  -0.848  -0.265  1.00  0.00    -0.287 OA
BRANCH  20  22
HETATM   22  C   UNL     1       1.413   0.194  -0.456  1.00  0.00     0.015 A 
HETATM   23  C   UNL     1       0.719  -0.748   0.314  1.00  0.00     0.015 A 
HETATM   24  C   UNL     1      -0.673  -0.826   0.240  1.00  0.00     0.001 A 
HETATM   25  C   UNL     1      -1.374   0.027  -0.613  1.00  0.00     0.000 A 
HETATM   26  C   UNL     1      -0.687   0.952  -1.398  1.00  0.00     0.001 A 
HETATM   27  C   UNL     1       0.705   1.033  -1.327  1.00  0.00     0.015 A 
ENDBRANCH  20  22
ENDBRANCH   1  20
TORSDOF 5
