REMARK  4 active torsions:
REMARK  status: ('A' for Active; 'I' for Inactive)
REMARK    1  A    between atoms: C_2  and  C_3 
REMARK    2  A    between atoms: C_8  and  C_9 
REMARK       I    between atoms: C_9  and  N_10 
REMARK    3  A    between atoms: C_20  and  C_21 
REMARK    4  A    between atoms: C_23  and  O_24 
ROOT
HETATM    1  C   UNL     1       5.170   1.551  -2.587  1.00  0.00     0.258 C 
HETATM    2  N   UNL     1       5.690   1.312  -3.864  1.00  0.00    -0.340 N 
HETATM    3  C   UNL     1       7.093   1.295  -4.251  1.00  0.00     0.123 C 
HETATM    4  C   UNL     1       7.123   0.683  -5.678  1.00  0.00     0.221 C 
HETATM    5  N   UNL     1       7.901   1.620  -6.614  1.00  0.00    -0.064 N 
HETATM    6  H   UNL     1       7.937   1.210  -7.557  1.00  0.00     0.280 HD
HETATM    7  C   UNL     1       7.341   3.029  -6.747  1.00  0.00     0.236 C 
HETATM    8  C   UNL     1       7.081   3.575  -5.350  1.00  0.00     0.034 C 
HETATM    9  C   UNL     1       7.769   2.686  -4.298  1.00  0.00     0.014 C 
HETATM   10  C   UNL     1       9.240   2.488  -4.726  1.00  0.00     0.034 C 
HETATM   11  C   UNL     1       9.324   1.756  -6.074  1.00  0.00     0.236 C 
HETATM   12  C   UNL     1       5.662   0.301  -6.049  1.00  0.00     0.070 C 
HETATM   13  C   UNL     1       4.906   0.432  -4.716  1.00  0.00     0.138 C 
HETATM   14  O   UNL     1       3.963   1.666  -2.402  1.00  0.00    -0.267 OA
ENDROOT
BRANCH   1  15
HETATM   15  C   UNL     1       6.092   1.446  -1.484  1.00  0.00     0.090 C 
HETATM   16  C   UNL     1       6.840   2.411  -0.765  1.00  0.00     0.080 C 
HETATM   17  N   UNL     1       7.629   1.818   0.144  1.00  0.00    -0.132 NA
HETATM   18  O   UNL     1       7.283   0.485   0.141  1.00  0.00    -0.217 OA
HETATM   19  C   UNL     1       6.338   0.269  -0.807  1.00  0.00     0.092 C 
HETATM   20  C   UNL     1       5.788  -1.098  -0.897  1.00  0.00     0.080 C 
BRANCH  16  21
HETATM   21  C   UNL     1       6.877   3.894  -0.914  1.00  0.00     0.058 C 
HETATM   22  C   UNL     1       6.588   4.638   0.382  1.00  0.00     0.011 C 
ENDBRANCH  16  21
ENDBRANCH   1  15
BRANCH  12  23
HETATM   23  C   UNL     1       5.016   0.953  -7.251  1.00  0.00    -0.048 A 
HETATM   24  C   UNL     1       5.336   0.476  -8.537  1.00  0.00     0.044 A 
HETATM   25  C   UNL     1       4.782   1.076  -9.665  1.00  0.00     0.066 A 
HETATM   26  C   UNL     1       3.903   2.142  -9.548  1.00  0.00     0.036 A 
HETATM   27  C   UNL     1       3.548   2.603  -8.284  1.00  0.00     0.003 A 
HETATM   28  C   UNL     1       4.098   2.013  -7.143  1.00  0.00     0.008 A 
BRANCH  25  29
HETATM   29  O   UNL     1       5.094   0.646 -10.918  1.00  0.00    -0.361 OA
HETATM   30  H   UNL     1       5.331  -0.296 -10.889  1.00  0.00     0.217 HD
ENDBRANCH  25  29
ENDBRANCH  12  23
TORSDOF 4
