REMARK  8 active torsions:
REMARK  status: ('A' for Active; 'I' for Inactive)
REMARK    1  A    between atoms: O_2  and  C_3 
REMARK    2  A    between atoms: C_6  and  N_7 
REMARK       I    between atoms: N_7  and  C_8 
REMARK    3  A    between atoms: C_8  and  C_9 
REMARK    4  A    between atoms: C_9  and  N_10 
REMARK    5  A    between atoms: N_13  and  C_14 
REMARK    6  A    between atoms: C_14  and  C_15 
REMARK    7  A    between atoms: C_30  and  C_31 
REMARK       I    between atoms: C_31  and  N_32 
REMARK    8  A    between atoms: N_32  and  C_33 
ROOT
HETATM    1  N   UNL     1       5.586   1.976  -3.559  1.00  0.00    -0.290 N 
HETATM    2  C   UNL     1       5.280   2.652  -2.386  1.00  0.00     0.332 C 
HETATM    3  O   UNL     1       5.356   3.884  -2.338  1.00  0.00    -0.246 OA
HETATM    4  N   UNL     1       4.916   1.883  -1.294  1.00  0.00    -0.261 N 
HETATM    5  C   UNL     1       5.049   0.503  -1.224  1.00  0.00     0.264 C 
HETATM    6  O   UNL     1       4.796  -0.163  -0.223  1.00  0.00    -0.267 OA
HETATM    7  C   UNL     1       5.546  -0.177  -2.432  1.00  0.00     0.059 A 
HETATM    8  C   UNL     1       5.774   0.568  -3.588  1.00  0.00     0.056 A 
HETATM    9  C   UNL     1       5.772  -1.561  -2.407  1.00  0.00     0.020 A 
HETATM   10  C   UNL     1       6.258  -2.209  -3.542  1.00  0.00     0.018 A 
HETATM   11  C   UNL     1       6.505  -1.481  -4.708  1.00  0.00     0.034 A 
HETATM   12  C   UNL     1       6.224  -0.106  -4.735  1.00  0.00     0.048 A 
ENDROOT
BRANCH   1  13
HETATM   13  C   UNL     1       5.832   2.791  -4.752  1.00  0.00     0.237 C 
BRANCH  13  14
HETATM   14  C   UNL     1       7.327   3.046  -4.951  1.00  0.00     0.240 C 
HETATM   15  N   UNL     1       7.828   4.011  -4.093  1.00  0.00    -0.326 N 
HETATM   16  H   UNL     1       7.174   4.389  -3.408  1.00  0.00     0.169 HD
HETATM   17  O   UNL     1       7.960   2.396  -5.781  1.00  0.00    -0.271 OA
BRANCH  15  18
HETATM   18  C   UNL     1       9.140   4.523  -4.055  1.00  0.00     0.034 A 
HETATM   19  C   UNL     1       9.420   5.505  -3.097  1.00  0.00     0.032 A 
HETATM   20  C   UNL     1      10.690   6.094  -3.017  1.00  0.00     0.039 A 
HETATM   21  C   UNL     1      11.697   5.705  -3.898  1.00  0.00     0.068 A 
HETATM   22  C   UNL     1      11.427   4.712  -4.838  1.00  0.00     0.039 A 
HETATM   23  C   UNL     1      10.158   4.126  -4.921  1.00  0.00     0.032 A 
BRANCH  21  24
HETATM   24  O   UNL     1      12.969   6.203  -3.938  1.00  0.00    -0.356 OA
HETATM   25  C   UNL     1      13.223   7.373  -3.171  1.00  0.00     0.210 C 
ENDBRANCH  21  24
ENDBRANCH  15  18
ENDBRANCH  13  14
ENDBRANCH   1  13
BRANCH   4  26
HETATM   26  C   UNL     1       4.377   2.567  -0.125  1.00  0.00     0.175 C 
BRANCH  26  27
HETATM   27  C   UNL     1       2.871   2.723  -0.228  1.00  0.00    -0.037 A 
HETATM   28  C   UNL     1       2.019   1.739   0.302  1.00  0.00     0.048 A 
HETATM   29  C   UNL     1       0.658   1.905   0.149  1.00  0.00     0.105 A 
HETATM   30  C   UNL     1       0.129   2.990  -0.508  1.00  0.00     0.105 A 
HETATM   31  O   UNL     1      -0.302   1.054   0.600  1.00  0.00    -0.323 OA
HETATM   32  O   UNL     1      -1.230   2.958  -0.554  1.00  0.00    -0.323 OA
HETATM   33  C   UNL     1       0.929   3.972  -1.047  1.00  0.00     0.040 A 
HETATM   34  C   UNL     1      -1.496   1.730   0.155  1.00  0.00     0.352 A 
HETATM   35  C   UNL     1       2.314   3.835  -0.904  1.00  0.00     0.012 A 
ENDBRANCH  26  27
ENDBRANCH   4  26
BRANCH  11  36
HETATM   36  C   UNL     1       7.061  -2.193  -5.895  1.00  0.00     0.252 C 
HETATM   37  N   UNL     1       7.723  -1.417  -6.826  1.00  0.00    -0.352 N 
HETATM   38  H   UNL     1       7.968  -0.463  -6.592  1.00  0.00     0.163 HD
HETATM   39  O   UNL     1       6.935  -3.409  -5.986  1.00  0.00    -0.268 OA
BRANCH  37  40
HETATM   40  C   UNL     1       8.403  -1.997  -7.981  1.00  0.00     0.084 C 
HETATM   41  C   UNL     1       8.093  -1.192  -9.248  1.00  0.00     0.025 C 
HETATM   42  C   UNL     1       8.782   0.172  -9.273  1.00  0.00     0.002 C 
HETATM   43  C   UNL     1      10.283   0.049  -9.038  1.00  0.00     0.000 C 
HETATM   44  C   UNL     1      10.595  -0.712  -7.753  1.00  0.00     0.002 C 
HETATM   45  C   UNL     1       9.914  -2.082  -7.727  1.00  0.00     0.025 C 
ENDBRANCH  37  40
ENDBRANCH  11  36
TORSDOF 8
