REMARK  2 active torsions:
REMARK  status: ('A' for Active; 'I' for Inactive)
REMARK    1  A    between atoms: O_2  and  C_3 
REMARK    2  A    between atoms: N_21  and  C_22 
ROOT
HETATM    1  C   UNL     1       3.017  -2.449  -2.153  1.00  0.00     0.069 A 
HETATM    2  C   UNL     1       2.545  -3.390  -1.230  1.00  0.00     0.049 A 
HETATM    3  C   UNL     1       3.170  -4.631  -1.172  1.00  0.00     0.018 A 
HETATM    4  C   UNL     1       4.261  -4.899  -2.006  1.00  0.00     0.044 A 
HETATM    5  N   UNL     1       4.764  -6.166  -1.763  1.00  0.00    -0.324 N 
HETATM    6  C   UNL     1       4.046  -6.804  -0.771  1.00  0.00     0.264 A 
HETATM    7  O   UNL     1       4.274  -7.909  -0.306  1.00  0.00    -0.270 OA
HETATM    8  C   UNL     1       2.922  -5.818  -0.278  1.00  0.00     0.250 A 
HETATM    9  N   UNL     1       3.060  -5.471   1.193  1.00  0.00    -0.043 N 
HETATM   10  H   UNL     1       2.477  -4.640   1.366  1.00  0.00     0.282 HD
HETATM   11  C   UNL     1       2.503  -6.658   1.935  1.00  0.00     0.204 C 
HETATM   12  C   UNL     1       2.594  -6.149   3.354  1.00  0.00     0.036 C 
HETATM   13  C   UNL     1       3.975  -5.451   3.363  1.00  0.00     0.030 C 
HETATM   14  C   UNL     1       4.349  -5.183   1.892  1.00  0.00     0.237 C 
HETATM   15  C   UNL     1       1.267  -7.015   1.141  1.00  0.00     0.126 C 
HETATM   16  C   UNL     1       1.579  -6.596  -0.302  1.00  0.00     0.145 C 
HETATM   17  C   UNL     1       0.403  -5.751  -0.680  1.00  0.00     0.239 C 
HETATM   18  O   UNL     1       0.240  -5.405  -1.840  1.00  0.00    -0.272 OA
HETATM   19  N   UNL     1      -0.338  -5.450   0.445  1.00  0.00    -0.252 N 
HETATM   20  C   UNL     1       0.078  -6.197   1.526  1.00  0.00     0.238 C 
HETATM   21  O   UNL     1      -0.336  -6.223   2.674  1.00  0.00    -0.272 OA
HETATM   22  C   UNL     1       4.755  -3.988  -2.912  1.00  0.00     0.033 A 
HETATM   23  C   UNL     1       4.120  -2.748  -2.975  1.00  0.00     0.039 A 
HETATM   24  H   UNL     1       5.551  -6.585  -2.245  1.00  0.00     0.169 HD
ENDROOT
BRANCH   1  25
HETATM   25  O   UNL     1       2.513  -1.190  -2.325  1.00  0.00    -0.356 OA
HETATM   26  C   UNL     1       1.188  -0.955  -1.862  1.00  0.00     0.210 C 
ENDBRANCH   1  25
BRANCH  19  27
HETATM   27  C   UNL     1      -1.397  -4.479   0.491  1.00  0.00     0.045 A 
HETATM   28  C   UNL     1      -1.704  -3.664  -0.613  1.00  0.00     0.030 A 
HETATM   29  C   UNL     1      -2.691  -2.671  -0.547  1.00  0.00     0.002 A 
HETATM   30  C   UNL     1      -3.403  -2.468   0.626  1.00  0.00     0.000 A 
HETATM   31  C   UNL     1      -3.136  -3.266   1.729  1.00  0.00     0.002 A 
HETATM   32  C   UNL     1      -2.150  -4.257   1.660  1.00  0.00     0.030 A 
ENDBRANCH  19  27
TORSDOF 2
