REMARK  6 active torsions:
REMARK  status: ('A' for Active; 'I' for Inactive)
REMARK    1  A    between atoms: C_2  and  C_3 
REMARK    2  A    between atoms: C_3  and  O_4 
REMARK    3  A    between atoms: O_4  and  C_5 
REMARK    4  A    between atoms: C_8  and  C_9 
REMARK    5  A    between atoms: C_9  and  N_10 
REMARK       I    between atoms: N_10  and  C_11 
REMARK       I    between atoms: C_11  and  N_12 
REMARK    6  A    between atoms: N_12  and  C_13 
ROOT
HETATM    1  N   UNL     1       2.645  -8.753  -0.840  1.00  0.00    -0.339 N 
HETATM    2  C   UNL     1       1.505  -9.243  -1.374  1.00  0.00     0.316 C 
HETATM    3  N   UNL     1       1.010 -10.394  -0.875  1.00  0.00    -0.338 N 
HETATM    4  O   UNL     1       0.899  -8.692  -2.289  1.00  0.00    -0.247 OA
HETATM    5  H   UNL     1       3.213  -9.383  -0.302  1.00  0.00     0.164 HD
HETATM    6  H   UNL     1       0.141 -10.618  -1.345  1.00  0.00     0.164 HD
ENDROOT
BRANCH   1   7
HETATM    7  C   UNL     1       3.318  -7.614  -1.418  1.00  0.00     0.164 C 
BRANCH   7   8
HETATM    8  C   UNL     1       2.793  -6.304  -0.904  1.00  0.00    -0.021 A 
HETATM    9  C   UNL     1       1.741  -5.655  -1.545  1.00  0.00     0.128 A 
HETATM   10  N   UNL     1       1.245  -4.452  -1.170  1.00  0.00    -0.235 NA
HETATM   11  C   UNL     1       1.810  -3.863  -0.089  1.00  0.00     0.186 A 
HETATM   12  C   UNL     1       2.844  -4.446   0.641  1.00  0.00     0.087 A 
HETATM   13  C   UNL     1       3.337  -5.684   0.226  1.00  0.00     0.038 A 
HETATM   14 CL   UNL     1       3.545  -3.689   2.022  1.00  0.00    -0.080 Cl
BRANCH  11  15
HETATM   15  O   UNL     1       1.352  -2.620   0.305  1.00  0.00    -0.333 OA
BRANCH  15  16
HETATM   16  C   UNL     1       0.329  -2.090  -0.542  1.00  0.00     0.181 C 
BRANCH  16  17
HETATM   17  C   UNL     1      -0.020  -0.668  -0.073  1.00  0.00     0.002 C 
HETATM   18  C   UNL     1      -1.219  -0.129  -0.852  1.00  0.00     0.011 C 
HETATM   19  C   UNL     1       1.176   0.275  -0.224  1.00  0.00     0.011 C 
ENDBRANCH  16  17
ENDBRANCH  15  16
ENDBRANCH  11  15
ENDBRANCH   7   8
ENDBRANCH   1   7
BRANCH   3  20
HETATM   20  C   UNL     1       1.413 -11.330   0.184  1.00  0.00     0.090 C 
HETATM   21  C   UNL     1       2.823 -11.957  -0.005  1.00  0.00     0.067 C 
HETATM   22  C   UNL     1       3.830 -11.377   0.920  1.00  0.00    -0.013 A 
HETATM   23  C   UNL     1       3.526 -10.493   1.927  1.00  0.00     0.035 A 
HETATM   24  C   UNL     1       5.221 -11.557   1.018  1.00  0.00     0.148 A 
HETATM   25  N   UNL     1       4.697 -10.207   2.563  1.00  0.00    -0.282 N 
HETATM   26  C   UNL     1       2.194  -9.931   2.247  1.00  0.00     0.061 C 
HETATM   27  H   UNL     1       4.858  -9.600   3.361  1.00  0.00     0.189 HD
HETATM   28  N   UNL     1       5.752 -10.829   2.006  1.00  0.00    -0.187 NA
HETATM   29  C   UNL     1       1.106 -10.811   1.612  1.00  0.00     0.031 C 
ENDBRANCH   3  20
TORSDOF 6
