REMARK  7 active torsions:
REMARK  status: ('A' for Active; 'I' for Inactive)
REMARK    1  A    between atoms: C_5  and  C_6 
REMARK    2  A    between atoms: C_6  and  C_7 
REMARK    3  A    between atoms: C_7  and  N_8 
REMARK       I    between atoms: N_8  and  C_9 
REMARK    4  A    between atoms: C_9  and  C_10 
REMARK    5  A    between atoms: C_13  and  O_14 
REMARK    6  A    between atoms: C_15  and  C_16 
REMARK    7  A    between atoms: C_16  and  C_17 
ROOT
HETATM    1  C   UNL     1       8.843  -3.880  -0.639  1.00  0.00     0.099 A 
HETATM    2  C   UNL     1       9.489  -5.102  -0.691  1.00  0.00     0.171 A 
HETATM    3  N   UNL     1       8.494  -6.068  -0.669  1.00  0.00    -0.192 N 
HETATM    4  C   UNL     1       8.798  -7.425  -0.830  1.00  0.00     0.174 C 
HETATM    5  C   UNL     1      10.076  -7.822  -1.001  1.00  0.00     0.023 C 
HETATM    6  C   UNL     1      11.095  -6.709  -0.868  1.00  0.00     0.044 C 
HETATM    7  C   UNL     1      12.567  -7.057  -0.827  1.00  0.00     0.071 C 
HETATM    8  N   UNL     1      10.811  -5.439  -0.760  1.00  0.00    -0.233 NA
HETATM    9  N   UNL     1       7.252  -5.532  -0.538  1.00  0.00    -0.175 NA
HETATM   10  C   UNL     1       7.476  -4.215  -0.530  1.00  0.00     0.160 A 
ENDROOT
BRANCH   1  11
HETATM   11  C   UNL     1       9.421  -2.552  -0.700  1.00  0.00     0.257 C 
HETATM   12  N   UNL     1      10.785  -2.527  -0.877  1.00  0.00    -0.356 N 
HETATM   13  H   UNL     1      11.255  -3.425  -0.984  1.00  0.00     0.162 HD
HETATM   14  O   UNL     1       8.729  -1.542  -0.630  1.00  0.00    -0.267 OA
BRANCH  12  15
HETATM   15  C   UNL     1      11.502  -1.298  -1.134  1.00  0.00     0.127 C 
BRANCH  15  16
HETATM   16  C   UNL     1      13.004  -1.537  -1.271  1.00  0.00     0.058 C 
BRANCH  16  17
HETATM   17  C   UNL     1      13.752  -0.266  -1.579  1.00  0.00    -0.057 A 
HETATM   18  C   UNL     1      14.217   0.552  -0.544  1.00  0.00     0.007 A 
HETATM   19  C   UNL     1      14.890   1.743  -0.828  1.00  0.00     0.007 A 
HETATM   20  C   UNL     1      15.099   2.141  -2.153  1.00  0.00    -0.062 A 
HETATM   21  C   UNL     1      15.832   3.410  -2.470  1.00  0.00     0.048 C 
HETATM   22  C   UNL     1      14.636   1.322  -3.189  1.00  0.00     0.007 A 
HETATM   23  C   UNL     1      13.964   0.131  -2.905  1.00  0.00     0.007 A 
ENDBRANCH  16  17
ENDBRANCH  15  16
ENDBRANCH  12  15
ENDBRANCH   1  11
BRANCH   4  24
HETATM   24  O   UNL     1       7.741  -8.325  -0.873  1.00  0.00    -0.344 OA
HETATM   25  H   UNL     1       6.930  -7.783  -0.753  1.00  0.00     0.219 HD
ENDBRANCH   4  24
BRANCH   5  26
HETATM   26  C   UNL     1      10.475  -9.240  -1.316  1.00  0.00     0.084 C 
BRANCH  26  27
HETATM   27  C   UNL     1      11.263  -9.418  -2.605  1.00  0.00    -0.047 A 
HETATM   28  C   UNL     1      10.763  -9.062  -3.876  1.00  0.00    -0.055 A 
HETATM   29  C   UNL     1       9.386  -8.491  -4.081  1.00  0.00     0.049 C 
HETATM   30  C   UNL     1      11.586  -9.218  -5.004  1.00  0.00     0.008 A 
HETATM   31  C   UNL     1      12.869  -9.754  -4.894  1.00  0.00     0.007 A 
HETATM   32  C   UNL     1      13.364 -10.143  -3.651  1.00  0.00    -0.061 A 
HETATM   33  C   UNL     1      14.724 -10.763  -3.528  1.00  0.00     0.048 C 
HETATM   34  C   UNL     1      12.551  -9.990  -2.521  1.00  0.00     0.014 A 
ENDBRANCH  26  27
ENDBRANCH   5  26
TORSDOF 7
