REMARK  7 active torsions:
REMARK  status: ('A' for Active; 'I' for Inactive)
REMARK    1  A    between atoms: C_3  and  N_4 
REMARK    2  A    between atoms: N_7  and  C_9 
REMARK    3  A    between atoms: N_12  and  C_13 
REMARK    4  A    between atoms: C_16  and  C_17 
REMARK       I    between atoms: C_17  and  N_18 
REMARK    5  A    between atoms: C_20  and  C_21 
REMARK    6  A    between atoms: C_21  and  O_22 
REMARK    7  A    between atoms: C_33  and  O_34 
ROOT
HETATM    1  C   UNL     1       2.224   6.090   1.870  1.00  0.00     0.191 C 
HETATM    2  C   UNL     1       3.509   6.932   1.955  1.00  0.00     0.053 C 
HETATM    3  C   UNL     1       3.750   7.752   0.690  1.00  0.00     0.125 C 
HETATM    4  N   UNL     1       2.551   8.517   0.370  1.00  0.00    -0.381 N 
HETATM    5  C   UNL     1       1.251   7.867   0.338  1.00  0.00     0.125 C 
HETATM    6  C   UNL     1       1.044   7.034   1.595  1.00  0.00     0.053 C 
ENDROOT
BRANCH   4   7
HETATM    7  C   UNL     1       2.652   9.902   0.369  1.00  0.00     0.030 A 
HETATM    8  C   UNL     1       3.620  10.538  -0.424  1.00  0.00     0.030 A 
HETATM    9  C   UNL     1       3.767  11.928  -0.422  1.00  0.00     0.019 A 
HETATM   10  C   UNL     1       2.945  12.718   0.383  1.00  0.00     0.032 A 
HETATM   11  C   UNL     1       1.993  12.104   1.200  1.00  0.00     0.019 A 
HETATM   12  C   UNL     1       1.834  10.712   1.170  1.00  0.00     0.030 A 
BRANCH  10  13
HETATM   13  C   UNL     1       3.204  14.178   0.438  1.00  0.00     0.253 C 
HETATM   14  N   UNL     1       2.136  15.082   0.481  1.00  0.00    -0.348 N 
HETATM   15  C   UNL     1       0.852  14.826  -0.181  1.00  0.00     0.132 C 
HETATM   16  C   UNL     1       2.496  16.497   0.596  1.00  0.00     0.126 C 
HETATM   17  C   UNL     1      -0.302  15.597   0.474  1.00  0.00     0.027 C 
HETATM   18  C   UNL     1       0.044  17.092   0.568  1.00  0.00     0.010 C 
HETATM   19  C   UNL     1       1.392  17.322   1.247  1.00  0.00     0.020 C 
HETATM   20  O   UNL     1       4.383  14.529   0.476  1.00  0.00    -0.267 OA
BRANCH  17  21
HETATM   21  C   UNL     1      -0.656  14.981   1.835  1.00  0.00     0.170 C 
BRANCH  21  22
HETATM   22  O   UNL     1      -1.746  15.659   2.444  1.00  0.00    -0.400 OA
HETATM   23  H   UNL     1      -2.482  15.689   1.809  1.00  0.00     0.209 HD
ENDBRANCH  21  22
ENDBRANCH  17  21
ENDBRANCH  10  13
ENDBRANCH   4   7
BRANCH   1  24
HETATM   24  N   UNL     1       2.360   4.971   0.817  1.00  0.00    -0.064 N 
HETATM   25  C   UNL     1       3.410   3.912   1.225  1.00  0.00     0.255 C 
HETATM   26  C   UNL     1       3.640   2.904   0.083  1.00  0.00     0.150 C 
HETATM   27  N   UNL     1       2.379   2.258  -0.346  1.00  0.00    -0.375 N 
HETATM   28  C   UNL     1       1.270   3.184  -0.631  1.00  0.00     0.150 C 
HETATM   29  C   UNL     1       1.052   4.233   0.484  1.00  0.00     0.255 C 
HETATM   30  H   UNL     1       2.683   5.390  -0.064  1.00  0.00     0.280 HD
BRANCH  27  31
HETATM   31  C   UNL     1       2.111   1.024   0.269  1.00  0.00     0.063 A 
HETATM   32  C   UNL     1       1.001   0.780   1.087  1.00  0.00     0.032 A 
HETATM   33  C   UNL     1       0.812  -0.467   1.701  1.00  0.00     0.002 A 
HETATM   34  C   UNL     1       1.725  -1.501   1.503  1.00  0.00     0.003 A 
HETATM   35  C   UNL     1       2.819  -1.301   0.670  1.00  0.00     0.039 A 
HETATM   36  C   UNL     1       2.985  -0.065   0.056  1.00  0.00     0.092 A 
BRANCH  36  37
HETATM   37  O   UNL     1       4.009   0.054  -0.849  1.00  0.00    -0.358 OA
HETATM   38  H   UNL     1       3.717   0.766  -1.449  1.00  0.00     0.218 HD
ENDBRANCH  36  37
ENDBRANCH  27  31
ENDBRANCH   1  24
TORSDOF 7
