REMARK  6 active torsions:
REMARK  status: ('A' for Active; 'I' for Inactive)
REMARK    1  A    between atoms: O_2  and  C_3 
REMARK    2  A    between atoms: C_6  and  C_7 
REMARK    3  A    between atoms: C_7  and  N_8 
REMARK       I    between atoms: N_8  and  C_9 
REMARK    4  A    between atoms: C_9  and  C_10 
REMARK    5  A    between atoms: C_10  and  O_11 
REMARK    6  A    between atoms: N_12  and  C_13 
ROOT
HETATM    1  C   UNL     1       5.786  -7.640  -3.112  1.00  0.00     0.256 C 
HETATM    2  N   UNL     1       6.021  -9.056  -3.452  1.00  0.00    -0.254 N 
HETATM    3  C   UNL     1       6.970  -9.798  -2.761  1.00  0.00     0.330 C 
HETATM    4  O   UNL     1       7.091 -11.024  -2.797  1.00  0.00    -0.246 OA
HETATM    5  N   UNL     1       7.840  -9.137  -1.954  1.00  0.00    -0.308 N 
HETATM    6  C   UNL     1       7.868  -7.775  -1.725  1.00  0.00     0.048 A 
HETATM    7  C   UNL     1       6.869  -6.986  -2.271  1.00  0.00     0.035 A 
HETATM    8  C   UNL     1       8.884  -7.229  -0.936  1.00  0.00     0.031 A 
HETATM    9  C   UNL     1       8.911  -5.858  -0.689  1.00  0.00     0.021 A 
HETATM   10  C   UNL     1       7.908  -5.051  -1.216  1.00  0.00     0.011 A 
HETATM   11 BR   UNL     1       7.929  -3.190  -0.887  1.00  0.00    -0.051 Br
HETATM   12  C   UNL     1       6.886  -5.605  -1.989  1.00  0.00     0.034 A 
HETATM   13  H   UNL     1       8.530  -9.737  -1.520  1.00  0.00     0.170 HD
ENDROOT
BRANCH   1  14
HETATM   14  C   UNL     1       5.637  -6.761  -4.436  1.00  0.00     0.279 C 
HETATM   15  N   UNL     1       4.540  -5.910  -4.404  1.00  0.00    -0.352 N 
HETATM   16  H   UNL     1       3.882  -6.030  -3.639  1.00  0.00     0.162 HD
HETATM   17  O   UNL     1       6.443  -6.776  -5.365  1.00  0.00    -0.268 OA
BRANCH  15  18
HETATM   18  C   UNL     1       4.252  -4.966  -5.452  1.00  0.00     0.161 C 
BRANCH  18  19
HETATM   19  C   UNL     1       3.259  -5.503  -6.448  1.00  0.00    -0.040 A 
HETATM   20  C   UNL     1       1.915  -5.113  -6.408  1.00  0.00     0.011 A 
HETATM   21  C   UNL     1       1.019  -5.574  -7.377  1.00  0.00     0.037 A 
HETATM   22  C   UNL     1       1.450  -6.422  -8.399  1.00  0.00     0.068 A 
HETATM   23  C   UNL     1       2.776  -6.851  -8.417  1.00  0.00     0.037 A 
HETATM   24  C   UNL     1       3.674  -6.393  -7.448  1.00  0.00     0.011 A 
BRANCH  22  25
HETATM   25  O   UNL     1       0.488  -6.772  -9.307  1.00  0.00    -0.356 OA
HETATM   26  C   UNL     1       0.962  -7.265 -10.556  1.00  0.00     0.210 C 
ENDBRANCH  22  25
ENDBRANCH  18  19
ENDBRANCH  15  18
ENDBRANCH   1  14
BRANCH   1  27
HETATM   27  O   UNL     1       4.613  -7.597  -2.294  1.00  0.00    -0.359 OA
HETATM   28  H   UNL     1       4.359  -8.534  -2.217  1.00  0.00     0.213 HD
ENDBRANCH   1  27
BRANCH   2  29
HETATM   29  C   UNL     1       5.218  -9.696  -4.482  1.00  0.00     0.042 A 
HETATM   30  C   UNL     1       3.926  -9.255  -4.816  1.00  0.00     0.030 A 
HETATM   31  C   UNL     1       3.178  -9.875  -5.827  1.00  0.00     0.002 A 
HETATM   32  C   UNL     1       3.706 -10.950  -6.530  1.00  0.00     0.000 A 
HETATM   33  C   UNL     1       4.982 -11.402  -6.228  1.00  0.00     0.002 A 
HETATM   34  C   UNL     1       5.727 -10.779  -5.220  1.00  0.00     0.030 A 
ENDBRANCH   2  29
TORSDOF 6
