REMARK  6 active torsions:
REMARK  status: ('A' for Active; 'I' for Inactive)
REMARK    1  A    between atoms: C_3  and  C_4 
REMARK    2  A    between atoms: C_4  and  N_5 
REMARK    3  A    between atoms: C_4  and  C_9 
REMARK       I    between atoms: N_5  and  C_6 
REMARK       I    between atoms: C_6  and  N_7 
REMARK    4  A    between atoms: C_9  and  C_10 
REMARK       I    between atoms: C_10  and  N_11 
REMARK    5  A    between atoms: N_11  and  N_12 
REMARK       I    between atoms: N_12  and  C_13 
REMARK    6  A    between atoms: C_13  and  C_14 
ROOT
HETATM    1  C   UNL     1       1.225   4.955  -0.872  1.00  0.00     0.238 C 
HETATM    2  N   UNL     1       0.581   6.174  -0.935  1.00  0.00    -0.267 N 
HETATM    3  O   UNL     1       2.370   4.792  -1.294  1.00  0.00    -0.272 OA
HETATM    4  H   UNL     1      -0.281   6.371  -0.426  1.00  0.00     0.190 HD
ENDROOT
BRANCH   1   5
HETATM    5  C   UNL     1       0.365   3.852  -0.298  1.00  0.00     0.134 C 
BRANCH   5   6
HETATM    6  C   UNL     1       1.191   2.588   0.001  1.00  0.00     0.129 C 
BRANCH   6   7
HETATM    7  C   UNL     1       0.326   1.374   0.330  1.00  0.00    -0.013 A 
HETATM    8  C   UNL     1      -0.658   1.459   1.335  1.00  0.00     0.011 A 
HETATM    9  C   UNL     1      -1.468   0.367   1.660  1.00  0.00     0.001 A 
HETATM   10  C   UNL     1      -1.314  -0.838   0.987  1.00  0.00     0.002 A 
HETATM   11  C   UNL     1      -0.343  -0.953  -0.005  1.00  0.00     0.024 A 
HETATM   12  C   UNL     1       0.475   0.138  -0.329  1.00  0.00     0.042 A 
HETATM   13 CL   UNL     1       1.655  -0.126  -1.567  1.00  0.00    -0.084 Cl
ENDBRANCH   6   7
BRANCH   6  14
HETATM   14  N   UNL     1       2.250   2.771   0.996  1.00  0.00    -0.339 N 
HETATM   15  C   UNL     1       2.089   3.367   2.206  1.00  0.00     0.292 C 
HETATM   16  N   UNL     1       3.257   3.448   2.892  1.00  0.00    -0.254 NA
HETATM   17  O   UNL     1       1.050   3.812   2.669  1.00  0.00    -0.254 OA
HETATM   18  H   UNL     1       3.886   2.663   2.798  1.00  0.00     0.128 HD
HETATM   19  H   UNL     1       3.141   3.785   3.839  1.00  0.00     0.128 HD
HETATM   20  H   UNL     1       3.175   2.893   0.607  1.00  0.00     0.164 HD
ENDBRANCH   6  14
ENDBRANCH   5   6
ENDBRANCH   1   5
BRANCH   2  21
HETATM   21  N   UNL     1       1.335   7.286  -1.315  1.00  0.00    -0.263 N 
HETATM   22  C   UNL     1       0.775   8.538  -1.179  1.00  0.00     0.270 C 
HETATM   23  O   UNL     1      -0.364   8.713  -0.754  1.00  0.00    -0.266 OA
HETATM   24  H   UNL     1       2.236   7.092  -1.748  1.00  0.00     0.190 HD
BRANCH  22  25
HETATM   25  C   UNL     1       1.616   9.691  -1.600  1.00  0.00     0.036 A 
HETATM   26  C   UNL     1       3.017   9.628  -1.593  1.00  0.00     0.057 A 
HETATM   27  C   UNL     1       3.708  10.752  -1.996  1.00  0.00     0.106 A 
HETATM   28  C   UNL     1       3.067  11.904  -2.388  1.00  0.00     0.105 A 
HETATM   29  O   UNL     1       5.062  10.868  -2.050  1.00  0.00    -0.323 OA
HETATM   30  O   UNL     1       3.938  12.886  -2.742  1.00  0.00    -0.323 OA
HETATM   31  C   UNL     1       1.694  12.003  -2.395  1.00  0.00     0.041 A 
HETATM   32  C   UNL     1       5.201  12.225  -2.521  1.00  0.00     0.352 A 
HETATM   33  C   UNL     1       0.961  10.882  -1.990  1.00  0.00     0.020 A 
ENDBRANCH  22  25
ENDBRANCH   2  21
TORSDOF 6
