REMARK  5 active torsions:
REMARK  status: ('A' for Active; 'I' for Inactive)
REMARK    1  A    between atoms: C_2  and  C_3 
REMARK       I    between atoms: C_3  and  N_4 
REMARK    2  A    between atoms: N_4  and  N_5 
REMARK    3  A    between atoms: N_5  and  C_6 
REMARK    4  A    between atoms: N_7  and  C_8 
REMARK    5  A    between atoms: C_8  and  C_9 
ROOT
HETATM    1  C   UNL     1      -0.406   3.255  -1.560  1.00  0.00     0.200 A 
HETATM    2  N   UNL     1      -0.023   4.576  -1.441  1.00  0.00    -0.283 N 
HETATM    3  C   UNL     1      -0.775   5.589  -2.011  1.00  0.00     0.259 A 
HETATM    4  O   UNL     1      -0.444   6.771  -1.930  1.00  0.00    -0.267 OA
HETATM    5  C   UNL     1      -2.022   5.198  -2.724  1.00  0.00     0.049 A 
HETATM    6  C   UNL     1      -2.310   3.882  -2.704  1.00  0.00     0.083 A 
HETATM    7  C   UNL     1      -3.579   3.410  -3.320  1.00  0.00    -0.000 A 
HETATM    8  C   UNL     1      -4.256   4.223  -4.242  1.00  0.00    -0.044 A 
HETATM    9  C   UNL     1      -5.433   3.771  -4.855  1.00  0.00     0.008 A 
HETATM   10  C   UNL     1      -5.956   2.520  -4.533  1.00  0.00     0.001 A 
HETATM   11  C   UNL     1      -5.303   1.712  -3.608  1.00  0.00     0.001 A 
HETATM   12  C   UNL     1      -4.121   2.152  -3.009  1.00  0.00     0.014 A 
HETATM   13  C   UNL     1      -3.661   5.555  -4.603  1.00  0.00     0.054 C 
HETATM   14  C   UNL     1      -2.940   6.230  -3.403  1.00  0.00    -0.002 C 
HETATM   15  C   UNL     1      -3.972   6.785  -2.391  1.00  0.00     0.015 C 
HETATM   16  C   UNL     1      -3.303   8.004  -1.778  1.00  0.00     0.001 C 
HETATM   17  C   UNL     1      -2.545   8.638  -2.934  1.00  0.00     0.001 C 
HETATM   18  C   UNL     1      -2.264   7.519  -3.943  1.00  0.00     0.015 C 
HETATM   19  N   UNL     1      -1.516   2.918  -2.153  1.00  0.00    -0.218 NA
ENDROOT
BRANCH   1  20
HETATM   20  N   UNL     1       0.395   2.240  -1.054  1.00  0.00    -0.188 NA
HETATM   21  H   UNL     1       1.401   2.406  -1.098  1.00  0.00     0.150 HD
BRANCH  20  22
HETATM   22  N   UNL     1       0.085   0.960  -1.601  1.00  0.00    -0.189 NA
HETATM   23  C   UNL     1       1.015   0.486  -2.509  1.00  0.00     0.210 C 
HETATM   24  O   UNL     1       2.156   0.940  -2.587  1.00  0.00    -0.279 OA
HETATM   25  H   UNL     1      -0.904   0.893  -1.852  1.00  0.00     0.150 HD
BRANCH  23  26
HETATM   26  C   UNL     1       0.495  -0.616  -3.404  1.00  0.00     0.093 C 
HETATM   27  C   UNL     1       0.426  -0.142  -4.844  1.00  0.00     0.014 C 
ENDBRANCH  23  26
ENDBRANCH  20  22
ENDBRANCH   1  20
BRANCH   2  28
HETATM   28  C   UNL     1       1.139   4.981  -0.646  1.00  0.00     0.173 C 
BRANCH  28  29
HETATM   29  C   UNL     1       0.841   5.003   0.840  1.00  0.00    -0.040 A 
HETATM   30  C   UNL     1       1.432   4.071   1.706  1.00  0.00     0.009 A 
HETATM   31  C   UNL     1       1.146   4.091   3.073  1.00  0.00     0.001 A 
HETATM   32  C   UNL     1       0.268   5.042   3.590  1.00  0.00     0.000 A 
HETATM   33  C   UNL     1      -0.322   5.976   2.742  1.00  0.00     0.001 A 
HETATM   34  C   UNL     1      -0.035   5.959   1.376  1.00  0.00     0.009 A 
ENDBRANCH  28  29
ENDBRANCH   2  28
TORSDOF 5
