REMARK  6 active torsions:
REMARK  status: ('A' for Active; 'I' for Inactive)
REMARK    1  A    between atoms: C_5  and  N_6 
REMARK    2  A    between atoms: N_6  and  C_7 
REMARK    3  A    between atoms: C_7  and  C_8 
REMARK    4  A    between atoms: N_10  and  C_12 
REMARK    5  A    between atoms: C_12  and  C_13 
REMARK    6  A    between atoms: C_14  and  O_15 
ROOT
HETATM    1  C   UNL     1       5.356   5.008  -0.662  1.00  0.00     0.026 C 
HETATM    2  C   UNL     1       6.653   5.115   0.133  1.00  0.00     0.241 C 
HETATM    3  N   UNL     1       7.113   6.528  -0.128  1.00  0.00    -0.067 N 
HETATM    4  H   UNL     1       7.467   6.939   0.756  1.00  0.00     0.280 HD
HETATM    5  C   UNL     1       5.913   7.336  -0.578  1.00  0.00     0.235 C 
HETATM    6  C   UNL     1       4.737   6.382  -0.421  1.00  0.00     0.035 C 
ENDROOT
BRANCH   1   7
HETATM    7  C   UNL     1       4.442   3.852  -0.246  1.00  0.00     0.100 C 
BRANCH   7   8
HETATM    8  N   UNL     1       5.108   2.575  -0.470  1.00  0.00    -0.279 NA
HETATM    9  H   UNL     1       5.574   2.508  -1.381  1.00  0.00     0.129 HD
BRANCH   8  10
HETATM   10  C   UNL     1       4.477   1.352  -0.210  1.00  0.00     0.080 A 
HETATM   11  N   UNL     1       3.205   1.255   0.215  1.00  0.00    -0.351 N 
HETATM   12  C   UNL     1       2.585   0.082   0.458  1.00  0.00     0.006 A 
HETATM   13  H   UNL     1       2.670   2.106   0.344  1.00  0.00     0.167 HD
HETATM   14  C   UNL     1       1.148   0.091   0.872  1.00  0.00     0.068 C 
HETATM   15  C   UNL     1       3.292  -1.109   0.302  1.00  0.00     0.024 A 
HETATM   16  C   UNL     1       4.618  -1.064  -0.104  1.00  0.00     0.005 A 
HETATM   17  C   UNL     1       5.210   0.168  -0.361  1.00  0.00     0.042 A 
ENDBRANCH   8  10
ENDBRANCH   7   8
ENDBRANCH   1   7
BRANCH   3  18
HETATM   18  C   UNL     1       8.306   6.639  -1.050  1.00  0.00     0.276 C 
BRANCH  18  19
HETATM   19  C   UNL     1       8.865   8.031  -1.138  1.00  0.00     0.002 A 
HETATM   20  C   UNL     1       9.232   8.734   0.018  1.00  0.00     0.091 A 
HETATM   21  C   UNL     1       9.789  10.014  -0.064  1.00  0.00     0.044 A 
HETATM   22 BR   UNL     1      10.283  10.954   1.501  1.00  0.00    -0.048 Br
HETATM   23  C   UNL     1       9.981  10.609  -1.309  1.00  0.00     0.022 A 
HETATM   24  C   UNL     1       9.619   9.923  -2.468  1.00  0.00     0.002 A 
HETATM   25  C   UNL     1       9.070   8.640  -2.385  1.00  0.00     0.012 A 
BRANCH  20  26
HETATM   26  O   UNL     1       9.004   8.128   1.231  1.00  0.00    -0.359 OA
HETATM   27  H   UNL     1       9.442   8.696   1.904  1.00  0.00     0.218 HD
ENDBRANCH  20  26
ENDBRANCH  18  19
ENDBRANCH   3  18
TORSDOF 6
