REMARK  8 active torsions:
REMARK  status: ('A' for Active; 'I' for Inactive)
REMARK    1  A    between atoms: C_3  and  C_4 
REMARK    2  A    between atoms: N_5  and  N_6 
REMARK    3  A    between atoms: C_17  and  C_18 
REMARK       I    between atoms: C_18  and  N_19 
REMARK    4  A    between atoms: N_19  and  C_20 
REMARK    5  A    between atoms: C_20  and  C_21 
REMARK    6  A    between atoms: C_21  and  C_22 
REMARK    7  A    between atoms: C_29  and  N_30 
REMARK    8  A    between atoms: C_31  and  O_32 
ROOT
HETATM    1  N   UNL     1       0.087   4.495  -0.703  1.00  0.00    -0.202 N 
HETATM    2  C   UNL     1      -0.937   5.414  -0.598  1.00  0.00     0.183 A 
HETATM    3  C   UNL     1      -2.143   4.722  -0.676  1.00  0.00     0.124 A 
HETATM    4  N   UNL     1      -3.330   5.379  -0.609  1.00  0.00    -0.242 NA
HETATM    5  C   UNL     1      -3.229   6.710  -0.428  1.00  0.00     0.086 A 
HETATM    6  C   UNL     1      -1.983   7.385  -0.339  1.00  0.00     0.088 A 
HETATM    7  N   UNL     1      -0.804   6.751  -0.433  1.00  0.00    -0.225 NA
HETATM    8  C   UNL     1      -4.394   7.461  -0.321  1.00  0.00     0.034 A 
HETATM    9  C   UNL     1      -4.362   8.845  -0.128  1.00  0.00     0.002 A 
HETATM   10  C   UNL     1      -3.141   9.497  -0.042  1.00  0.00     0.002 A 
HETATM   11  C   UNL     1      -1.963   8.759  -0.149  1.00  0.00     0.034 A 
HETATM   12  C   UNL     1      -1.845   3.343  -0.821  1.00  0.00     0.104 A 
HETATM   13  C   UNL     1      -0.460   3.226  -0.799  1.00  0.00     0.123 A 
ENDROOT
BRANCH  12  14
HETATM   14  C   UNL     1      -2.738   2.207  -0.904  1.00  0.00     0.257 C 
HETATM   15  N   UNL     1      -2.633   1.546  -2.118  1.00  0.00    -0.356 N 
HETATM   16  H   UNL     1      -2.115   2.050  -2.827  1.00  0.00     0.162 HD
HETATM   17  O   UNL     1      -3.374   1.788   0.054  1.00  0.00    -0.267 OA
BRANCH  15  18
HETATM   18  C   UNL     1      -2.388   0.117  -2.110  1.00  0.00     0.127 C 
BRANCH  18  19
HETATM   19  C   UNL     1      -3.441  -0.719  -2.838  1.00  0.00     0.053 C 
BRANCH  19  20
HETATM   20  C   UNL     1      -4.320  -1.479  -1.873  1.00  0.00    -0.082 C 
HETATM   21  C   UNL     1      -5.631  -0.832  -1.502  1.00  0.00     0.034 C 
HETATM   22  C   UNL     1      -6.282  -1.447  -0.261  1.00  0.00     0.005 C 
HETATM   23  C   UNL     1      -6.207  -2.970  -0.288  1.00  0.00     0.004 C 
HETATM   24  C   UNL     1      -4.760  -3.452  -0.381  1.00  0.00     0.027 C 
HETATM   25  C   UNL     1      -3.938  -2.663  -1.358  1.00  0.00    -0.024 C 
ENDBRANCH  19  20
ENDBRANCH  18  19
ENDBRANCH  15  18
ENDBRANCH  12  14
BRANCH  13  26
HETATM   26  N   UNL     1       0.355   2.129  -0.830  1.00  0.00    -0.286 NA
HETATM   27  H   UNL     1      -0.044   1.248  -0.501  1.00  0.00     0.125 HD
HETATM   28  H   UNL     1       1.281   2.265  -0.414  1.00  0.00     0.125 HD
ENDBRANCH  13  26
BRANCH   1  29
HETATM   29  N   UNL     1       1.430   4.717  -0.557  1.00  0.00    -0.176 NA
HETATM   30  C   UNL     1       2.019   5.327  -1.541  1.00  0.00     0.153 C 
BRANCH  30  31
HETATM   31  C   UNL     1       1.484   5.643  -2.872  1.00  0.00     0.016 A 
HETATM   32  C   UNL     1       1.056   6.946  -3.129  1.00  0.00     0.016 A 
HETATM   33  C   UNL     1       0.668   7.299  -4.422  1.00  0.00     0.001 A 
HETATM   34  C   UNL     1       0.747   6.363  -5.455  1.00  0.00     0.003 A 
HETATM   35  C   UNL     1       1.187   5.063  -5.194  1.00  0.00     0.037 A 
HETATM   36  C   UNL     1       1.538   4.697  -3.898  1.00  0.00     0.077 A 
BRANCH  36  37
HETATM   37  O   UNL     1       1.933   3.403  -3.705  1.00  0.00    -0.360 OA
HETATM   38  H   UNL     1       1.780   3.158  -2.772  1.00  0.00     0.217 HD
ENDBRANCH  36  37
ENDBRANCH  30  31
ENDBRANCH   1  29
TORSDOF 8
