REMARK  6 active torsions:
REMARK  status: ('A' for Active; 'I' for Inactive)
REMARK    1  A    between atoms: C_2  and  N_3 
REMARK    2  A    between atoms: C_2  and  C_25 
REMARK       I    between atoms: N_3  and  C_4 
REMARK    3  A    between atoms: C_4  and  C_5 
REMARK    4  A    between atoms: C_5  and  N_6 
REMARK    5  A    between atoms: C_10  and  N_11 
REMARK       I    between atoms: N_11  and  C_12 
REMARK       I    between atoms: C_12  and  N_13 
REMARK    6  A    between atoms: N_13  and  C_14 
ROOT
HETATM    1  N   UNL     1       1.601  -1.868   1.669  1.00  0.00    -0.063 N 
HETATM    2  H   UNL     1       1.001  -2.232   2.423  1.00  0.00     0.280 HD
HETATM    3  C   UNL     1       2.964  -1.646   2.284  1.00  0.00     0.237 C 
HETATM    4  C   UNL     1       3.027  -0.364   3.087  1.00  0.00     0.053 C 
HETATM    5  C   UNL     1       2.547   0.862   2.319  1.00  0.00     0.089 C 
HETATM    6  C   UNL     1       1.142   0.629   1.775  1.00  0.00     0.053 C 
HETATM    7  C   UNL     1       0.931  -0.678   1.031  1.00  0.00     0.237 C 
ENDROOT
BRANCH   1   8
HETATM    8  C   UNL     1       1.672  -3.003   0.625  1.00  0.00     0.337 C 
BRANCH   8   9
HETATM    9  C   UNL     1       2.281  -4.289   1.183  1.00  0.00     0.244 C 
HETATM   10  N   UNL     1       3.284  -4.831   0.421  1.00  0.00    -0.351 N 
HETATM   11  H   UNL     1       3.590  -4.384  -0.437  1.00  0.00     0.163 HD
HETATM   12  O   UNL     1       1.923  -4.726   2.273  1.00  0.00    -0.272 OA
BRANCH  10  13
HETATM   13  C   UNL     1       4.037  -6.012   0.820  1.00  0.00     0.120 C 
HETATM   14  C   UNL     1       5.025  -5.707   1.946  1.00  0.00     0.038 C 
BRANCH  13  15
HETATM   15  C   UNL     1       4.732  -6.553  -0.406  1.00  0.00     0.005 A 
HETATM   16  S   UNL     1       5.774  -5.563  -1.355  1.00  0.00    -0.104 SA
HETATM   17  C   UNL     1       6.104  -6.835  -2.445  1.00  0.00     0.050 A 
HETATM   18  C   UNL     1       5.439  -7.991  -2.106  1.00  0.00     0.008 A 
HETATM   19  C   UNL     1       4.648  -7.829  -0.932  1.00  0.00     0.017 A 
ENDBRANCH  13  15
ENDBRANCH  10  13
ENDBRANCH   8   9
ENDBRANCH   1   8
BRANCH   5  20
HETATM   20  N   UNL     1       3.539   1.381   1.373  1.00  0.00    -0.338 N 
HETATM   21  C   UNL     1       3.979   0.775   0.221  1.00  0.00     0.321 C 
HETATM   22  N   UNL     1       5.125   1.359  -0.261  1.00  0.00    -0.309 N 
HETATM   23  O   UNL     1       3.440  -0.223  -0.235  1.00  0.00    -0.247 OA
HETATM   24  H   UNL     1       5.612   1.979   0.371  1.00  0.00     0.170 HD
HETATM   25  H   UNL     1       3.828   2.344   1.502  1.00  0.00     0.164 HD
BRANCH  22  26
HETATM   26  C   UNL     1       5.859   0.925  -1.388  1.00  0.00     0.036 A 
HETATM   27  C   UNL     1       5.320   0.114  -2.394  1.00  0.00     0.032 A 
HETATM   28  C   UNL     1       6.114  -0.314  -3.461  1.00  0.00     0.044 A 
HETATM   29  C   UNL     1       7.446   0.072  -3.523  1.00  0.00     0.116 A 
HETATM   30  F   UNL     1       8.209  -0.352  -4.537  1.00  0.00    -0.206 F 
HETATM   31  C   UNL     1       7.994   0.895  -2.548  1.00  0.00     0.044 A 
HETATM   32  C   UNL     1       7.198   1.331  -1.485  1.00  0.00     0.032 A 
ENDBRANCH  22  26
ENDBRANCH   5  20
TORSDOF 6
