REMARK  10 active torsions:
REMARK  status: ('A' for Active; 'I' for Inactive)
REMARK    1  A    between atoms: C_2  and  O_3 
REMARK    2  A    between atoms: O_3  and  C_4 
REMARK    3  A    between atoms: C_6  and  O_7 
REMARK    4  A    between atoms: O_7  and  C_8 
REMARK    5  A    between atoms: C_11  and  C_12 
REMARK       I    between atoms: C_12  and  N_13 
REMARK    6  A    between atoms: N_13  and  C_14 
REMARK    7  A    between atoms: C_14  and  N_15 
REMARK    8  A    between atoms: N_15  and  C_16 
REMARK    9  A    between atoms: C_18  and  C_19 
REMARK   10  A    between atoms: C_28  and  O_29 
ROOT
HETATM    1  N   UNL     1       8.722  -1.918   1.277  1.00  0.00    -0.333 N 
HETATM    2  H   UNL     1       7.908  -2.289   0.783  1.00  0.00     0.168 HD
ENDROOT
BRANCH   1   3
HETATM    3  C   UNL     1       9.302  -2.829   2.127  1.00  0.00     0.179 C 
HETATM    4  S   UNL     1      10.838  -2.833   2.788  1.00  0.00    -0.040 SA
BRANCH   3   5
HETATM    5  N   UNL     1       8.501  -3.903   2.475  1.00  0.00    -0.299 N 
HETATM    6  C   UNL     1       7.191  -4.177   2.101  1.00  0.00     0.258 C 
HETATM    7  O   UNL     1       6.612  -3.575   1.199  1.00  0.00    -0.267 OA
HETATM    8  H   UNL     1       8.936  -4.469   3.188  1.00  0.00     0.171 HD
BRANCH   6   9
HETATM    9  C   UNL     1       6.485  -5.257   2.855  1.00  0.00     0.037 A 
HETATM   10  C   UNL     1       5.082  -5.267   2.823  1.00  0.00     0.054 A 
HETATM   11  C   UNL     1       4.369  -6.222   3.548  1.00  0.00     0.072 A 
HETATM   12  C   UNL     1       5.058  -7.160   4.324  1.00  0.00     0.073 A 
HETATM   13  C   UNL     1       6.450  -7.170   4.352  1.00  0.00     0.072 A 
HETATM   14  C   UNL     1       7.161  -6.231   3.601  1.00  0.00     0.054 A 
BRANCH  11  15
HETATM   15  O   UNL     1       3.006  -6.335   3.602  1.00  0.00    -0.351 OA
BRANCH  15  16
HETATM   16  C   UNL     1       2.251  -5.564   2.668  1.00  0.00     0.171 C 
HETATM   17  C   UNL     1       0.796  -5.977   2.794  1.00  0.00     0.034 C 
ENDBRANCH  15  16
ENDBRANCH  11  15
BRANCH  13  18
HETATM   18  O   UNL     1       7.235  -8.038   5.060  1.00  0.00    -0.351 OA
BRANCH  18  19
HETATM   19  C   UNL     1       6.577  -8.880   6.007  1.00  0.00     0.171 C 
HETATM   20  C   UNL     1       7.643  -9.649   6.768  1.00  0.00     0.034 C 
ENDBRANCH  18  19
ENDBRANCH  13  18
ENDBRANCH   6   9
ENDBRANCH   3   5
ENDBRANCH   1   3
BRANCH   1  21
HETATM   21  C   UNL     1       9.068  -0.586   0.956  1.00  0.00     0.035 A 
HETATM   22  C   UNL     1       8.486  -0.031  -0.195  1.00  0.00     0.046 A 
HETATM   23  C   UNL     1       8.740   1.299  -0.584  1.00  0.00     0.036 A 
HETATM   24  C   UNL     1       9.562   2.081   0.252  1.00  0.00     0.084 A 
HETATM   25  C   UNL     1      10.135   1.556   1.416  1.00  0.00    -0.026 A 
HETATM   26  C   UNL     1      11.007   2.403   2.298  1.00  0.00     0.051 C 
HETATM   27  C   UNL     1       9.881   0.220   1.753  1.00  0.00     0.039 A 
BRANCH  23  28
HETATM   28  C   UNL     1       8.171   1.888  -1.815  1.00  0.00     0.112 A 
HETATM   29  S   UNL     1       7.679   0.932  -3.157  1.00  0.00    -0.067 SA
HETATM   30  C   UNL     1       7.283   2.352  -4.044  1.00  0.00     0.035 A 
HETATM   31  C   UNL     1       7.550   3.468  -3.252  1.00  0.00     0.075 A 
HETATM   32  C   UNL     1       6.775   2.473  -5.348  1.00  0.00     0.021 A 
HETATM   33  N   UNL     1       8.068   3.193  -1.998  1.00  0.00    -0.239 NA
HETATM   34  C   UNL     1       7.291   4.751  -3.775  1.00  0.00     0.033 A 
HETATM   35  C   UNL     1       6.781   4.884  -5.070  1.00  0.00     0.002 A 
HETATM   36  C   UNL     1       6.530   3.757  -5.846  1.00  0.00     0.002 A 
ENDBRANCH  23  28
BRANCH  24  37
HETATM   37  O   UNL     1       9.837   3.400  -0.026  1.00  0.00    -0.359 OA
HETATM   38  H   UNL     1       9.265   3.677  -0.774  1.00  0.00     0.218 HD
ENDBRANCH  24  37
ENDBRANCH   1  21
TORSDOF 10
