REMARK  6 active torsions:
REMARK  status: ('A' for Active; 'I' for Inactive)
REMARK    1  A    between atoms: C_3  and  O_4 
REMARK    2  A    between atoms: O_4  and  C_5 
REMARK    3  A    between atoms: C_5  and  C_6 
REMARK       I    between atoms: C_6  and  N_7 
REMARK    4  A    between atoms: N_7  and  C_8 
REMARK    5  A    between atoms: C_8  and  C_9 
REMARK       I    between atoms: C_9  and  N_10 
REMARK    6  A    between atoms: N_10  and  N_11 
ROOT
HETATM    1  C   UNL     1      -1.230   3.011  -0.051  1.00  0.00     0.255 C 
HETATM    2  N   UNL     1      -1.943   4.188   0.092  1.00  0.00    -0.245 N 
HETATM    3  O   UNL     1      -1.730   1.890  -0.147  1.00  0.00    -0.270 OA
HETATM    4  H   UNL     1      -1.444   5.073   0.217  1.00  0.00     0.192 HD
ENDROOT
BRANCH   1   5
HETATM    5  C   UNL     1       0.288   3.189  -0.010  1.00  0.00     0.227 C 
BRANCH   5   6
HETATM    6  N   UNL     1       0.754   4.558  -0.205  1.00  0.00    -0.350 N 
HETATM    7  C   UNL     1       1.713   5.222   0.512  1.00  0.00     0.242 C 
HETATM    8  O   UNL     1       2.139   6.293   0.078  1.00  0.00    -0.271 OA
HETATM    9  H   UNL     1       0.508   5.028  -1.070  1.00  0.00     0.163 HD
BRANCH   7  10
HETATM   10  C   UNL     1       2.256   4.596   1.792  1.00  0.00     0.278 C 
BRANCH  10  11
HETATM   11  O   UNL     1       1.192   4.476   2.728  1.00  0.00    -0.342 OA
BRANCH  11  12
HETATM   12  C   UNL     1       1.523   4.039   3.983  1.00  0.00     0.075 A 
HETATM   13  C   UNL     1       0.643   4.397   5.019  1.00  0.00    -0.029 A 
HETATM   14  C   UNL     1      -0.550   5.282   4.780  1.00  0.00     0.051 C 
HETATM   15  C   UNL     1       0.920   3.979   6.331  1.00  0.00     0.009 A 
HETATM   16  C   UNL     1       2.034   3.188   6.605  1.00  0.00     0.001 A 
HETATM   17  C   UNL     1       2.887   2.814   5.573  1.00  0.00     0.003 A 
HETATM   18  C   UNL     1       2.634   3.237   4.266  1.00  0.00     0.037 A 
ENDBRANCH  11  12
ENDBRANCH  10  11
ENDBRANCH   7  10
ENDBRANCH   5   6
ENDBRANCH   1   5
BRANCH   2  19
HETATM   19  N   UNL     1      -3.307   4.166   0.081  1.00  0.00    -0.166 NA
HETATM   20  C   UNL     1      -3.913   5.306   0.153  1.00  0.00     0.157 A 
HETATM   21  C   UNL     1      -3.307   6.708   0.226  1.00  0.00     0.277 A 
HETATM   22  C   UNL     1      -5.359   5.494   0.162  1.00  0.00     0.028 A 
HETATM   23  O   UNL     1      -2.118   6.946   0.237  1.00  0.00    -0.266 OA
HETATM   24  N   UNL     1      -4.378   7.573   0.265  1.00  0.00    -0.321 N 
HETATM   25  C   UNL     1      -5.580   6.870   0.228  1.00  0.00     0.048 A 
HETATM   26  H   UNL     1      -4.278   8.577   0.311  1.00  0.00     0.169 HD
HETATM   27  C   UNL     1      -6.857   7.388   0.249  1.00  0.00     0.032 A 
HETATM   28  C   UNL     1      -7.920   6.476   0.203  1.00  0.00     0.021 A 
HETATM   29  C   UNL     1      -7.681   5.087   0.138  1.00  0.00     0.012 A 
HETATM   30 BR   UNL     1      -9.152   3.898   0.082  1.00  0.00    -0.051 Br
HETATM   31  C   UNL     1      -6.385   4.573   0.116  1.00  0.00     0.035 A 
ENDBRANCH   2  19
TORSDOF 6
