REMARK  9 active torsions:
REMARK  status: ('A' for Active; 'I' for Inactive)
REMARK    1  A    between atoms: C_5  and  N_6 
REMARK       I    between atoms: N_6  and  C_7 
REMARK    2  A    between atoms: C_7  and  C_8 
REMARK    3  A    between atoms: C_8  and  S_9 
REMARK    4  A    between atoms: S_9  and  C_10 
REMARK    5  A    between atoms: C_11  and  C_12 
REMARK       I    between atoms: C_12  and  N_13 
REMARK    6  A    between atoms: N_13  and  C_14 
REMARK    7  A    between atoms: C_14  and  C_15 
REMARK    8  A    between atoms: C_15  and  N_16 
REMARK    9  A    between atoms: C_15  and  C_22 
ROOT
HETATM    1  C   UNL     1      10.668  -1.929   0.764  1.00  0.00     0.016 A 
HETATM    2  C   UNL     1      10.868  -0.756   1.536  1.00  0.00     0.048 A 
HETATM    3  C   UNL     1      11.812  -0.741   2.581  1.00  0.00     0.018 A 
HETATM    4  C   UNL     1      12.523  -1.890   2.912  1.00  0.00     0.001 A 
HETATM    5  C   UNL     1      12.297  -3.060   2.202  1.00  0.00     0.001 A 
HETATM    6  C   UNL     1      11.383  -3.078   1.141  1.00  0.00     0.019 A 
ENDROOT
BRANCH   2   7
HETATM    7  C   UNL     1      10.057   0.495   1.418  1.00  0.00     0.253 C 
HETATM    8  N   UNL     1       8.708   0.313   1.254  1.00  0.00    -0.354 N 
HETATM    9  H   UNL     1       8.381  -0.630   1.056  1.00  0.00     0.162 HD
HETATM   10  O   UNL     1      10.528   1.610   1.626  1.00  0.00    -0.268 OA
BRANCH   8  11
HETATM   11  C   UNL     1       7.745   1.391   1.237  1.00  0.00     0.161 C 
BRANCH  11  12
HETATM   12  C   UNL     1       7.248   1.913   2.621  1.00  0.00     0.245 C 
BRANCH  12  13
HETATM   13  N   UNL     1       8.280   2.777   3.346  1.00  0.00    -0.061 N 
HETATM   14  H   UNL     1       8.841   3.209   2.596  1.00  0.00     0.280 HD
HETATM   15  C   UNL     1       9.331   2.124   4.222  1.00  0.00     0.236 C 
HETATM   16  C   UNL     1       9.010   2.594   5.626  1.00  0.00     0.029 C 
HETATM   17  C   UNL     1       8.536   4.014   5.395  1.00  0.00     0.029 C 
HETATM   18  C   UNL     1       7.647   3.880   4.176  1.00  0.00     0.236 C 
ENDBRANCH  12  13
BRANCH  12  19
HETATM   19  C   UNL     1       6.507   0.886   3.462  1.00  0.00     0.015 A 
HETATM   20  S   UNL     1       7.199  -0.621   3.916  1.00  0.00    -0.104 SA
HETATM   21  C   UNL     1       5.800  -1.113   4.752  1.00  0.00     0.050 A 
HETATM   22  C   UNL     1       4.802  -0.172   4.675  1.00  0.00     0.008 A 
HETATM   23  C   UNL     1       5.205   0.976   3.933  1.00  0.00     0.017 A 
ENDBRANCH  12  19
ENDBRANCH  11  12
ENDBRANCH   8  11
ENDBRANCH   2   7
BRANCH   1  24
HETATM   24  S   UNL     1       9.536  -1.934  -0.646  1.00  0.00    -0.120 SA
BRANCH  24  25
HETATM   25  C   UNL     1       9.852  -3.492  -1.560  1.00  0.00     0.182 C 
BRANCH  25  26
HETATM   26  C   UNL     1      11.182  -3.485  -2.304  1.00  0.00     0.231 C 
HETATM   27  N   UNL     1      11.304  -4.089  -3.524  1.00  0.00    -0.327 N 
HETATM   28  H   UNL     1      12.275  -4.298  -3.737  1.00  0.00     0.169 HD
HETATM   29  O   UNL     1      12.224  -3.098  -1.768  1.00  0.00    -0.272 OA
BRANCH  27  30
HETATM   30  C   UNL     1      10.384  -4.387  -4.539  1.00  0.00     0.034 A 
HETATM   31  C   UNL     1       9.203  -3.679  -4.753  1.00  0.00     0.030 A 
HETATM   32  C   UNL     1       8.373  -3.999  -5.836  1.00  0.00     0.009 A 
HETATM   33  C   UNL     1       8.715  -5.028  -6.719  1.00  0.00    -0.062 A 
HETATM   34  C   UNL     1       7.855  -5.342  -7.908  1.00  0.00     0.048 C 
HETATM   35  C   UNL     1       9.917  -5.713  -6.523  1.00  0.00     0.009 A 
HETATM   36  C   UNL     1      10.748  -5.387  -5.449  1.00  0.00     0.030 A 
ENDBRANCH  27  30
ENDBRANCH  25  26
ENDBRANCH  24  25
ENDBRANCH   1  24
TORSDOF 9
