REMARK  5 active torsions:
REMARK  status: ('A' for Active; 'I' for Inactive)
REMARK    1  A    between atoms: C_2  and  N_3 
REMARK    2  A    between atoms: N_3  and  C_6 
REMARK    3  A    between atoms: C_6  and  C_7 
REMARK    4  A    between atoms: C_8  and  N_9 
REMARK       I    between atoms: N_9  and  C_10 
REMARK    5  A    between atoms: C_10  and  C_11 
ROOT
HETATM    1  C   UNL     1       4.915   0.277   2.733  1.00  0.00    -0.006 A 
HETATM    2  C   UNL     1       5.231   1.441   3.468  1.00  0.00     0.043 A 
HETATM    3  C   UNL     1       5.902   1.289   4.702  1.00  0.00     0.030 A 
HETATM    4  C   UNL     1       6.227   0.039   5.228  1.00  0.00     0.002 A 
HETATM    5  C   UNL     1       5.891  -1.103   4.526  1.00  0.00     0.001 A 
HETATM    6  C   UNL     1       5.250  -0.985   3.295  1.00  0.00     0.011 A 
ENDROOT
BRANCH   2   7
HETATM    7  N   UNL     1       4.962   2.798   3.162  1.00  0.00    -0.321 N 
HETATM    8  C   UNL     1       4.226   3.413   2.176  1.00  0.00     0.274 C 
HETATM    9  O   UNL     1       3.715   2.865   1.207  1.00  0.00    -0.266 OA
HETATM   10  H   UNL     1       5.334   3.478   3.832  1.00  0.00     0.169 HD
BRANCH   8  11
HETATM   11  C   UNL     1       4.152   4.901   2.316  1.00  0.00     0.126 A 
HETATM   12  N   UNL     1       5.140   5.456   3.060  1.00  0.00    -0.231 NA
HETATM   13  C   UNL     1       5.134   6.804   3.119  1.00  0.00     0.127 A 
HETATM   14 CL   UNL     1       6.439   7.475   4.002  1.00  0.00    -0.062 Cl
HETATM   15  C   UNL     1       4.189   7.616   2.511  1.00  0.00     0.044 A 
HETATM   16  C   UNL     1       3.172   7.006   1.780  1.00  0.00     0.006 A 
HETATM   17  C   UNL     1       3.154   5.619   1.668  1.00  0.00     0.037 A 
ENDBRANCH   8  11
ENDBRANCH   2   7
BRANCH   1  18
HETATM   18  C   UNL     1       4.264   0.207   1.374  1.00  0.00     0.273 C 
BRANCH  18  19
HETATM   19  N   UNL     1       5.063   0.890   0.324  1.00  0.00    -0.072 N 
HETATM   20  H   UNL     1       6.059   0.681   0.437  1.00  0.00     0.277 HD
HETATM   21  H   UNL     1       4.933   1.890   0.544  1.00  0.00     0.277 HD
BRANCH  19  22
HETATM   22  C   UNL     1       4.602   0.704  -1.071  1.00  0.00     0.228 C 
HETATM   23  C   UNL     1       5.400   1.628  -1.970  1.00  0.00     0.034 C 
ENDBRANCH  19  22
ENDBRANCH  18  19
ENDBRANCH   1  18
TORSDOF 5
