REMARK  8 active torsions:
REMARK  status: ('A' for Active; 'I' for Inactive)
REMARK    1  A    between atoms: C_2  and  O_3 
REMARK    2  A    between atoms: O_3  and  C_4 
REMARK    3  A    between atoms: C_5  and  N_6 
REMARK       I    between atoms: N_6  and  C_7 
REMARK    4  A    between atoms: C_7  and  C_8 
REMARK    5  A    between atoms: N_11  and  C_12 
REMARK    6  A    between atoms: C_12  and  C_13 
REMARK       I    between atoms: C_13  and  N_14 
REMARK    7  A    between atoms: N_14  and  C_15 
REMARK    8  A    between atoms: C_23  and  N_24 
ROOT
HETATM    1  C   UNL     1       7.386   1.646  -2.644  1.00  0.00     0.187 A 
HETATM    2  N   UNL     1       7.464   2.081  -3.954  1.00  0.00    -0.150 NA
HETATM    3  N   UNL     1       8.618   1.690  -4.467  1.00  0.00     0.007 NA
HETATM    4  N   UNL     1       9.274   1.017  -3.508  1.00  0.00    -0.248 N 
HETATM    5  C   UNL     1       8.589   1.027  -2.316  1.00  0.00     0.151 A 
ENDROOT
BRANCH   1   6
HETATM    6  C   UNL     1       6.216   1.968  -1.834  1.00  0.00     0.280 C 
HETATM    7  N   UNL     1       5.844   1.217  -0.740  1.00  0.00    -0.319 N 
HETATM    8  H   UNL     1       5.255   1.760  -0.121  1.00  0.00     0.169 HD
HETATM    9  O   UNL     1       5.578   3.009  -2.027  1.00  0.00    -0.265 OA
BRANCH   7  10
HETATM   10  C   UNL     1       6.032  -0.135  -0.396  1.00  0.00     0.068 A 
HETATM   11  C   UNL     1       6.255  -1.188  -1.304  1.00  0.00     0.095 A 
HETATM   12  C   UNL     1       6.489  -2.477  -0.803  1.00  0.00     0.039 A 
HETATM   13  C   UNL     1       6.454  -2.731   0.570  1.00  0.00     0.003 A 
HETATM   14  C   UNL     1       6.162  -1.705   1.460  1.00  0.00     0.002 A 
HETATM   15  C   UNL     1       5.942  -0.417   0.977  1.00  0.00     0.032 A 
BRANCH  11  16
HETATM   16  O   UNL     1       6.144  -0.903  -2.640  1.00  0.00    -0.349 OA
BRANCH  16  17
HETATM   17  C   UNL     1       6.364  -1.962  -3.570  1.00  0.00     0.171 C 
HETATM   18  C   UNL     1       6.178  -1.416  -4.973  1.00  0.00     0.034 C 
ENDBRANCH  16  17
ENDBRANCH  11  16
ENDBRANCH   7  10
ENDBRANCH   1   6
BRANCH   5  19
HETATM   19  N   UNL     1       9.105   0.520  -1.173  1.00  0.00    -0.382 N 
HETATM   20  H   UNL     1      10.008   0.044  -1.094  1.00  0.00     0.157 HD
HETATM   21  H   UNL     1       8.567   0.493  -0.309  1.00  0.00     0.157 HD
ENDBRANCH   5  19
BRANCH   4  22
HETATM   22  C   UNL     1      10.489   0.329  -3.865  1.00  0.00     0.251 C 
BRANCH  22  23
HETATM   23  C   UNL     1      11.624   0.618  -2.918  1.00  0.00     0.241 C 
HETATM   24  N   UNL     1      12.271   1.818  -3.162  1.00  0.00    -0.326 N 
HETATM   25  H   UNL     1      11.786   2.495  -3.743  1.00  0.00     0.169 HD
HETATM   26  O   UNL     1      11.903  -0.183  -2.026  1.00  0.00    -0.271 OA
BRANCH  24  27
HETATM   27  C   UNL     1      13.488   2.246  -2.593  1.00  0.00     0.034 A 
HETATM   28  C   UNL     1      14.346   1.401  -1.882  1.00  0.00     0.031 A 
HETATM   29  C   UNL     1      15.564   1.879  -1.385  1.00  0.00     0.026 A 
HETATM   30  C   UNL     1      15.926   3.206  -1.593  1.00  0.00     0.034 A 
HETATM   31 CL   UNL     1      17.425   3.790  -0.987  1.00  0.00    -0.084 Cl
HETATM   32  C   UNL     1      15.081   4.059  -2.298  1.00  0.00     0.026 A 
HETATM   33  C   UNL     1      13.868   3.578  -2.802  1.00  0.00     0.031 A 
ENDBRANCH  24  27
ENDBRANCH  22  23
ENDBRANCH   4  22
TORSDOF 8
