REMARK  6 active torsions:
REMARK  status: ('A' for Active; 'I' for Inactive)
REMARK    1  A    between atoms: C_4  and  C_5 
REMARK    2  A    between atoms: C_5  and  N_6 
REMARK    3  A    between atoms: C_5  and  C_25 
REMARK    4  A    between atoms: N_10  and  C_11 
REMARK    5  A    between atoms: C_15  and  C_16 
REMARK       I    between atoms: C_25  and  N_26 
REMARK    6  A    between atoms: N_26  and  C_27 
ROOT
HETATM    1  N   UNL     1       3.183   1.434   1.022  1.00  0.00    -0.051 N 
HETATM    2  H   UNL     1       4.207   1.540   1.152  1.00  0.00     0.281 HD
HETATM    3  C   UNL     1       2.688   2.827   0.673  1.00  0.00     0.256 C 
HETATM    4  C   UNL     1       3.062   3.810   1.804  1.00  0.00     0.152 C 
HETATM    5  N   UNL     1       2.598   3.345   3.129  1.00  0.00    -0.363 N 
HETATM    6  C   UNL     1       2.822   1.920   3.472  1.00  0.00     0.152 C 
HETATM    7  C   UNL     1       2.578   0.926   2.304  1.00  0.00     0.256 C 
ENDROOT
BRANCH   1   8
HETATM    8  C   UNL     1       3.138   0.417  -0.162  1.00  0.00     0.312 C 
BRANCH   8   9
HETATM    9  C   UNL     1       1.799   0.363  -0.869  1.00  0.00    -0.018 A 
HETATM   10  C   UNL     1       1.470   1.244  -1.916  1.00  0.00     0.010 A 
HETATM   11  C   UNL     1       0.212   1.194  -2.518  1.00  0.00     0.001 A 
HETATM   12  C   UNL     1      -0.732   0.267  -2.088  1.00  0.00     0.000 A 
HETATM   13  C   UNL     1      -0.422  -0.616  -1.058  1.00  0.00     0.001 A 
HETATM   14  C   UNL     1       0.833  -0.569  -0.451  1.00  0.00     0.010 A 
ENDBRANCH   8   9
BRANCH   8  15
HETATM   15  C   UNL     1       4.364   0.684  -1.070  1.00  0.00     0.259 C 
HETATM   16  N   UNL     1       4.454  -0.079  -2.207  1.00  0.00    -0.304 N 
HETATM   17  H   UNL     1       3.750  -0.753  -2.484  1.00  0.00     0.171 HD
HETATM   18  O   UNL     1       5.175   1.517  -0.651  1.00  0.00    -0.270 OA
BRANCH  16  19
HETATM   19  C   UNL     1       5.504   0.060  -3.073  1.00  0.00     0.172 A 
HETATM   20  S   UNL     1       5.440  -0.972  -4.429  1.00  0.00    -0.062 SA
HETATM   21  C   UNL     1       6.922  -0.301  -4.977  1.00  0.00     0.072 A 
HETATM   22  C   UNL     1       7.348   0.663  -4.086  1.00  0.00     0.126 A 
HETATM   23  N   UNL     1       6.525   0.870  -2.993  1.00  0.00    -0.236 NA
ENDBRANCH  16  19
ENDBRANCH   8  15
ENDBRANCH   1   8
BRANCH   5  24
HETATM   24  C   UNL     1       1.635   4.089   3.775  1.00  0.00     0.125 A 
HETATM   25  N   UNL     1       2.077   5.208   4.384  1.00  0.00    -0.350 N 
HETATM   26  H   UNL     1       3.081   5.382   4.342  1.00  0.00     0.166 HD
HETATM   27  C   UNL     1       1.292   6.065   5.058  1.00  0.00     0.106 A 
HETATM   28  C   UNL     1      -0.075   5.832   5.153  1.00  0.00     0.065 A 
HETATM   29  C   UNL     1      -0.592   4.680   4.554  1.00  0.00     0.045 A 
HETATM   30  C   UNL     1       0.255   3.811   3.862  1.00  0.00     0.078 A 
HETATM   31 CL   UNL     1      -0.460   2.455   3.079  1.00  0.00    -0.080 Cl
BRANCH  28  32
HETATM   32  C   UNL     1      -0.943   6.796   5.920  1.00  0.00     0.418 C 
HETATM   33  F   UNL     1      -0.478   8.067   5.818  1.00  0.00    -0.166 F 
HETATM   34  F   UNL     1      -2.223   6.808   5.483  1.00  0.00    -0.166 F 
HETATM   35  F   UNL     1      -0.968   6.495   7.239  1.00  0.00    -0.166 F 
ENDBRANCH  28  32
ENDBRANCH   5  24
TORSDOF 6
