REMARK  11 active torsions:
REMARK  status: ('A' for Active; 'I' for Inactive)
REMARK    1  A    between atoms: C_2  and  O_3 
REMARK    2  A    between atoms: O_3  and  C_4 
REMARK    3  A    between atoms: C_5  and  C_6 
REMARK       I    between atoms: C_6  and  N_7 
REMARK    4  A    between atoms: N_7  and  C_8 
REMARK    5  A    between atoms: C_8  and  N_9 
REMARK    6  A    between atoms: N_9  and  C_10 
REMARK    7  A    between atoms: C_11  and  C_12 
REMARK       I    between atoms: C_12  and  N_13 
REMARK    8  A    between atoms: N_13  and  C_14 
REMARK    9  A    between atoms: C_14  and  C_15 
REMARK   10  A    between atoms: C_15  and  C_16 
REMARK   11  A    between atoms: C_16  and  O_17 
ROOT
HETATM    1  N   UNL     1       1.955  -1.009  -1.885  1.00  0.00    -0.332 N 
HETATM    2  H   UNL     1       1.099  -1.526  -1.665  1.00  0.00     0.168 HD
ENDROOT
BRANCH   1   3
HETATM    3  C   UNL     1       1.785   0.331  -2.115  1.00  0.00     0.179 C 
HETATM    4  S   UNL     1       2.912   1.534  -1.829  1.00  0.00    -0.040 SA
BRANCH   3   5
HETATM    5  N   UNL     1       0.556   0.711  -2.602  1.00  0.00    -0.299 N 
HETATM    6  C   UNL     1      -0.406  -0.113  -3.183  1.00  0.00     0.260 C 
HETATM    7  O   UNL     1      -0.545  -1.291  -2.874  1.00  0.00    -0.267 OA
HETATM    8  H   UNL     1       0.490   1.705  -2.768  1.00  0.00     0.171 HD
BRANCH   6   9
HETATM    9  C   UNL     1      -1.287   0.559  -4.192  1.00  0.00     0.065 A 
HETATM   10  C   UNL     1      -2.611   0.153  -4.406  1.00  0.00     0.084 A 
HETATM   11  C   UNL     1      -3.416   0.824  -5.335  1.00  0.00     0.038 A 
HETATM   12  C   UNL     1      -2.894   1.867  -6.098  1.00  0.00     0.003 A 
HETATM   13  C   UNL     1      -1.565   2.245  -5.934  1.00  0.00     0.001 A 
HETATM   14  C   UNL     1      -0.764   1.594  -4.991  1.00  0.00     0.020 A 
BRANCH  10  15
HETATM   15  O   UNL     1      -3.191  -0.852  -3.680  1.00  0.00    -0.350 OA
BRANCH  15  16
HETATM   16  C   UNL     1      -3.174  -2.088  -4.411  1.00  0.00     0.171 C 
HETATM   17  C   UNL     1      -4.595  -2.613  -4.523  1.00  0.00     0.034 C 
ENDBRANCH  15  16
ENDBRANCH  10  15
ENDBRANCH   6   9
ENDBRANCH   3   5
ENDBRANCH   1   3
BRANCH   1  18
HETATM   18  C   UNL     1       3.129  -1.789  -2.005  1.00  0.00     0.050 A 
HETATM   19  C   UNL     1       3.296  -2.957  -1.239  1.00  0.00     0.058 A 
HETATM   20  C   UNL     1       4.363  -3.830  -1.496  1.00  0.00     0.019 A 
HETATM   21  C   UNL     1       5.284  -3.535  -2.498  1.00  0.00     0.001 A 
HETATM   22  C   UNL     1       5.147  -2.363  -3.238  1.00  0.00     0.002 A 
HETATM   23  C   UNL     1       4.076  -1.499  -2.998  1.00  0.00     0.030 A 
BRANCH  19  24
HETATM   24  C   UNL     1       2.486  -3.253  -0.027  1.00  0.00     0.253 C 
HETATM   25  N   UNL     1       2.309  -2.184   0.830  1.00  0.00    -0.357 N 
HETATM   26  H   UNL     1       2.744  -1.302   0.584  1.00  0.00     0.162 HD
HETATM   27  O   UNL     1       2.118  -4.395   0.212  1.00  0.00    -0.268 OA
BRANCH  25  28
HETATM   28  C   UNL     1       1.862  -2.370   2.194  1.00  0.00     0.125 C 
BRANCH  28  29
HETATM   29  C   UNL     1       0.350  -2.466   2.329  1.00  0.00     0.046 C 
BRANCH  29  30
HETATM   30  C   UNL     1      -0.346  -1.164   1.963  1.00  0.00     0.165 C 
BRANCH  30  31
HETATM   31  O   UNL     1      -1.738  -1.268   2.235  1.00  0.00    -0.401 OA
HETATM   32  H   UNL     1      -2.085  -1.994   1.687  1.00  0.00     0.209 HD
ENDBRANCH  30  31
ENDBRANCH  29  30
ENDBRANCH  28  29
ENDBRANCH  25  28
ENDBRANCH  19  24
ENDBRANCH   1  18
TORSDOF 11
