REMARK  4 active torsions:
REMARK  status: ('A' for Active; 'I' for Inactive)
REMARK    1  A    between atoms: C_5  and  N_6 
REMARK    2  A    between atoms: C_11  and  C_12 
REMARK    3  A    between atoms: C_13  and  O_14 
REMARK    4  A    between atoms: C_18  and  C_19 
REMARK       I    between atoms: C_19  and  N_20 
ROOT
HETATM    1  C   UNL     1      11.351   0.871   0.500  1.00  0.00     0.023 A 
HETATM    2  C   UNL     1      11.604   0.172   1.631  1.00  0.00     0.153 A 
HETATM    3  N   UNL     1      12.840  -0.311   1.901  1.00  0.00    -0.303 N 
HETATM    4  C   UNL     1      13.940  -0.111   1.121  1.00  0.00     0.263 A 
HETATM    5  O   UNL     1      15.028  -0.588   1.437  1.00  0.00    -0.267 OA
HETATM    6  C   UNL     1      13.744   0.703  -0.124  1.00  0.00     0.106 A 
HETATM    7  C   UNL     1      12.486   1.120  -0.429  1.00  0.00    -0.026 A 
HETATM    8  C   UNL     1      12.129   1.847  -1.708  1.00  0.00     0.050 C 
HETATM    9  H   UNL     1      12.969  -0.839   2.755  1.00  0.00     0.171 HD
ENDROOT
BRANCH   1  10
HETATM   10  C   UNL     1      10.000   1.363   0.260  1.00  0.00     0.035 C 
HETATM   11  C   UNL     1       8.925   0.646  -0.091  1.00  0.00     0.061 A 
HETATM   12  C   UNL     1       8.702  -0.774  -0.400  1.00  0.00     0.067 A 
HETATM   13  C   UNL     1       7.571   1.254  -0.130  1.00  0.00     0.281 A 
HETATM   14  N   UNL     1       7.433  -1.053  -0.529  1.00  0.00    -0.168 NA
HETATM   15  C   UNL     1       9.775  -1.801  -0.542  1.00  0.00     0.073 C 
HETATM   16  N   UNL     1       6.741   0.148  -0.359  1.00  0.00    -0.197 N 
HETATM   17  O   UNL     1       7.337   2.433   0.069  1.00  0.00    -0.265 OA
BRANCH  16  18
HETATM   18  C   UNL     1       5.324   0.117  -0.351  1.00  0.00     0.062 A 
HETATM   19  C   UNL     1       4.559   1.275  -0.166  1.00  0.00     0.032 A 
HETATM   20  C   UNL     1       3.160   1.216  -0.109  1.00  0.00     0.009 A 
HETATM   21  C   UNL     1       2.493  -0.003  -0.240  1.00  0.00    -0.062 A 
HETATM   22  C   UNL     1       0.998  -0.082  -0.152  1.00  0.00     0.048 C 
HETATM   23  C   UNL     1       3.246  -1.163  -0.441  1.00  0.00     0.009 A 
HETATM   24  C   UNL     1       4.643  -1.101  -0.500  1.00  0.00     0.032 A 
ENDBRANCH  16  18
ENDBRANCH   1  10
BRANCH   2  25
HETATM   25  O   UNL     1      10.704  -0.128   2.617  1.00  0.00    -0.345 OA
HETATM   26  H   UNL     1       9.906   0.415   2.504  1.00  0.00     0.219 HD
ENDBRANCH   2  25
BRANCH   6  27
HETATM   27  C   UNL     1      14.928   1.066  -0.971  1.00  0.00     0.255 C 
HETATM   28  N   UNL     1      16.035   0.285  -0.843  1.00  0.00    -0.366 N 
HETATM   29  H   UNL     1      16.125  -0.366  -0.065  1.00  0.00     0.159 HD
HETATM   30  H   UNL     1      16.881   0.594  -1.302  1.00  0.00     0.159 HD
HETATM   31  O   UNL     1      14.954   2.034  -1.723  1.00  0.00    -0.268 OA
ENDBRANCH   6  27
TORSDOF 4
