REMARK  2 active torsions:
REMARK  status: ('A' for Active; 'I' for Inactive)
REMARK    1  A    between atoms: C_3  and  C_4 
REMARK    2  A    between atoms: N_10  and  C_11 
ROOT
HETATM    1  C   UNL     1       1.277   2.651  -0.129  1.00  0.00     0.049 A 
HETATM    2  N   UNL     1       2.516   2.874  -0.697  1.00  0.00    -0.344 N 
HETATM    3  C   UNL     1       3.089   4.114  -0.725  1.00  0.00     0.119 A 
HETATM    4  C   UNL     1       2.451   5.181  -0.215  1.00  0.00     0.123 A 
HETATM    5  C   UNL     1       3.371   6.324  -0.321  1.00  0.00     0.280 A 
HETATM    6  O   UNL     1       3.130   7.455   0.060  1.00  0.00    -0.265 OA
HETATM    7  N   UNL     1       4.533   5.808  -0.917  1.00  0.00    -0.236 N 
HETATM    8  N   UNL     1       4.346   4.437  -1.201  1.00  0.00    -0.179 NA
HETATM    9  C   UNL     1       1.122   5.038   0.384  1.00  0.00     0.193 A 
HETATM   10  O   UNL     1       0.480   5.968   0.855  1.00  0.00    -0.287 OA
HETATM   11  C   UNL     1       0.558   3.655   0.409  1.00  0.00     0.086 A 
HETATM   12  H   UNL     1       3.018   2.094  -1.105  1.00  0.00     0.167 HD
HETATM   13  H   UNL     1       5.053   3.850  -0.757  1.00  0.00     0.155 HD
ENDROOT
BRANCH   1  14
HETATM   14  C   UNL     1       0.750   1.269  -0.122  1.00  0.00     0.012 A 
HETATM   15  C   UNL     1      -0.481   1.015  -0.755  1.00  0.00     0.015 A 
HETATM   16  C   UNL     1      -1.026  -0.272  -0.778  1.00  0.00     0.001 A 
HETATM   17  C   UNL     1      -0.349  -1.327  -0.175  1.00  0.00     0.002 A 
HETATM   18  C   UNL     1       0.875  -1.098   0.453  1.00  0.00     0.025 A 
HETATM   19  C   UNL     1       1.423   0.190   0.482  1.00  0.00     0.046 A 
HETATM   20 CL   UNL     1       2.938   0.385   1.297  1.00  0.00    -0.083 Cl
ENDBRANCH   1  14
BRANCH   7  21
HETATM   21  C   UNL     1       5.736   6.459  -1.266  1.00  0.00     0.055 A 
HETATM   22  C   UNL     1       5.959   7.803  -0.930  1.00  0.00     0.034 A 
HETATM   23  C   UNL     1       7.160   8.439  -1.265  1.00  0.00     0.044 A 
HETATM   24  C   UNL     1       8.145   7.734  -1.941  1.00  0.00     0.116 A 
HETATM   25  F   UNL     1       9.295   8.341  -2.259  1.00  0.00    -0.206 F 
HETATM   26  C   UNL     1       7.950   6.406  -2.293  1.00  0.00     0.044 A 
HETATM   27  C   UNL     1       6.749   5.772  -1.958  1.00  0.00     0.034 A 
ENDBRANCH   7  21
TORSDOF 2
