REMARK  4 active torsions:
REMARK  status: ('A' for Active; 'I' for Inactive)
REMARK    1  A    between atoms: C_3  and  C_4 
REMARK       I    between atoms: C_4  and  N_5 
REMARK    2  A    between atoms: N_5  and  C_6 
REMARK    3  A    between atoms: C_6  and  C_7 
REMARK    4  A    between atoms: C_23  and  O_24 
ROOT
HETATM    1  C   UNL     1       2.408  -2.513   0.041  1.00  0.00     0.276 C 
HETATM    2  N   UNL     1       3.382  -3.485   0.037  1.00  0.00    -0.348 N 
HETATM    3  O   UNL     1       1.217  -2.819   0.052  1.00  0.00    -0.265 OA
HETATM    4  H   UNL     1       4.365  -3.231   0.029  1.00  0.00     0.163 HD
ENDROOT
BRANCH   1   5
HETATM    5  C   UNL     1       2.890  -1.144   0.032  1.00  0.00     0.150 A 
HETATM    6  C   UNL     1       2.210   0.069   0.024  1.00  0.00    -0.009 A 
HETATM    7  C   UNL     1       0.742   0.304   0.022  1.00  0.00     0.052 C 
HETATM    8  C   UNL     1       3.212   1.087   0.024  1.00  0.00     0.009 A 
HETATM    9  C   UNL     1       4.432   0.430   0.028  1.00  0.00     0.087 A 
HETATM   10  C   UNL     1       3.211   2.494   0.022  1.00  0.00     0.051 A 
HETATM   11  O   UNL     1       4.245  -0.917   0.031  1.00  0.00    -0.304 OA
HETATM   12  C   UNL     1       5.664   1.080   0.028  1.00  0.00     0.041 A 
HETATM   13  C   UNL     1       5.639   2.484   0.026  1.00  0.00     0.039 A 
HETATM   14  C   UNL     1       4.431   3.188   0.023  1.00  0.00     0.069 A 
BRANCH  14  15
HETATM   15  O   UNL     1       4.295   4.551   0.021  1.00  0.00    -0.356 OA
HETATM   16  C   UNL     1       5.488   5.323   0.026  1.00  0.00     0.210 C 
ENDBRANCH  14  15
ENDBRANCH   1   5
BRANCH   2  17
HETATM   17  C   UNL     1       3.012  -4.874   0.039  1.00  0.00     0.201 C 
BRANCH  17  18
HETATM   18  C   UNL     1       4.218  -5.745   0.038  1.00  0.00     0.123 A 
HETATM   19  N   UNL     1       5.489  -5.388   0.041  1.00  0.00    -0.232 NA
HETATM   20  C   UNL     1       6.202  -6.565   0.040  1.00  0.00     0.085 A 
HETATM   21  C   UNL     1       5.350  -7.663   0.036  1.00  0.00     0.062 A 
HETATM   22  C   UNL     1       7.588  -6.780   0.043  1.00  0.00     0.034 A 
HETATM   23  N   UNL     1       4.095  -7.115   0.034  1.00  0.00    -0.341 N 
HETATM   24  C   UNL     1       5.796  -8.986   0.035  1.00  0.00     0.032 A 
HETATM   25  H   UNL     1       3.227  -7.631   0.032  1.00  0.00     0.167 HD
HETATM   26  C   UNL     1       7.181  -9.181   0.038  1.00  0.00     0.002 A 
HETATM   27  C   UNL     1       8.065  -8.098   0.042  1.00  0.00     0.002 A 
ENDBRANCH  17  18
ENDBRANCH   2  17
TORSDOF 4
