REMARK  6 active torsions:
REMARK  status: ('A' for Active; 'I' for Inactive)
REMARK    1  A    between atoms: C_2  and  C_3 
REMARK    2  A    between atoms: C_2  and  C_9 
REMARK    3  A    between atoms: C_9  and  N_10 
REMARK       I    between atoms: N_10  and  C_11 
REMARK       I    between atoms: C_11  and  N_12 
REMARK    4  A    between atoms: N_12  and  C_13 
REMARK    5  A    between atoms: C_16  and  N_17 
REMARK       I    between atoms: N_17  and  C_18 
REMARK    6  A    between atoms: C_18  and  C_19 
ROOT
HETATM    1  N   UNL     1       2.345  -2.036  -1.285  1.00  0.00    -0.342 N 
HETATM    2  C   UNL     1       2.748  -3.145  -2.000  1.00  0.00     0.320 C 
HETATM    3  N   UNL     1       3.443  -2.779  -3.131  1.00  0.00    -0.309 N 
HETATM    4  O   UNL     1       2.514  -4.286  -1.624  1.00  0.00    -0.247 OA
HETATM    5  H   UNL     1       2.244  -1.170  -1.795  1.00  0.00     0.164 HD
HETATM    6  H   UNL     1       3.805  -1.838  -3.129  1.00  0.00     0.170 HD
ENDROOT
BRANCH   3   7
HETATM    7  C   UNL     1       3.903  -3.637  -4.151  1.00  0.00     0.036 A 
HETATM    8  C   UNL     1       3.477  -4.957  -4.297  1.00  0.00     0.032 A 
HETATM    9  C   UNL     1       3.970  -5.760  -5.335  1.00  0.00     0.032 A 
HETATM   10  C   UNL     1       4.899  -5.257  -6.243  1.00  0.00     0.035 A 
HETATM   11  C   UNL     1       5.317  -3.929  -6.106  1.00  0.00     0.032 A 
HETATM   12  C   UNL     1       4.817  -3.123  -5.075  1.00  0.00     0.032 A 
BRANCH  10  13
HETATM   13  N   UNL     1       5.460  -6.008  -7.292  1.00  0.00    -0.321 N 
HETATM   14  C   UNL     1       5.181  -7.314  -7.656  1.00  0.00     0.279 C 
HETATM   15  O   UNL     1       4.333  -8.034  -7.140  1.00  0.00    -0.265 OA
HETATM   16  H   UNL     1       6.168  -5.555  -7.860  1.00  0.00     0.169 HD
BRANCH  14  17
HETATM   17  C   UNL     1       6.011  -7.778  -8.755  1.00  0.00     0.142 A 
HETATM   18  O   UNL     1       6.964  -6.944  -9.284  1.00  0.00    -0.317 OA
HETATM   19  C   UNL     1       7.592  -7.633 -10.272  1.00  0.00     0.143 A 
HETATM   20  C   UNL     1       7.060  -8.894 -10.397  1.00  0.00     0.027 A 
HETATM   21  C   UNL     1       6.041  -8.989  -9.420  1.00  0.00     0.045 A 
ENDBRANCH  14  17
ENDBRANCH  10  13
ENDBRANCH   3   7
BRANCH   1  22
HETATM   22  C   UNL     1       1.579  -2.168  -0.054  1.00  0.00     0.138 C 
BRANCH  22  23
HETATM   23  C   UNL     1       0.033  -2.063  -0.242  1.00  0.00    -0.004 C 
HETATM   24  C   UNL     1      -0.630  -2.226   1.149  1.00  0.00     0.021 C 
HETATM   25  C   UNL     1      -0.468  -3.249  -1.099  1.00  0.00     0.021 C 
BRANCH  23  26
HETATM   26  C   UNL     1      -0.343  -0.684  -0.819  1.00  0.00    -0.046 A 
HETATM   27  C   UNL     1      -0.040   0.492  -0.112  1.00  0.00     0.027 A 
HETATM   28  C   UNL     1      -0.381   1.725  -0.651  1.00  0.00     0.116 A 
HETATM   29  N   UNL     1      -0.993   1.880  -1.840  1.00  0.00    -0.273 NA
HETATM   30  C   UNL     1      -1.287   0.749  -2.511  1.00  0.00     0.116 A 
HETATM   31  C   UNL     1      -0.987  -0.528  -2.053  1.00  0.00     0.027 A 
ENDBRANCH  23  26
ENDBRANCH  22  23
ENDBRANCH   1  22
TORSDOF 6
