REMARK  9 active torsions:
REMARK  status: ('A' for Active; 'I' for Inactive)
REMARK    1  A    between atoms: O_2  and  C_3 
REMARK    2  A    between atoms: C_4  and  O_5 
REMARK    3  A    between atoms: C_8  and  C_9 
REMARK    4  A    between atoms: C_9  and  N_10 
REMARK    5  A    between atoms: C_14  and  O_15 
REMARK    6  A    between atoms: C_14  and  C_16 
REMARK    7  A    between atoms: C_21  and  C_22 
REMARK       I    between atoms: C_22  and  N_23 
REMARK    8  A    between atoms: N_23  and  C_24 
REMARK    9  A    between atoms: C_24  and  C_25 
ROOT
HETATM    1  N   UNL     1       4.252   6.415  12.852  1.00  0.00    -0.067 N 
HETATM    2  H   UNL     1       3.746   7.193  13.293  1.00  0.00     0.280 HD
HETATM    3  C   UNL     1       3.205   5.466  12.311  1.00  0.00     0.238 C 
HETATM    4  C   UNL     1       2.412   4.855  13.457  1.00  0.00     0.071 C 
HETATM    5  C   UNL     1       3.320   4.094  14.442  1.00  0.00     0.088 C 
HETATM    6  C   UNL     1       4.300   5.148  14.998  1.00  0.00     0.071 C 
HETATM    7  C   UNL     1       5.137   5.782  13.901  1.00  0.00     0.238 C 
ENDROOT
BRANCH   5   8
HETATM    8  O   UNL     1       2.495   3.687  15.534  1.00  0.00    -0.385 OA
HETATM    9  H   UNL     1       2.495   2.714  15.602  1.00  0.00     0.211 HD
ENDBRANCH   5   8
BRANCH   5  10
HETATM   10  C   UNL     1       3.989   2.843  13.852  1.00  0.00    -0.023 A 
HETATM   11  C   UNL     1       3.391   2.134  12.783  1.00  0.00     0.024 A 
HETATM   12  C   UNL     1       4.065   1.053  12.183  1.00  0.00     0.001 A 
HETATM   13  C   UNL     1       5.289   0.665  12.701  1.00  0.00     0.086 A 
HETATM   14  C   UNL     1       3.812   0.183  11.093  1.00  0.00     0.057 A 
HETATM   15  O   UNL     1       5.809  -0.362  11.978  1.00  0.00    -0.304 OA
HETATM   16  C   UNL     1       5.881   1.259  13.808  1.00  0.00     0.039 A 
HETATM   17  C   UNL     1       4.910  -0.651  10.983  1.00  0.00     0.144 A 
HETATM   18  C   UNL     1       5.201   2.347  14.377  1.00  0.00     0.013 A 
BRANCH  17  19
HETATM   19  C   UNL     1       5.218  -1.680  10.012  1.00  0.00     0.275 C 
HETATM   20  N   UNL     1       6.449  -2.264  10.188  1.00  0.00    -0.353 N 
HETATM   21  H   UNL     1       7.055  -1.884  10.907  1.00  0.00     0.162 HD
HETATM   22  O   UNL     1       4.465  -1.976   9.090  1.00  0.00    -0.265 OA
BRANCH  20  23
HETATM   23  C   UNL     1       7.036  -3.197   9.246  1.00  0.00     0.155 C 
BRANCH  23  24
HETATM   24  C   UNL     1       8.033  -2.533   8.282  1.00  0.00     0.139 C 
HETATM   25  O   UNL     1       9.011  -1.789   9.044  1.00  0.00    -0.384 OA
HETATM   26  C   UNL     1       9.128  -0.485   8.465  1.00  0.00     0.168 C 
HETATM   27  C   UNL     1       7.799  -0.206   7.803  1.00  0.00     0.029 C 
HETATM   28  C   UNL     1       7.419  -1.567   7.275  1.00  0.00     0.035 C 
ENDBRANCH  23  24
ENDBRANCH  20  23
ENDBRANCH  17  19
ENDBRANCH   5  10
BRANCH   1  29
HETATM   29  C   UNL     1       5.110   7.035  11.757  1.00  0.00     0.273 C 
BRANCH  29  30
HETATM   30  C   UNL     1       4.327   7.655  10.632  1.00  0.00    -0.030 A 
HETATM   31  C   UNL     1       3.578   8.829  10.828  1.00  0.00     0.048 A 
HETATM   32  C   UNL     1       2.795   9.380   9.797  1.00  0.00     0.102 A 
HETATM   33  C   UNL     1       2.777   8.743   8.543  1.00  0.00     0.101 A 
HETATM   34  C   UNL     1       3.535   7.580   8.352  1.00  0.00     0.040 A 
HETATM   35  C   UNL     1       4.303   7.038   9.379  1.00  0.00     0.012 A 
BRANCH  32  36
HETATM   36  O   UNL     1       2.030  10.500   9.961  1.00  0.00    -0.353 OA
HETATM   37  C   UNL     1       2.050  11.180  11.208  1.00  0.00     0.210 C 
ENDBRANCH  32  36
BRANCH  33  38
HETATM   38  O   UNL     1       2.086   9.087   7.413  1.00  0.00    -0.353 OA
HETATM   39  C   UNL     1       1.369  10.311   7.379  1.00  0.00     0.210 C 
ENDBRANCH  33  38
ENDBRANCH  29  30
ENDBRANCH   1  29
TORSDOF 9
