REMARK  7 active torsions:
REMARK  status: ('A' for Active; 'I' for Inactive)
REMARK       I    between atoms: C_2  and  N_3 
REMARK    1  A    between atoms: N_3  and  C_4 
REMARK    2  A    between atoms: C_6  and  N_7 
REMARK       I    between atoms: N_7  and  C_8 
REMARK       I    between atoms: C_8  and  N_9 
REMARK    3  A    between atoms: N_9  and  C_10 
REMARK    4  A    between atoms: C_10  and  C_11 
REMARK    5  A    between atoms: C_11  and  C_12 
REMARK    6  A    between atoms: N_14  and  C_16 
REMARK    7  A    between atoms: C_16  and  C_17 
ROOT
HETATM    1  N   UNL     1       4.496   3.131  -0.808  1.00  0.00    -0.309 N 
HETATM    2  C   UNL     1       4.044   1.975  -0.256  1.00  0.00     0.320 C 
HETATM    3  N   UNL     1       2.988   1.364  -0.856  1.00  0.00    -0.343 N 
HETATM    4  O   UNL     1       4.625   1.489   0.713  1.00  0.00    -0.247 OA
HETATM    5  H   UNL     1       5.422   3.376  -0.473  1.00  0.00     0.170 HD
HETATM    6  H   UNL     1       2.822   1.608  -1.825  1.00  0.00     0.164 HD
ENDROOT
BRANCH   3   7
HETATM    7  C   UNL     1       2.266   0.254  -0.277  1.00  0.00     0.125 C 
BRANCH   7   8
HETATM    8  C   UNL     1       2.856  -1.134  -0.556  1.00  0.00     0.026 C 
BRANCH   8   9
HETATM    9  C   UNL     1       4.282  -1.405  -0.032  1.00  0.00     0.014 C 
HETATM   10  C   UNL     1       4.469  -1.182   1.469  1.00  0.00     0.240 C 
HETATM   11  N   UNL     1       4.251  -2.538   2.119  1.00  0.00    -0.067 N 
HETATM   12  H   UNL     1       5.119  -2.742   2.629  1.00  0.00     0.280 HD
HETATM   13  C   UNL     1       4.108  -3.558   1.022  1.00  0.00     0.235 C 
HETATM   14  C   UNL     1       4.686  -2.869  -0.200  1.00  0.00     0.034 C 
BRANCH  11  15
HETATM   15  C   UNL     1       3.149  -2.579   3.145  1.00  0.00     0.273 C 
BRANCH  15  16
HETATM   16  C   UNL     1       3.412  -1.688   4.329  1.00  0.00    -0.033 A 
HETATM   17  C   UNL     1       2.723  -0.472   4.471  1.00  0.00     0.009 A 
HETATM   18  C   UNL     1       3.003   0.382   5.538  1.00  0.00     0.001 A 
HETATM   19  C   UNL     1       3.967   0.029   6.479  1.00  0.00     0.000 A 
HETATM   20  C   UNL     1       4.649  -1.180   6.357  1.00  0.00     0.001 A 
HETATM   21  C   UNL     1       4.376  -2.036   5.288  1.00  0.00     0.009 A 
ENDBRANCH  15  16
ENDBRANCH  11  15
ENDBRANCH   8   9
ENDBRANCH   7   8
ENDBRANCH   3   7
BRANCH   1  22
HETATM   22  C   UNL     1       3.826   4.145  -1.522  1.00  0.00     0.038 A 
HETATM   23  C   UNL     1       2.431   4.227  -1.647  1.00  0.00     0.059 A 
HETATM   24  C   UNL     1       1.829   5.307  -2.303  1.00  0.00     0.036 A 
HETATM   25  C   UNL     1       2.641   6.335  -2.794  1.00  0.00     0.029 A 
HETATM   26  C   UNL     1       4.027   6.270  -2.668  1.00  0.00     0.004 A 
HETATM   27  C   UNL     1       4.616   5.179  -2.035  1.00  0.00     0.029 A 
BRANCH  24  28
HETATM   28  N   UNL     1       0.441   5.482  -2.449  1.00  0.00    -0.327 N 
HETATM   29  C   UNL     1      -0.624   4.640  -2.335  1.00  0.00     0.218 C 
HETATM   30  C   UNL     1      -0.437   3.154  -2.227  1.00  0.00     0.117 C 
HETATM   31  O   UNL     1      -1.760   5.120  -2.367  1.00  0.00    -0.274 OA
HETATM   32  H   UNL     1       0.130   6.418  -2.689  1.00  0.00     0.169 HD
ENDBRANCH  24  28
ENDBRANCH   1  22
TORSDOF 7
