REMARK  8 active torsions:
REMARK  status: ('A' for Active; 'I' for Inactive)
REMARK       I    between atoms: N_2  and  C_3 
REMARK       I    between atoms: C_3  and  N_4 
REMARK       I    between atoms: N_4  and  C_5 
REMARK    1  A    between atoms: C_5  and  C_6 
REMARK    2  A    between atoms: C_6  and  N_7 
REMARK    3  A    between atoms: N_7  and  C_8 
REMARK    4  A    between atoms: C_9  and  C_10 
REMARK       I    between atoms: C_10  and  N_11 
REMARK    5  A    between atoms: N_11  and  C_12 
REMARK    6  A    between atoms: C_12  and  C_13 
REMARK    7  A    between atoms: C_13  and  C_14 
REMARK    8  A    between atoms: C_17  and  O_18 
ROOT
HETATM    1  C   UNL     1       0.848  -1.032   1.401  1.00  0.00     0.024 A 
HETATM    2  C   UNL     1       1.447  -2.278   1.112  1.00  0.00     0.053 A 
HETATM    3  C   UNL     1       1.239  -3.378   1.964  1.00  0.00     0.019 A 
HETATM    4  C   UNL     1       0.446  -3.249   3.103  1.00  0.00     0.001 A 
HETATM    5  C   UNL     1      -0.139  -2.023   3.402  1.00  0.00     0.002 A 
HETATM    6  C   UNL     1       0.065  -0.925   2.563  1.00  0.00     0.024 A 
ENDROOT
BRANCH   2   7
HETATM    7  C   UNL     1       2.308  -2.486  -0.085  1.00  0.00     0.253 C 
HETATM    8  N   UNL     1       2.051  -3.630  -0.819  1.00  0.00    -0.357 N 
HETATM    9  H   UNL     1       1.169  -4.107  -0.673  1.00  0.00     0.162 HD
HETATM   10  O   UNL     1       3.193  -1.692  -0.379  1.00  0.00    -0.268 OA
BRANCH   8  11
HETATM   11  C   UNL     1       2.767  -3.875  -2.059  1.00  0.00     0.127 C 
BRANCH  11  12
HETATM   12  C   UNL     1       2.734  -5.344  -2.489  1.00  0.00     0.058 C 
BRANCH  12  13
HETATM   13  C   UNL     1       1.406  -5.931  -2.917  1.00  0.00    -0.057 A 
HETATM   14  C   UNL     1       0.320  -5.158  -3.340  1.00  0.00     0.010 A 
HETATM   15  C   UNL     1      -0.856  -5.770  -3.788  1.00  0.00     0.037 A 
HETATM   16  C   UNL     1      -0.964  -7.160  -3.843  1.00  0.00     0.068 A 
HETATM   17  C   UNL     1       0.109  -7.940  -3.421  1.00  0.00     0.037 A 
HETATM   18  C   UNL     1       1.283  -7.329  -2.966  1.00  0.00     0.010 A 
BRANCH  16  19
HETATM   19  O   UNL     1      -2.157  -7.628  -4.321  1.00  0.00    -0.356 OA
HETATM   20  C   UNL     1      -2.216  -9.013  -4.638  1.00  0.00     0.210 C 
ENDBRANCH  16  19
ENDBRANCH  12  13
ENDBRANCH  11  12
ENDBRANCH   8  11
ENDBRANCH   2   7
BRANCH   1  21
HETATM   21  N   UNL     1       1.020   0.121   0.602  1.00  0.00    -0.283 NA
HETATM   22  H   UNL     1       0.263   0.785   0.768  1.00  0.00     0.128 HD
BRANCH  21  23
HETATM   23  C   UNL     1       2.322   0.811   0.828  1.00  0.00     0.195 C 
BRANCH  23  24
HETATM   24  C   UNL     1       2.809   1.460  -0.475  1.00  0.00     0.238 C 
HETATM   25  N   UNL     1       2.190   0.927  -1.596  1.00  0.00    -0.278 N 
HETATM   26  C   UNL     1       2.252   1.304  -2.909  1.00  0.00     0.322 C 
HETATM   27  H   UNL     1       1.571   0.147  -1.402  1.00  0.00     0.173 HD
HETATM   28  N   UNL     1       3.069   2.361  -3.183  1.00  0.00    -0.347 N 
HETATM   29  O   UNL     1       1.576   0.727  -3.758  1.00  0.00    -0.247 OA
HETATM   30  C   UNL     1       3.307   2.799  -4.531  1.00  0.00     0.151 C 
HETATM   31  H   UNL     1       3.726   2.619  -2.450  1.00  0.00     0.163 HD
HETATM   32  O   UNL     1       3.666   2.342  -0.502  1.00  0.00    -0.272 OA
ENDBRANCH  23  24
ENDBRANCH  21  23
ENDBRANCH   1  21
TORSDOF 8
