REMARK  7 active torsions:
REMARK  status: ('A' for Active; 'I' for Inactive)
REMARK    1  A    between atoms: C_8  and  C_9 
REMARK    2  A    between atoms: C_9  and  C_10 
REMARK    3  A    between atoms: C_10  and  N_11 
REMARK    4  A    between atoms: C_10  and  C_19 
REMARK       I    between atoms: N_11  and  C_12 
REMARK    5  A    between atoms: C_12  and  C_13 
REMARK       I    between atoms: C_19  and  N_20 
REMARK    6  A    between atoms: N_20  and  N_21 
REMARK       I    between atoms: N_21  and  C_22 
REMARK       I    between atoms: C_22  and  N_23 
REMARK    7  A    between atoms: N_23  and  C_24 
ROOT
HETATM    1  C   UNL     1      -0.823  -3.451  -0.022  1.00  0.00     0.183 C 
ENDROOT
BRANCH   1   2
HETATM    2  C   UNL     1      -0.213  -3.110  -1.395  1.00  0.00     0.076 C 
BRANCH   2   3
HETATM    3  C   UNL     1       0.573  -1.832  -1.398  1.00  0.00    -0.028 A 
HETATM    4  C   UNL     1       1.998  -1.706  -1.477  1.00  0.00    -0.002 A 
HETATM    5  C   UNL     1       3.062  -2.626  -1.579  1.00  0.00     0.014 A 
HETATM    6  C   UNL     1       2.299  -0.344  -1.439  1.00  0.00     0.042 A 
HETATM    7  C   UNL     1       4.379  -2.155  -1.634  1.00  0.00     0.001 A 
HETATM    8  C   UNL     1       4.646  -0.789  -1.590  1.00  0.00     0.002 A 
HETATM    9  C   UNL     1       3.610   0.144  -1.492  1.00  0.00     0.030 A 
HETATM   10  N   UNL     1       1.106   0.333  -1.355  1.00  0.00    -0.365 N 
HETATM   11  H   UNL     1       1.020   1.339  -1.325  1.00  0.00     0.165 HD
HETATM   12  C   UNL     1       0.060  -0.551  -1.330  1.00  0.00     0.096 A 
ENDBRANCH   2   3
ENDBRANCH   1   2
BRANCH   1  13
HETATM   13  N   UNL     1       0.196  -3.502   1.034  1.00  0.00    -0.343 N 
HETATM   14  C   UNL     1      -0.106  -3.319   2.365  1.00  0.00     0.259 C 
HETATM   15  O   UNL     1      -1.272  -3.395   2.756  1.00  0.00    -0.267 OA
HETATM   16  H   UNL     1       1.154  -3.296   0.767  1.00  0.00     0.163 HD
BRANCH  14  17
HETATM   17  C   UNL     1       1.018  -3.055   3.251  1.00  0.00     0.072 A 
HETATM   18  S   UNL     1       2.642  -3.068   2.698  1.00  0.00    -0.097 SA
HETATM   19  C   UNL     1       3.251  -2.706   4.253  1.00  0.00     0.050 A 
HETATM   20  C   UNL     1       2.244  -2.565   5.181  1.00  0.00     0.009 A 
HETATM   21  C   UNL     1       0.957  -2.766   4.603  1.00  0.00     0.025 A 
ENDBRANCH  14  17
ENDBRANCH   1  13
BRANCH   1  22
HETATM   22  C   UNL     1      -1.611  -4.776  -0.146  1.00  0.00     0.259 C 
HETATM   23  N   UNL     1      -2.152  -5.257   1.040  1.00  0.00    -0.264 N 
HETATM   24  H   UNL     1      -2.262  -4.580   1.802  1.00  0.00     0.190 HD
HETATM   25  O   UNL     1      -1.873  -5.302  -1.230  1.00  0.00    -0.269 OA
BRANCH  23  26
HETATM   26  N   UNL     1      -3.157  -6.229   0.892  1.00  0.00    -0.249 N 
HETATM   27  C   UNL     1      -3.448  -7.197   1.824  1.00  0.00     0.339 C 
HETATM   28  N   UNL     1      -2.890  -6.984   3.060  1.00  0.00    -0.308 N 
HETATM   29  O   UNL     1      -4.180  -8.127   1.500  1.00  0.00    -0.245 OA
HETATM   30  H   UNL     1      -2.236  -6.216   3.099  1.00  0.00     0.170 HD
HETATM   31  H   UNL     1      -3.428  -6.449  -0.067  1.00  0.00     0.192 HD
BRANCH  28  32
HETATM   32  C   UNL     1      -3.098  -7.729   4.237  1.00  0.00     0.036 A 
HETATM   33  C   UNL     1      -3.959  -8.828   4.320  1.00  0.00     0.031 A 
HETATM   34  C   UNL     1      -4.138  -9.508   5.530  1.00  0.00     0.026 A 
HETATM   35  C   UNL     1      -3.455  -9.089   6.667  1.00  0.00     0.034 A 
HETATM   36 CL   UNL     1      -3.684  -9.916   8.158  1.00  0.00    -0.084 Cl
HETATM   37  C   UNL     1      -2.591  -7.999   6.602  1.00  0.00     0.026 A 
HETATM   38  C   UNL     1      -2.412  -7.322   5.389  1.00  0.00     0.031 A 
ENDBRANCH  28  32
ENDBRANCH  23  26
ENDBRANCH   1  22
TORSDOF 7
