REMARK  10 active torsions:
REMARK  status: ('A' for Active; 'I' for Inactive)
REMARK    1  A    between atoms: C_4  and  C_5 
REMARK    2  A    between atoms: C_5  and  O_6 
REMARK    3  A    between atoms: O_6  and  C_7 
REMARK    4  A    between atoms: C_10  and  N_11 
REMARK       I    between atoms: N_11  and  C_12 
REMARK       I    between atoms: C_12  and  N_13 
REMARK    5  A    between atoms: N_13  and  C_14 
REMARK    6  A    between atoms: C_14  and  C_15 
REMARK    7  A    between atoms: C_15  and  C_16 
REMARK    8  A    between atoms: C_16  and  C_17 
REMARK    9  A    between atoms: C_17  and  N_18 
REMARK   10  A    between atoms: C_25  and  C_26 
REMARK       I    between atoms: C_26  and  N_27 
ROOT
HETATM    1  C   UNL     1       4.867  -1.123  -0.674  1.00  0.00     0.191 C 
HETATM    2  N   UNL     1       5.839  -0.534  -1.361  1.00  0.00    -0.184 NA
HETATM    3  S   UNL     1       7.165  -1.516  -1.296  1.00  0.00     0.033 SA
HETATM    4  C   UNL     1       6.392  -2.803  -0.468  1.00  0.00     0.117 C 
HETATM    5  C   UNL     1       5.135  -2.389  -0.049  1.00  0.00     0.120 C 
ENDROOT
BRANCH   4   6
HETATM    6  N   UNL     1       7.196  -3.923  -0.365  1.00  0.00    -0.301 N 
HETATM    7  C   UNL     1       6.850  -5.211  -0.657  1.00  0.00     0.321 C 
HETATM    8  N   UNL     1       5.535  -5.505  -0.814  1.00  0.00    -0.343 N 
HETATM    9  O   UNL     1       7.743  -6.031  -0.877  1.00  0.00    -0.247 OA
HETATM   10  H   UNL     1       4.985  -5.102  -0.058  1.00  0.00     0.164 HD
HETATM   11  H   UNL     1       8.181  -3.767  -0.542  1.00  0.00     0.171 HD
BRANCH   8  12
HETATM   12  C   UNL     1       5.054  -6.808  -1.220  1.00  0.00     0.124 C 
BRANCH  12  13
HETATM   13  C   UNL     1       5.063  -7.012  -2.739  1.00  0.00     0.021 C 
BRANCH  13  14
HETATM   14  C   UNL     1       6.437  -7.217  -3.389  1.00  0.00     0.029 C 
BRANCH  14  15
HETATM   15  C   UNL     1       7.177  -8.430  -2.831  1.00  0.00     0.235 C 
BRANCH  15  16
HETATM   16  N   UNL     1       8.463  -8.667  -3.583  1.00  0.00    -0.071 N 
HETATM   17  H   UNL     1       8.237  -8.717  -4.584  1.00  0.00     0.279 HD
HETATM   18  C   UNL     1       9.136  -9.977  -3.206  1.00  0.00     0.235 C 
HETATM   19  C   UNL     1      10.471  -9.574  -2.612  1.00  0.00     0.029 C 
HETATM   20  C   UNL     1      10.820  -8.312  -3.372  1.00  0.00     0.029 C 
HETATM   21  C   UNL     1       9.500  -7.570  -3.400  1.00  0.00     0.235 C 
ENDBRANCH  15  16
ENDBRANCH  14  15
ENDBRANCH  13  14
ENDBRANCH  12  13
ENDBRANCH   8  12
ENDBRANCH   4   6
BRANCH   5  22
HETATM   22  C   UNL     1       4.262  -3.089   0.878  1.00  0.00     0.256 C 
HETATM   23  N   UNL     1       3.187  -2.404   1.359  1.00  0.00    -0.366 N 
HETATM   24  H   UNL     1       2.977  -1.450   1.089  1.00  0.00     0.159 HD
HETATM   25  H   UNL     1       2.577  -2.863   2.023  1.00  0.00     0.159 HD
HETATM   26  O   UNL     1       4.456  -4.245   1.244  1.00  0.00    -0.268 OA
ENDBRANCH   5  22
BRANCH   1  27
HETATM   27  O   UNL     1       3.697  -0.451  -0.551  1.00  0.00    -0.328 OA
BRANCH  27  28
HETATM   28  C   UNL     1       3.246   0.101  -1.794  1.00  0.00     0.222 C 
BRANCH  28  29
HETATM   29  C   UNL     1       1.749   0.196  -1.736  1.00  0.00     0.043 A 
HETATM   30  C   UNL     1       1.095   1.424  -1.814  1.00  0.00     0.129 A 
HETATM   31  C   UNL     1      -0.294   1.514  -1.763  1.00  0.00     0.062 A 
HETATM   32  F   UNL     1       1.807   2.551  -1.946  1.00  0.00    -0.205 F 
HETATM   33  C   UNL     1      -1.048   0.350  -1.632  1.00  0.00     0.016 A 
HETATM   34  C   UNL     1      -0.423  -0.891  -1.557  1.00  0.00     0.062 A 
HETATM   35 BR   UNL     1      -2.933   0.456  -1.557  1.00  0.00    -0.051 Br
HETATM   36  C   UNL     1       0.966  -0.955  -1.614  1.00  0.00     0.129 A 
HETATM   37  F   UNL     1       1.558  -2.157  -1.548  1.00  0.00    -0.205 F 
ENDBRANCH  28  29
ENDBRANCH  27  28
ENDBRANCH   1  27
TORSDOF 10
