REMARK  8 active torsions:
REMARK  status: ('A' for Active; 'I' for Inactive)
REMARK    1  A    between atoms: C_2  and  O_3 
REMARK    2  A    between atoms: O_3  and  C_4 
REMARK    3  A    between atoms: C_4  and  C_5 
REMARK    4  A    between atoms: C_5  and  C_6 
REMARK    5  A    between atoms: C_6  and  N_7 
REMARK    6  A    between atoms: C_12  and  C_13 
REMARK    7  A    between atoms: C_23  and  C_24 
REMARK    8  A    between atoms: C_25  and  O_26 
ROOT
HETATM    1  N   UNL     1       2.998  -4.188   4.417  1.00  0.00    -0.334 N 
HETATM    2  C   UNL     1       2.622  -5.457   3.953  1.00  0.00     0.273 A 
HETATM    3  O   UNL     1       1.902  -5.752   3.019  1.00  0.00    -0.266 OA
HETATM    4  C   UNL     1       3.298  -6.339   4.829  1.00  0.00     0.129 A 
HETATM    5  C   UNL     1       4.035  -5.686   5.771  1.00  0.00     0.034 A 
HETATM    6  C   UNL     1       3.909  -4.223   5.599  1.00  0.00     0.159 A 
HETATM    7  N   UNL     1       3.440  -7.657   5.036  1.00  0.00    -0.272 N 
HETATM    8  H   UNL     1       3.023  -8.435   4.534  1.00  0.00     0.189 HD
HETATM    9  N   UNL     1       4.280  -7.908   6.072  1.00  0.00    -0.173 NA
HETATM   10  C   UNL     1       4.655  -6.689   6.529  1.00  0.00     0.101 A 
ENDROOT
BRANCH  10  11
HETATM   11  C   UNL     1       5.577  -6.541   7.649  1.00  0.00     0.028 A 
HETATM   12  C   UNL     1       6.668  -5.661   7.608  1.00  0.00     0.078 A 
HETATM   13  C   UNL     1       7.483  -5.475   8.723  1.00  0.00     0.037 A 
HETATM   14  C   UNL     1       7.239  -6.202   9.888  1.00  0.00     0.003 A 
HETATM   15  C   UNL     1       6.181  -7.109   9.935  1.00  0.00     0.001 A 
HETATM   16  C   UNL     1       5.353  -7.276   8.822  1.00  0.00     0.017 A 
BRANCH  12  17
HETATM   17  O   UNL     1       7.019  -4.975   6.475  1.00  0.00    -0.360 OA
HETATM   18  H   UNL     1       6.849  -5.577   5.728  1.00  0.00     0.217 HD
ENDBRANCH  12  17
ENDBRANCH  10  11
BRANCH   6  19
HETATM   19  C   UNL     1       3.319  -3.655   6.867  1.00  0.00    -0.031 A 
HETATM   20  C   UNL     1       4.130  -2.866   7.702  1.00  0.00     0.011 A 
HETATM   21  C   UNL     1       3.621  -2.309   8.879  1.00  0.00     0.024 A 
HETATM   22  C   UNL     1       2.296  -2.540   9.236  1.00  0.00     0.034 A 
HETATM   23 CL   UNL     1       1.668  -1.850  10.682  1.00  0.00    -0.084 Cl
HETATM   24  C   UNL     1       1.476  -3.324   8.430  1.00  0.00     0.024 A 
HETATM   25  C   UNL     1       1.985  -3.879   7.252  1.00  0.00     0.011 A 
ENDBRANCH   6  19
BRANCH   1  26
HETATM   26  C   UNL     1       2.570  -2.949   3.789  1.00  0.00     0.129 C 
BRANCH  26  27
HETATM   27  C   UNL     1       3.723  -2.107   3.236  1.00  0.00     0.046 C 
BRANCH  27  28
HETATM   28  C   UNL     1       4.491  -2.808   2.121  1.00  0.00     0.169 C 
BRANCH  28  29
HETATM   29  O   UNL     1       3.612  -3.023   1.021  1.00  0.00    -0.387 OA
BRANCH  29  30
HETATM   30  C   UNL     1       4.092  -3.982   0.075  1.00  0.00     0.113 C 
HETATM   31  C   UNL     1       5.258  -3.422  -0.734  1.00  0.00     0.039 C 
HETATM   32  C   UNL     1       2.925  -4.326  -0.842  1.00  0.00     0.039 C 
ENDBRANCH  29  30
ENDBRANCH  28  29
ENDBRANCH  27  28
ENDBRANCH  26  27
ENDBRANCH   1  26
TORSDOF 8
