REMARK  5 active torsions:
REMARK  status: ('A' for Active; 'I' for Inactive)
REMARK    1  A    between atoms: C_4  and  C_5 
REMARK    2  A    between atoms: C_5  and  N_6 
REMARK    3  A    between atoms: C_15  and  C_16 
REMARK    4  A    between atoms: C_16  and  N_17 
REMARK    5  A    between atoms: C_20  and  C_21 
REMARK       I    between atoms: C_21  and  N_22 
ROOT
HETATM    1  N   UNL     1       4.011   3.884  -0.222  1.00  0.00    -0.061 N 
HETATM    2  H   UNL     1       3.081   3.962  -0.648  1.00  0.00     0.280 HD
HETATM    3  C   UNL     1       3.741   3.488   1.214  1.00  0.00     0.276 C 
HETATM    4  C   UNL     1       4.955   3.138   2.025  1.00  0.00     0.002 A 
HETATM    5  C   UNL     1       5.930   4.104   2.273  1.00  0.00     0.076 A 
HETATM    6  O   UNL     1       5.791   5.380   1.804  1.00  0.00    -0.349 OA
HETATM    7  C   UNL     1       5.948   5.443   0.381  1.00  0.00     0.203 C 
HETATM    8  C   UNL     1       4.605   5.281  -0.342  1.00  0.00     0.262 C 
HETATM    9  C   UNL     1       5.120   1.854   2.579  1.00  0.00     0.020 A 
HETATM   10  C   UNL     1       6.242   1.538   3.371  1.00  0.00    -0.032 A 
HETATM   11  C   UNL     1       7.202   2.537   3.598  1.00  0.00     0.011 A 
HETATM   12  C   UNL     1       7.035   3.818   3.069  1.00  0.00     0.038 A 
ENDROOT
BRANCH  10  13
HETATM   13  C   UNL     1       6.428   0.136   3.908  1.00  0.00     0.273 C 
BRANCH  13  14
HETATM   14  N   UNL     1       6.722   0.032   5.385  1.00  0.00    -0.066 N 
HETATM   15  H   UNL     1       7.534   0.653   5.569  1.00  0.00     0.280 HD
HETATM   16  C   UNL     1       5.616   0.567   6.274  1.00  0.00     0.249 C 
HETATM   17  C   UNL     1       6.067   0.579   7.738  1.00  0.00     0.103 C 
HETATM   18  C   UNL     1       6.531  -0.813   8.177  1.00  0.00     0.017 C 
HETATM   19  C   UNL     1       7.579  -1.397   7.229  1.00  0.00     0.029 C 
HETATM   20  C   UNL     1       7.133  -1.367   5.773  1.00  0.00     0.235 C 
BRANCH  17  21
HETATM   21  C   UNL     1       7.184   1.594   7.905  1.00  0.00     0.221 C 
HETATM   22  N   UNL     1       7.450   1.996   9.173  1.00  0.00    -0.370 N 
HETATM   23  H   UNL     1       6.920   1.713   9.989  1.00  0.00     0.159 HD
HETATM   24  H   UNL     1       8.202   2.660   9.329  1.00  0.00     0.159 HD
HETATM   25  O   UNL     1       7.858   1.964   6.946  1.00  0.00    -0.273 OA
ENDBRANCH  17  21
ENDBRANCH  13  14
ENDBRANCH  10  13
BRANCH   1  26
HETATM   26  C   UNL     1       4.742   2.852  -1.063  1.00  0.00     0.274 C 
BRANCH  26  27
HETATM   27  C   UNL     1       4.185   1.447  -0.999  1.00  0.00    -0.026 A 
HETATM   28  C   UNL     1       2.803   1.235  -1.191  1.00  0.00     0.016 A 
HETATM   29  C   UNL     1       2.240  -0.043  -1.095  1.00  0.00    -0.061 A 
HETATM   30  C   UNL     1       0.770  -0.256  -1.326  1.00  0.00     0.048 C 
HETATM   31  C   UNL     1       3.074  -1.135  -0.859  1.00  0.00     0.007 A 
HETATM   32  C   UNL     1       4.449  -0.954  -0.720  1.00  0.00     0.008 A 
HETATM   33  C   UNL     1       5.022   0.325  -0.802  1.00  0.00    -0.054 A 
HETATM   34  C   UNL     1       6.522   0.436  -0.703  1.00  0.00     0.049 C 
ENDBRANCH  26  27
ENDBRANCH   1  26
TORSDOF 5
