REMARK  8 active torsions:
REMARK  status: ('A' for Active; 'I' for Inactive)
REMARK    1  A    between atoms: O_2  and  C_3 
REMARK    2  A    between atoms: C_3  and  C_4 
REMARK    3  A    between atoms: C_7  and  C_8 
REMARK    4  A    between atoms: C_8  and  N_9 
REMARK    5  A    between atoms: C_18  and  C_19 
REMARK    6  A    between atoms: C_19  and  N_20 
REMARK    7  A    between atoms: C_24  and  O_25 
REMARK    8  A    between atoms: C_24  and  C_26 
ROOT
HETATM    1  N   UNL     1      -0.890  -4.092   4.978  1.00  0.00    -0.061 N 
HETATM    2  H   UNL     1      -1.864  -4.410   5.037  1.00  0.00     0.280 HD
HETATM    3  C   UNL     1      -0.281  -4.496   6.303  1.00  0.00     0.276 C 
HETATM    4  C   UNL     1       1.205  -4.308   6.421  1.00  0.00     0.002 A 
HETATM    5  C   UNL     1       1.769  -3.038   6.299  1.00  0.00     0.076 A 
HETATM    6  O   UNL     1       0.985  -1.931   6.134  1.00  0.00    -0.349 OA
HETATM    7  C   UNL     1       0.379  -1.878   4.838  1.00  0.00     0.203 C 
HETATM    8  C   UNL     1      -0.984  -2.580   4.819  1.00  0.00     0.262 C 
HETATM    9  C   UNL     1       2.052  -5.392   6.719  1.00  0.00     0.020 A 
HETATM   10  C   UNL     1       3.442  -5.217   6.877  1.00  0.00    -0.032 A 
HETATM   11  C   UNL     1       3.978  -3.932   6.718  1.00  0.00     0.011 A 
HETATM   12  C   UNL     1       3.140  -2.845   6.454  1.00  0.00     0.038 A 
ENDROOT
BRANCH  10  13
HETATM   13  C   UNL     1       4.324  -6.397   7.217  1.00  0.00     0.273 C 
BRANCH  13  14
HETATM   14  N   UNL     1       5.106  -6.281   8.516  1.00  0.00    -0.067 N 
HETATM   15  H   UNL     1       5.787  -5.522   8.381  1.00  0.00     0.280 HD
HETATM   16  C   UNL     1       4.249  -5.903   9.703  1.00  0.00     0.238 C 
HETATM   17  C   UNL     1       5.122  -5.773  10.938  1.00  0.00     0.071 C 
HETATM   18  C   UNL     1       5.830  -7.099  11.279  1.00  0.00     0.089 C 
HETATM   19  C   UNL     1       6.695  -7.458  10.053  1.00  0.00     0.071 C 
HETATM   20  C   UNL     1       5.894  -7.552   8.762  1.00  0.00     0.238 C 
BRANCH  18  21
HETATM   21  O   UNL     1       6.742  -6.808  12.338  1.00  0.00    -0.385 OA
HETATM   22  H   UNL     1       6.676  -7.487  13.037  1.00  0.00     0.211 HD
ENDBRANCH  18  21
BRANCH  18  23
HETATM   23  C   UNL     1       4.861  -8.172  11.762  1.00  0.00    -0.006 A 
HETATM   24  C   UNL     1       4.914  -9.498  11.339  1.00  0.00     0.126 A 
HETATM   25  N   UNL     1       4.025 -10.453  11.687  1.00  0.00    -0.272 NA
HETATM   26  C   UNL     1       3.067 -10.116  12.574  1.00  0.00     0.116 A 
HETATM   27  C   UNL     1       2.954  -8.851  13.114  1.00  0.00     0.020 A 
HETATM   28  C   UNL     1       3.862  -7.876  12.706  1.00  0.00     0.013 A 
ENDBRANCH  18  23
ENDBRANCH  13  14
ENDBRANCH  10  13
BRANCH   1  29
HETATM   29  C   UNL     1      -0.334  -4.779   3.747  1.00  0.00     0.273 C 
BRANCH  29  30
HETATM   30  C   UNL     1      -0.171  -6.274   3.859  1.00  0.00    -0.033 A 
HETATM   31  C   UNL     1      -1.260  -7.113   4.134  1.00  0.00     0.010 A 
HETATM   32  C   UNL     1      -1.073  -8.494   4.258  1.00  0.00     0.018 A 
HETATM   33  C   UNL     1       0.196  -9.062   4.090  1.00  0.00     0.039 A 
HETATM   34  C   UNL     1       1.279  -8.232   3.779  1.00  0.00     0.018 A 
HETATM   35  C   UNL     1       1.095  -6.852   3.662  1.00  0.00     0.010 A 
BRANCH  33  36
HETATM   36  C   UNL     1       0.339 -10.535   4.256  1.00  0.00     0.292 C 
HETATM   37  O   UNL     1      -0.597 -11.264   4.534  1.00  0.00    -0.259 OA
BRANCH  36  38
HETATM   38  O   UNL     1       1.632 -10.910   4.095  1.00  0.00    -0.323 OA
HETATM   39  C   UNL     1       1.844 -12.320   4.217  1.00  0.00     0.213 C 
ENDBRANCH  36  38
ENDBRANCH  33  36
ENDBRANCH  29  30
ENDBRANCH   1  29
TORSDOF 8
