REMARK  7 active torsions:
REMARK  status: ('A' for Active; 'I' for Inactive)
REMARK    1  A    between atoms: C_7  and  C_8 
REMARK    2  A    between atoms: C_8  and  N_9 
REMARK    3  A    between atoms: C_13  and  C_14 
REMARK    4  A    between atoms: C_14  and  C_15 
REMARK    5  A    between atoms: C_15  and  C_16 
REMARK    6  A    between atoms: N_26  and  C_27 
REMARK    7  A    between atoms: C_27  and  C_28 
ROOT
HETATM    1  C   UNL     1       4.458  -5.558   3.259  1.00  0.00     0.123 C 
HETATM    2  N   UNL     1       5.220  -5.046   4.388  1.00  0.00    -0.324 N 
HETATM    3  C   UNL     1       4.484  -4.231   5.216  1.00  0.00     0.326 C 
HETATM    4  O   UNL     1       4.903  -3.785   6.267  1.00  0.00    -0.247 OA
HETATM    5  N   UNL     1       3.284  -4.002   4.624  1.00  0.00    -0.268 N 
HETATM    6  C   UNL     1       3.213  -4.661   3.432  1.00  0.00     0.257 C 
HETATM    7  O   UNL     1       2.306  -4.567   2.616  1.00  0.00    -0.270 OA
HETATM    8  H   UNL     1       6.121  -5.394   4.702  1.00  0.00     0.165 HD
ENDROOT
BRANCH   1   9
HETATM    9  C   UNL     1       5.249  -5.330   1.928  1.00  0.00     0.027 C 
HETATM   10  C   UNL     1       5.819  -3.909   1.740  1.00  0.00     0.035 C 
HETATM   11  C   UNL     1       4.809  -2.890   1.238  1.00  0.00     0.235 C 
HETATM   12  N   UNL     1       4.204  -3.343  -0.063  1.00  0.00    -0.067 N 
HETATM   13  H   UNL     1       4.951  -3.308  -0.767  1.00  0.00     0.280 HD
HETATM   14  C   UNL     1       3.641  -4.737  -0.049  1.00  0.00     0.235 C 
HETATM   15  C   UNL     1       4.569  -5.746   0.611  1.00  0.00     0.035 C 
BRANCH  12  16
HETATM   16  C   UNL     1       3.127  -2.384  -0.557  1.00  0.00     0.277 C 
BRANCH  16  17
HETATM   17  C   UNL     1       3.568  -0.973  -0.656  1.00  0.00     0.011 A 
HETATM   18  C   UNL     1       3.188   0.108   0.189  1.00  0.00     0.060 A 
HETATM   19  C   UNL     1       2.257   0.101   1.349  1.00  0.00     0.073 C 
HETATM   20  N   UNL     1       3.808   1.237  -0.154  1.00  0.00    -0.178 NA
HETATM   21  N   UNL     1       4.514   0.921  -1.249  1.00  0.00    -0.284 N 
HETATM   22  C   UNL     1       5.272   1.943  -1.932  1.00  0.00     0.179 C 
HETATM   23  C   UNL     1       4.429  -0.403  -1.575  1.00  0.00     0.122 A 
ENDBRANCH  16  17
ENDBRANCH  12  16
ENDBRANCH   1   9
BRANCH   1  24
HETATM   24  C   UNL     1       3.976  -7.018   3.531  1.00  0.00     0.082 C 
BRANCH  24  25
HETATM   25  C   UNL     1       5.054  -8.052   3.803  1.00  0.00    -0.034 A 
HETATM   26  C   UNL     1       5.433  -9.051   2.889  1.00  0.00     0.040 A 
HETATM   27 CL   UNL     1       4.688  -9.232   1.344  1.00  0.00    -0.084 Cl
HETATM   28  C   UNL     1       6.429  -9.981   3.214  1.00  0.00     0.024 A 
HETATM   29  C   UNL     1       7.055  -9.939   4.457  1.00  0.00     0.002 A 
HETATM   30  C   UNL     1       6.675  -8.978   5.386  1.00  0.00     0.001 A 
HETATM   31  C   UNL     1       5.678  -8.054   5.067  1.00  0.00     0.009 A 
ENDBRANCH  24  25
ENDBRANCH   1  24
BRANCH   5  32
HETATM   32  C   UNL     1       2.260  -3.129   5.157  1.00  0.00     0.141 C 
BRANCH  32  33
HETATM   33  C   UNL     1       1.115  -3.942   5.680  1.00  0.00     0.004 A 
HETATM   34  C   UNL     1       1.234  -4.687   6.986  1.00  0.00     0.007 A 
HETATM   35  C   UNL     1       0.341  -3.480   6.887  1.00  0.00     0.007 A 
ENDBRANCH  32  33
ENDBRANCH   5  32
TORSDOF 7
