REMARK  9 active torsions:
REMARK  status: ('A' for Active; 'I' for Inactive)
REMARK       I    between atoms: C_2  and  N_3 
REMARK    1  A    between atoms: N_3  and  C_4 
REMARK    2  A    between atoms: C_6  and  O_7 
REMARK    3  A    between atoms: O_7  and  C_8 
REMARK    4  A    between atoms: C_8  and  C_9 
REMARK    5  A    between atoms: C_9  and  C_10 
REMARK    6  A    between atoms: C_10  and  C_11 
REMARK    7  A    between atoms: C_11  and  N_12 
REMARK       I    between atoms: N_12  and  C_13 
REMARK    8  A    between atoms: C_13  and  C_14 
REMARK    9  A    between atoms: C_18  and  C_19 
ROOT
HETATM    1  C   UNL     1      -2.541  -4.516   6.757  1.00  0.00     0.217 C 
ENDROOT
BRANCH   1   2
HETATM    2  C   UNL     1      -1.551  -3.705   5.937  1.00  0.00    -0.085 C 
BRANCH   2   3
HETATM    3  C   UNL     1      -0.701  -3.009   5.234  1.00  0.00    -0.078 C 
BRANCH   3   4
HETATM    4  C   UNL     1       0.289  -2.198   4.414  1.00  0.00     0.269 C 
BRANCH   4   5
HETATM    5  O   UNL     1       0.339  -0.857   4.893  1.00  0.00    -0.339 OA
BRANCH   5   6
HETATM    6  C   UNL     1       1.151  -0.003   4.189  1.00  0.00     0.072 A 
HETATM    7  C   UNL     1       1.910  -0.338   3.061  1.00  0.00     0.066 A 
HETATM    8  C   UNL     1       2.694   0.622   2.412  1.00  0.00     0.037 A 
HETATM    9  C   UNL     1       2.719   1.928   2.915  1.00  0.00     0.029 A 
HETATM   10  C   UNL     1       1.970   2.268   4.042  1.00  0.00     0.005 A 
HETATM   11  C   UNL     1       1.187   1.304   4.674  1.00  0.00     0.037 A 
BRANCH   8  12
HETATM   12  N   UNL     1       3.471   0.355   1.263  1.00  0.00    -0.327 N 
HETATM   13  C   UNL     1       3.580  -0.842   0.577  1.00  0.00     0.218 C 
HETATM   14  C   UNL     1       4.497  -0.746  -0.617  1.00  0.00     0.117 C 
HETATM   15  O   UNL     1       3.002  -1.893   0.833  1.00  0.00    -0.274 OA
HETATM   16  H   UNL     1       3.994   1.140   0.894  1.00  0.00     0.169 HD
ENDBRANCH   8  12
ENDBRANCH   5   6
ENDBRANCH   4   5
ENDBRANCH   3   4
ENDBRANCH   2   3
ENDBRANCH   1   2
BRANCH   1  17
HETATM   17  N   UNL     1      -2.872  -5.718   6.039  1.00  0.00    -0.345 N 
HETATM   18  C   UNL     1      -3.673  -6.676   6.604  1.00  0.00     0.270 C 
HETATM   19  O   UNL     1      -4.098  -6.589   7.751  1.00  0.00    -0.266 OA
HETATM   20  H   UNL     1      -2.630  -5.772   5.061  1.00  0.00     0.163 HD
BRANCH  18  21
HETATM   21  C   UNL     1      -3.995  -7.788   5.751  1.00  0.00     0.120 A 
HETATM   22  N   UNL     1      -4.833  -8.788   6.166  1.00  0.00    -0.272 N 
HETATM   23  H   UNL     1      -5.293  -8.858   7.069  1.00  0.00     0.189 HD
HETATM   24  N   UNL     1      -5.045  -9.745   5.249  1.00  0.00    -0.173 NA
HETATM   25  C   UNL     1      -4.304  -9.361   4.202  1.00  0.00     0.096 A 
HETATM   26  C   UNL     1      -3.626  -8.147   4.469  1.00  0.00     0.071 A 
BRANCH  25  27
HETATM   27  C   UNL     1      -4.243 -10.159   2.933  1.00  0.00     0.035 A 
HETATM   28  S   UNL     1      -3.312  -9.730   1.564  1.00  0.00    -0.100 SA
HETATM   29  C   UNL     1      -3.834 -11.109   0.696  1.00  0.00     0.050 A 
HETATM   30  C   UNL     1      -4.703 -11.883   1.433  1.00  0.00     0.008 A 
HETATM   31  C   UNL     1      -4.938 -11.333   2.728  1.00  0.00     0.022 A 
ENDBRANCH  25  27
ENDBRANCH  18  21
ENDBRANCH   1  17
TORSDOF 9
