REMARK  4 active torsions:
REMARK  status: ('A' for Active; 'I' for Inactive)
REMARK    1  A    between atoms: C_6  and  C_7 
REMARK    2  A    between atoms: C_8  and  C_9 
REMARK       I    between atoms: C_9  and  N_10 
REMARK    3  A    between atoms: N_10  and  C_11 
REMARK    4  A    between atoms: C_18  and  C_19 
REMARK       I    between atoms: C_19  and  N_20 
ROOT
HETATM    1  C   UNL     1       2.066  -4.844  -2.059  1.00  0.00     0.035 A 
HETATM    2  C   UNL     1       2.251  -4.688  -3.440  1.00  0.00     0.046 A 
HETATM    3  C   UNL     1       3.478  -5.071  -4.027  1.00  0.00     0.030 A 
HETATM    4  C   UNL     1       4.477  -5.589  -3.214  1.00  0.00     0.063 A 
HETATM    5  N   UNL     1       5.523  -5.859  -4.051  1.00  0.00    -0.277 N 
HETATM    6  H   UNL     1       6.425  -6.247  -3.801  1.00  0.00     0.189 HD
HETATM    7  N   UNL     1       5.291  -5.573  -5.343  1.00  0.00    -0.168 NA
HETATM    8  C   UNL     1       4.029  -5.086  -5.345  1.00  0.00     0.156 A 
HETATM    9  C   UNL     1       4.329  -5.756  -1.836  1.00  0.00     0.034 A 
HETATM   10  C   UNL     1       3.101  -5.377  -1.279  1.00  0.00     0.032 A 
ENDROOT
BRANCH   1  11
HETATM   11  N   UNL     1       0.867  -4.520  -1.388  1.00  0.00    -0.327 N 
HETATM   12  C   UNL     1      -0.235  -3.875  -1.905  1.00  0.00     0.227 C 
HETATM   13  O   UNL     1      -0.333  -3.376  -3.017  1.00  0.00    -0.273 OA
HETATM   14  H   UNL     1       0.845  -4.730  -0.402  1.00  0.00     0.169 HD
BRANCH  12  15
HETATM   15  C   UNL     1      -1.423  -3.771  -1.006  1.00  0.00     0.087 A 
HETATM   16  C   UNL     1      -1.452  -2.826   0.182  1.00  0.00     0.032 A 
HETATM   17  C   UNL     1      -1.546  -4.322   0.387  1.00  0.00     0.025 A 
BRANCH  16  18
HETATM   18  C   UNL     1      -0.232  -2.084   0.674  1.00  0.00    -0.051 A 
HETATM   19  C   UNL     1       0.211  -2.213   2.002  1.00  0.00     0.031 A 
HETATM   20  C   UNL     1       1.325  -1.511   2.465  1.00  0.00     0.034 A 
HETATM   21  C   UNL     1       2.022  -0.655   1.619  1.00  0.00     0.024 A 
HETATM   22 CL   UNL     1       1.837  -1.706   4.097  1.00  0.00    -0.084 Cl
HETATM   23  C   UNL     1       1.595  -0.499   0.303  1.00  0.00     0.002 A 
HETATM   24  C   UNL     1       0.477  -1.200  -0.158  1.00  0.00     0.007 A 
ENDBRANCH  16  18
ENDBRANCH  12  15
ENDBRANCH   1  11
BRANCH   8  25
HETATM   25  C   UNL     1       3.382  -4.659  -6.594  1.00  0.00     0.270 C 
HETATM   26  N   UNL     1       4.171  -4.792  -7.704  1.00  0.00    -0.365 N 
HETATM   27  H   UNL     1       5.104  -5.170  -7.594  1.00  0.00     0.159 HD
HETATM   28  H   UNL     1       3.807  -4.535  -8.608  1.00  0.00     0.159 HD
HETATM   29  O   UNL     1       2.240  -4.222  -6.677  1.00  0.00    -0.266 OA
ENDBRANCH   8  25
TORSDOF 4
