REMARK  4 active torsions:
REMARK  status: ('A' for Active; 'I' for Inactive)
REMARK    1  A    between atoms: C_2  and  C_3 
REMARK    2  A    between atoms: C_6  and  C_7 
REMARK       I    between atoms: C_7  and  N_8 
REMARK    3  A    between atoms: N_8  and  C_9 
REMARK    4  A    between atoms: C_11  and  C_12 
ROOT
HETATM    1  C   UNL     1       4.728   5.149   0.784  1.00  0.00     0.257 C 
HETATM    2  N   UNL     1       5.925   5.236   1.475  1.00  0.00    -0.323 N 
HETATM    3  O   UNL     1       4.076   6.081   0.329  1.00  0.00    -0.267 OA
HETATM    4  H   UNL     1       6.259   4.396   1.927  1.00  0.00     0.169 HD
ENDROOT
BRANCH   2   5
HETATM    5  C   UNL     1       6.695   6.396   1.711  1.00  0.00     0.035 A 
HETATM    6  C   UNL     1       6.409   7.650   1.161  1.00  0.00     0.042 A 
HETATM    7  C   UNL     1       7.218   8.769   1.433  1.00  0.00    -0.021 A 
HETATM    8  C   UNL     1       8.333   8.603   2.265  1.00  0.00     0.012 A 
HETATM    9  C   UNL     1       8.633   7.355   2.811  1.00  0.00     0.003 A 
HETATM   10  C   UNL     1       7.818   6.258   2.534  1.00  0.00     0.029 A 
BRANCH   7  11
HETATM   11  C   UNL     1       6.919  10.076   0.863  1.00  0.00     0.010 A 
HETATM   12  C   UNL     1       7.724  11.234   0.723  1.00  0.00     0.152 A 
HETATM   13  N   UNL     1       7.079  12.254   0.149  1.00  0.00    -0.187 NA
HETATM   14  N   UNL     1       5.855  11.755  -0.084  1.00  0.00    -0.289 N 
HETATM   15  H   UNL     1       5.166  12.354  -0.526  1.00  0.00     0.188 HD
HETATM   16  C   UNL     1       5.707  10.462   0.327  1.00  0.00     0.123 A 
ENDBRANCH   7  11
ENDBRANCH   2   5
BRANCH   1  17
HETATM   17  C   UNL     1       4.186   3.777   0.629  1.00  0.00     0.049 A 
HETATM   18  C   UNL     1       2.812   3.604   0.551  1.00  0.00     0.134 A 
HETATM   19  N   UNL     1       2.208   2.397   0.407  1.00  0.00    -0.264 NA
HETATM   20  C   UNL     1       3.001   1.301   0.324  1.00  0.00     0.037 A 
HETATM   21  C   UNL     1       4.392   1.391   0.365  1.00  0.00     0.028 A 
HETATM   22  C   UNL     1       4.991   2.642   0.517  1.00  0.00     0.020 A 
BRANCH  20  23
HETATM   23  C   UNL     1       2.331  -0.045   0.117  1.00  0.00     0.029 C 
HETATM   24  C   UNL     1       1.946  -0.221  -1.352  1.00  0.00     0.016 C 
HETATM   25  C   UNL     1       1.109  -0.218   1.022  1.00  0.00     0.016 C 
ENDBRANCH  20  23
ENDBRANCH   1  17
TORSDOF 4
