REMARK  6 active torsions:
REMARK  status: ('A' for Active; 'I' for Inactive)
REMARK    1  A    between atoms: C_2  and  C_3 
REMARK    2  A    between atoms: C_3  and  O_4 
REMARK    3  A    between atoms: O_4  and  C_5 
REMARK    4  A    between atoms: C_7  and  C_8 
REMARK       I    between atoms: C_8  and  N_9 
REMARK    5  A    between atoms: N_9  and  C_10 
REMARK    6  A    between atoms: C_17  and  C_18 
REMARK       I    between atoms: C_18  and  N_19 
ROOT
HETATM    1  C   UNL     1       2.652   6.196  -6.778  1.00  0.00     0.036 A 
HETATM    2  C   UNL     1       2.573   7.294  -5.912  1.00  0.00     0.046 A 
HETATM    3  C   UNL     1       2.394   8.592  -6.441  1.00  0.00     0.030 A 
HETATM    4  C   UNL     1       2.316   8.748  -7.819  1.00  0.00     0.063 A 
HETATM    5  N   UNL     1       2.154  10.090  -8.023  1.00  0.00    -0.277 N 
HETATM    6  H   UNL     1       2.065  10.569  -8.912  1.00  0.00     0.189 HD
HETATM    7  N   UNL     1       2.104  10.822  -6.899  1.00  0.00    -0.168 NA
HETATM    8  C   UNL     1       2.250   9.910  -5.911  1.00  0.00     0.156 A 
HETATM    9  C   UNL     1       2.398   7.680  -8.713  1.00  0.00     0.034 A 
HETATM   10  C   UNL     1       2.561   6.402  -8.162  1.00  0.00     0.032 A 
ENDROOT
BRANCH   1  11
HETATM   11  N   UNL     1       2.813   4.860  -6.344  1.00  0.00    -0.323 N 
HETATM   12  C   UNL     1       2.955   4.413  -5.043  1.00  0.00     0.256 C 
HETATM   13  O   UNL     1       2.956   5.103  -4.030  1.00  0.00    -0.267 OA
HETATM   14  H   UNL     1       2.770   4.161  -7.072  1.00  0.00     0.169 HD
BRANCH  12  15
HETATM   15  C   UNL     1       3.086   2.934  -4.875  1.00  0.00     0.035 A 
HETATM   16  C   UNL     1       2.626   2.373  -3.673  1.00  0.00     0.053 A 
HETATM   17  C   UNL     1       2.724   1.000  -3.449  1.00  0.00     0.069 A 
HETATM   18  C   UNL     1       3.279   0.186  -4.439  1.00  0.00     0.037 A 
HETATM   19  C   UNL     1       3.756   0.736  -5.630  1.00  0.00     0.004 A 
HETATM   20  C   UNL     1       3.669   2.112  -5.848  1.00  0.00     0.017 A 
BRANCH  17  21
HETATM   21  O   UNL     1       2.318   0.340  -2.322  1.00  0.00    -0.351 OA
BRANCH  21  22
HETATM   22  C   UNL     1       1.879   1.146  -1.225  1.00  0.00     0.179 C 
BRANCH  22  23
HETATM   23  C   UNL     1       1.565   0.234  -0.029  1.00  0.00     0.002 C 
HETATM   24  C   UNL     1       0.425  -0.735  -0.351  1.00  0.00     0.011 C 
HETATM   25  C   UNL     1       1.218   1.072   1.201  1.00  0.00     0.011 C 
ENDBRANCH  22  23
ENDBRANCH  21  22
ENDBRANCH  17  21
ENDBRANCH  12  15
ENDBRANCH   1  11
BRANCH   8  26
HETATM   26  C   UNL     1       2.238  10.312  -4.497  1.00  0.00     0.270 C 
HETATM   27  N   UNL     1       2.070  11.656  -4.301  1.00  0.00    -0.365 N 
HETATM   28  H   UNL     1       1.961  12.255  -5.111  1.00  0.00     0.159 HD
HETATM   29  H   UNL     1       2.034  12.022  -3.363  1.00  0.00     0.159 HD
HETATM   30  O   UNL     1       2.357   9.545  -3.548  1.00  0.00    -0.266 OA
ENDBRANCH   8  26
TORSDOF 6
