REMARK  7 active torsions:
REMARK  status: ('A' for Active; 'I' for Inactive)
REMARK    1  A    between atoms: C_2  and  C_3 
REMARK    2  A    between atoms: C_3  and  N_4 
REMARK    3  A    between atoms: N_4  and  C_5 
REMARK    4  A    between atoms: C_7  and  N_8 
REMARK    5  A    between atoms: N_8  and  C_9 
REMARK    6  A    between atoms: C_9  and  C_10 
REMARK    7  A    between atoms: C_11  and  O_12 
ROOT
HETATM    1  C   UNL     1       5.152   2.536   1.751  1.00  0.00     0.134 A 
HETATM    2  N   UNL     1       5.946   2.271   2.807  1.00  0.00    -0.052 NA
HETATM    3  C   UNL     1       6.581   3.296   3.393  1.00  0.00     0.702 A 
HETATM    4  N   UNL     1       6.462   4.553   2.978  1.00  0.00    -0.189 N 
HETATM    5  H   UNL     1       6.934   5.274   3.505  1.00  0.00     0.184 HD
HETATM    6  C   UNL     1       5.662   4.874   1.952  1.00  0.00     0.062 A 
HETATM    7  C   UNL     1       4.953   3.854   1.290  1.00  0.00     0.032 A 
HETATM    8  C   UNL     1       5.507   6.216   1.573  1.00  0.00     0.031 A 
HETATM    9  C   UNL     1       4.636   6.558   0.538  1.00  0.00     0.002 A 
HETATM   10  C   UNL     1       3.918   5.565  -0.121  1.00  0.00     0.001 A 
HETATM   11  C   UNL     1       4.072   4.227   0.247  1.00  0.00     0.017 A 
ENDROOT
BRANCH   3  12
HETATM   12  N   UNL     1       7.265   3.010   4.551  1.00  0.00    -0.220 N 
HETATM   13  H   UNL     1       7.240   2.003   4.702  1.00  0.00     0.178 HD
BRANCH  12  14
HETATM   14  C   UNL     1       8.537   3.624   4.898  1.00  0.00     0.179 C 
BRANCH  14  15
HETATM   15  C   UNL     1       9.720   3.150   4.080  1.00  0.00    -0.007 A 
HETATM   16  C   UNL     1      10.871   3.966   4.004  1.00  0.00     0.076 A 
HETATM   17  C   UNL     1      12.017   3.505   3.346  1.00  0.00     0.037 A 
HETATM   18  C   UNL     1      12.040   2.232   2.779  1.00  0.00     0.003 A 
HETATM   19  C   UNL     1      10.919   1.413   2.861  1.00  0.00     0.001 A 
HETATM   20  C   UNL     1       9.770   1.864   3.512  1.00  0.00     0.011 A 
BRANCH  16  21
HETATM   21  O   UNL     1      10.770   5.201   4.596  1.00  0.00    -0.355 OA
HETATM   22  C   UNL     1      11.992   5.895   4.845  1.00  0.00     0.210 C 
ENDBRANCH  16  21
ENDBRANCH  14  15
ENDBRANCH  12  14
ENDBRANCH   3  12
BRANCH   1  23
HETATM   23  N   UNL     1       4.440   1.487   1.157  1.00  0.00    -0.276 NA
HETATM   24  H   UNL     1       4.556   1.488   0.145  1.00  0.00     0.129 HD
BRANCH  23  25
HETATM   25  C   UNL     1       4.626   0.151   1.720  1.00  0.00     0.093 C 
BRANCH  25  26
HETATM   26  C   UNL     1       3.655  -0.832   1.062  1.00  0.00     0.010 C 
HETATM   27  C   UNL     1       2.200  -0.535   1.401  1.00  0.00     0.006 C 
ENDBRANCH  25  26
ENDBRANCH  23  25
ENDBRANCH   1  23
TORSDOF 7
