REMARK  6 active torsions:
REMARK  status: ('A' for Active; 'I' for Inactive)
REMARK    1  A    between atoms: C_2  and  C_3 
REMARK    2  A    between atoms: C_3  and  C_4 
REMARK    3  A    between atoms: C_7  and  C_8 
REMARK    4  A    between atoms: C_14  and  C_15 
REMARK    5  A    between atoms: C_18  and  N_19 
REMARK       I    between atoms: N_19  and  C_20 
REMARK    6  A    between atoms: C_28  and  N_29 
ROOT
HETATM    1  C   UNL     1       1.869  -6.246   2.162  1.00  0.00     0.099 A 
HETATM    2  N   UNL     1       1.055  -6.396   3.224  1.00  0.00    -0.172 NA
HETATM    3  N   UNL     1       0.832  -7.723   3.296  1.00  0.00    -0.256 N 
HETATM    4  H   UNL     1       0.243  -8.081   4.039  1.00  0.00     0.191 HD
HETATM    5  C   UNL     1       1.440  -8.414   2.300  1.00  0.00     0.175 A 
HETATM    6  C   UNL     1       2.129  -7.502   1.546  1.00  0.00     0.040 A 
HETATM    7  C   UNL     1       2.896  -7.956   0.348  1.00  0.00     0.106 A 
HETATM    8  C   UNL     1       2.756  -9.467   0.163  1.00  0.00     0.081 A 
HETATM    9  C   UNL     1       3.480 -10.048  -0.919  1.00  0.00     0.100 C 
HETATM   10  N   UNL     1       4.062 -10.530  -1.799  1.00  0.00    -0.191 NA
HETATM   11  C   UNL     1       2.035 -10.254   1.010  1.00  0.00     0.140 A 
HETATM   12  O   UNL     1       1.342  -9.724   2.114  1.00  0.00    -0.279 OA
ENDROOT
BRANCH   7  13
HETATM   13  C   UNL     1       2.377  -7.135  -0.825  1.00  0.00    -0.044 A 
HETATM   14  C   UNL     1       3.263  -6.294  -1.517  1.00  0.00     0.010 A 
HETATM   15  C   UNL     1       2.807  -5.424  -2.513  1.00  0.00     0.030 A 
HETATM   16  C   UNL     1       1.458  -5.390  -2.857  1.00  0.00     0.034 A 
HETATM   17  C   UNL     1       0.580  -6.279  -2.226  1.00  0.00     0.030 A 
HETATM   18  C   UNL     1       1.032  -7.145  -1.223  1.00  0.00     0.010 A 
BRANCH  16  19
HETATM   19  N   UNL     1       0.907  -4.488  -3.790  1.00  0.00    -0.328 N 
HETATM   20  C   UNL     1       1.559  -3.465  -4.456  1.00  0.00     0.218 C 
HETATM   21  C   UNL     1       0.617  -2.661  -5.317  1.00  0.00     0.117 C 
HETATM   22  O   UNL     1       2.753  -3.190  -4.410  1.00  0.00    -0.274 OA
HETATM   23  H   UNL     1      -0.090  -4.568  -3.945  1.00  0.00     0.169 HD
ENDBRANCH  16  19
ENDBRANCH   7  13
BRANCH  11  24
HETATM   24  N   UNL     1       1.899 -11.620   0.908  1.00  0.00    -0.282 NA
HETATM   25  H   UNL     1       2.045 -12.012  -0.019  1.00  0.00     0.126 HD
HETATM   26  H   UNL     1       1.053 -11.959   1.360  1.00  0.00     0.126 HD
ENDBRANCH  11  24
BRANCH   1  27
HETATM   27  C   UNL     1       2.307  -4.929   1.716  1.00  0.00    -0.005 A 
HETATM   28  C   UNL     1       3.659  -4.667   1.475  1.00  0.00     0.014 A 
HETATM   29  C   UNL     1       4.054  -3.459   0.890  1.00  0.00     0.008 A 
HETATM   30  C   UNL     1       3.108  -2.487   0.541  1.00  0.00    -0.058 A 
HETATM   31  C   UNL     1       1.760  -2.732   0.856  1.00  0.00     0.008 A 
HETATM   32  C   UNL     1       1.362  -3.940   1.434  1.00  0.00     0.014 A 
BRANCH  30  33
HETATM   33  C   UNL     1       3.447  -1.184  -0.156  1.00  0.00     0.042 C 
BRANCH  33  34
HETATM   34  C   UNL     1       4.810  -1.083  -0.877  1.00  0.00    -0.019 C 
HETATM   35  C   UNL     1       5.917  -0.614   0.073  1.00  0.00     0.010 C 
HETATM   36  C   UNL     1       4.714  -0.102  -2.052  1.00  0.00     0.010 C 
ENDBRANCH  33  34
ENDBRANCH  30  33
ENDBRANCH   1  27
TORSDOF 6
