REMARK  6 active torsions:
REMARK  status: ('A' for Active; 'I' for Inactive)
REMARK    1  A    between atoms: C_4  and  C_5 
REMARK    2  A    between atoms: C_5  and  N_6 
REMARK    3  A    between atoms: C_5  and  C_20 
REMARK       I    between atoms: N_6  and  C_7 
REMARK    4  A    between atoms: C_7  and  C_8 
REMARK    5  A    between atoms: C_8  and  N_9 
REMARK    6  A    between atoms: C_21  and  O_22 
ROOT
HETATM    1  C   UNL     1       3.273   0.453  -0.435  1.00  0.00     0.154 C 
ENDROOT
BRANCH   1   2
HETATM    2  C   UNL     1       3.954   1.066  -1.662  1.00  0.00    -0.031 A 
HETATM    3  C   UNL     1       4.355   2.413  -1.707  1.00  0.00     0.009 A 
HETATM    4  C   UNL     1       4.957   2.943  -2.852  1.00  0.00     0.001 A 
HETATM    5  C   UNL     1       5.151   2.146  -3.977  1.00  0.00     0.000 A 
HETATM    6  C   UNL     1       4.733   0.819  -3.965  1.00  0.00     0.001 A 
HETATM    7  C   UNL     1       4.131   0.288  -2.823  1.00  0.00     0.009 A 
ENDBRANCH   1   2
BRANCH   1   8
HETATM    8  N   UNL     1       3.314   1.295   0.751  1.00  0.00    -0.347 N 
HETATM    9  C   UNL     1       2.324   1.237   1.705  1.00  0.00     0.236 C 
HETATM   10  O   UNL     1       1.319   0.536   1.558  1.00  0.00    -0.272 OA
HETATM   11  H   UNL     1       4.234   1.608   1.056  1.00  0.00     0.163 HD
BRANCH   9  12
HETATM   12  C   UNL     1       2.638   1.916   3.045  1.00  0.00     0.236 C 
BRANCH  12  13
HETATM   13  N   UNL     1       3.246   3.225   2.958  1.00  0.00    -0.289 N 
HETATM   14  C   UNL     1       4.581   3.458   2.578  1.00  0.00     0.328 A 
HETATM   15  O   UNL     1       5.345   2.654   2.069  1.00  0.00    -0.247 OA
HETATM   16  N   UNL     1       4.870   4.791   2.883  1.00  0.00    -0.306 N 
HETATM   17  C   UNL     1       3.764   5.358   3.503  1.00  0.00     0.063 A 
HETATM   18  H   UNL     1       5.767   5.223   2.730  1.00  0.00     0.171 HD
HETATM   19  C   UNL     1       2.753   4.396   3.562  1.00  0.00     0.066 A 
HETATM   20  C   UNL     1       3.626   6.621   4.033  1.00  0.00     0.032 A 
HETATM   21  C   UNL     1       1.544   4.671   4.165  1.00  0.00     0.032 A 
HETATM   22  C   UNL     1       1.378   5.950   4.714  1.00  0.00     0.002 A 
HETATM   23  C   UNL     1       2.407   6.913   4.650  1.00  0.00     0.002 A 
ENDBRANCH  12  13
ENDBRANCH   9  12
ENDBRANCH   1   8
BRANCH   1  24
HETATM   24  C   UNL     1       3.747  -0.962  -0.070  1.00  0.00     0.013 A 
HETATM   25  C   UNL     1       2.785  -1.984   0.053  1.00  0.00     0.075 A 
HETATM   26  C   UNL     1       3.147  -3.311   0.237  1.00  0.00     0.038 A 
HETATM   27  C   UNL     1       4.488  -3.648   0.360  1.00  0.00     0.015 A 
HETATM   28  C   UNL     1       5.481  -2.661   0.327  1.00  0.00    -0.025 A 
HETATM   29  C   UNL     1       5.129  -1.298   0.126  1.00  0.00    -0.015 A 
HETATM   30  C   UNL     1       6.825  -3.035   0.496  1.00  0.00     0.012 A 
HETATM   31  C   UNL     1       6.195  -0.364   0.137  1.00  0.00     0.013 A 
HETATM   32  C   UNL     1       7.527  -0.749   0.316  1.00  0.00     0.001 A 
HETATM   33  C   UNL     1       7.843  -2.086   0.490  1.00  0.00     0.001 A 
BRANCH  25  34
HETATM   34  O   UNL     1       1.439  -1.737   0.018  1.00  0.00    -0.360 OA
HETATM   35  H   UNL     1       1.264  -0.943   0.573  1.00  0.00     0.217 HD
ENDBRANCH  25  34
ENDBRANCH   1  24
TORSDOF 6
