REMARK  5 active torsions:
REMARK  status: ('A' for Active; 'I' for Inactive)
REMARK    1  A    between atoms: C_3  and  O_4 
REMARK    2  A    between atoms: C_8  and  C_9 
REMARK       I    between atoms: N_10  and  C_11 
REMARK    3  A    between atoms: C_11  and  C_12 
REMARK    4  A    between atoms: C_12  and  C_13 
REMARK    5  A    between atoms: C_13  and  C_14 
ROOT
HETATM    1  C   UNL     1       4.668  -3.103  -0.923  1.00  0.00     0.171 C 
HETATM    2  N   UNL     1       5.104  -4.304  -1.680  1.00  0.00    -0.338 N 
HETATM    3  C   UNL     1       6.341  -4.272  -2.339  1.00  0.00     0.221 C 
HETATM    4  O   UNL     1       6.960  -3.230  -2.557  1.00  0.00    -0.273 OA
HETATM    5  C   UNL     1       4.621  -5.552  -1.052  1.00  0.00     0.131 C 
HETATM    6  C   UNL     1       5.324  -5.802   0.308  1.00  0.00     0.061 C 
HETATM    7  C   UNL     1       5.526  -4.510   1.043  1.00  0.00    -0.019 A 
HETATM    8  C   UNL     1       5.244  -3.281   0.462  1.00  0.00     0.044 A 
HETATM    9  N   UNL     1       5.507  -2.311   1.389  1.00  0.00    -0.356 N 
HETATM   10  H   UNL     1       5.363  -1.318   1.261  1.00  0.00     0.166 HD
HETATM   11  C   UNL     1       6.059  -2.881   2.519  1.00  0.00     0.043 A 
HETATM   12  C   UNL     1       6.066  -4.266   2.332  1.00  0.00    -0.001 A 
HETATM   13  C   UNL     1       6.548  -2.278   3.684  1.00  0.00     0.030 A 
HETATM   14  C   UNL     1       7.054  -3.115   4.685  1.00  0.00     0.002 A 
HETATM   15  C   UNL     1       7.064  -4.499   4.528  1.00  0.00     0.001 A 
HETATM   16  C   UNL     1       6.572  -5.088   3.358  1.00  0.00     0.014 A 
ENDROOT
BRANCH   1  17
HETATM   17  C   UNL     1       4.751  -1.754  -1.619  1.00  0.00    -0.029 A 
HETATM   18  C   UNL     1       5.788  -0.833  -1.419  1.00  0.00     0.012 A 
HETATM   19  C   UNL     1       5.796   0.403  -2.078  1.00  0.00     0.038 A 
HETATM   20  C   UNL     1       4.773   0.738  -2.966  1.00  0.00     0.074 A 
HETATM   21  C   UNL     1       3.753  -0.187  -3.229  1.00  0.00    -0.028 A 
HETATM   22  C   UNL     1       2.690   0.107  -4.250  1.00  0.00     0.051 C 
HETATM   23  C   UNL     1       3.752  -1.418  -2.553  1.00  0.00     0.019 A 
BRANCH  20  24
HETATM   24  O   UNL     1       4.717   1.918  -3.663  1.00  0.00    -0.355 OA
HETATM   25  C   UNL     1       5.322   3.038  -3.028  1.00  0.00     0.210 C 
ENDBRANCH  20  24
ENDBRANCH   1  17
BRANCH   3  26
HETATM   26  C   UNL     1       6.900  -5.592  -2.866  1.00  0.00     0.108 C 
BRANCH  26  27
HETATM   27  C   UNL     1       8.410  -5.521  -3.126  1.00  0.00     0.051 C 
BRANCH  27  28
HETATM   28  C   UNL     1       9.231  -5.670  -1.883  1.00  0.00    -0.021 A 
HETATM   29  C   UNL     1       9.116  -4.997  -0.682  1.00  0.00     0.120 A 
HETATM   30  N   UNL     1      10.086  -5.492   0.138  1.00  0.00    -0.285 N 
HETATM   31  C   UNL     1      10.347  -5.102   1.501  1.00  0.00     0.179 C 
HETATM   32  N   UNL     1      10.844  -6.437  -0.445  1.00  0.00    -0.185 NA
HETATM   33  C   UNL     1      10.334  -6.533  -1.676  1.00  0.00     0.147 A 
ENDBRANCH  27  28
ENDBRANCH  26  27
ENDBRANCH   3  26
TORSDOF 5
