REMARK  8 active torsions:
REMARK  status: ('A' for Active; 'I' for Inactive)
REMARK    1  A    between atoms: C_3  and  S_4 
REMARK    2  A    between atoms: S_4  and  N_5 
REMARK    3  A    between atoms: N_5  and  C_6 
REMARK    4  A    between atoms: C_6  and  C_7 
REMARK    5  A    between atoms: C_20  and  C_21 
REMARK    6  A    between atoms: C_25  and  N_26 
REMARK    7  A    between atoms: N_26  and  C_27 
REMARK    8  A    between atoms: C_27  and  C_28 
ROOT
HETATM    1  C   UNL     1       1.183   0.065   0.557  1.00  0.00     0.050 C 
HETATM    2  C   UNL     1       2.662   0.121   0.293  1.00  0.00    -0.039 A 
HETATM    3  C   UNL     1       3.330   1.240  -0.229  1.00  0.00     0.081 A 
HETATM    4  C   UNL     1       4.714   1.185  -0.490  1.00  0.00     0.039 A 
HETATM    5  C   UNL     1       5.484   0.055  -0.169  1.00  0.00    -0.003 A 
HETATM    6  C   UNL     1       4.811  -1.044   0.384  1.00  0.00     0.014 A 
HETATM    7  C   UNL     1       3.426  -1.021   0.587  1.00  0.00     0.009 A 
ENDROOT
BRANCH   5   8
HETATM    8  C   UNL     1       6.955   0.083  -0.307  1.00  0.00     0.098 C 
HETATM    9  N   UNL     1       7.505   1.188   0.236  1.00  0.00    -0.172 NA
HETATM   10  N   UNL     1       8.818   1.292   0.301  1.00  0.00    -0.266 N 
HETATM   11  H   UNL     1       9.198   2.164   0.659  1.00  0.00     0.190 HD
HETATM   12  C   UNL     1       9.673   0.323  -0.070  1.00  0.00     0.108 C 
HETATM   13  C   UNL     1       9.138  -0.803  -0.757  1.00  0.00     0.016 A 
HETATM   14  C   UNL     1       7.738  -0.927  -0.885  1.00  0.00     0.009 A 
HETATM   15  C   UNL     1       9.954  -1.812  -1.329  1.00  0.00     0.016 A 
HETATM   16  C   UNL     1       7.211  -2.039  -1.592  1.00  0.00     0.015 A 
HETATM   17  C   UNL     1       8.039  -3.018  -2.138  1.00  0.00     0.001 A 
HETATM   18  C   UNL     1       9.412  -2.906  -2.004  1.00  0.00     0.001 A 
BRANCH  12  19
HETATM   19  N   UNL     1      11.054   0.456   0.123  1.00  0.00    -0.273 NA
HETATM   20  H   UNL     1      11.468  -0.441   0.384  1.00  0.00     0.129 HD
BRANCH  19  21
HETATM   21  C   UNL     1      11.648   1.528   0.924  1.00  0.00     0.132 C 
BRANCH  21  22
HETATM   22  C   UNL     1      11.515   2.867   0.244  1.00  0.00    -0.045 A 
HETATM   23  C   UNL     1      11.105   3.997   0.968  1.00  0.00     0.008 A 
HETATM   24  C   UNL     1      10.993   5.237   0.338  1.00  0.00     0.001 A 
HETATM   25  C   UNL     1      11.306   5.367  -1.014  1.00  0.00     0.000 A 
HETATM   26  C   UNL     1      11.738   4.259  -1.738  1.00  0.00     0.001 A 
HETATM   27  C   UNL     1      11.847   3.017  -1.113  1.00  0.00     0.008 A 
ENDBRANCH  21  22
ENDBRANCH  19  21
ENDBRANCH  12  19
ENDBRANCH   5   8
BRANCH   3  28
HETATM   28  S   UNL     1       2.518   2.805  -0.568  1.00  0.00     0.242 S 
HETATM   29  O   UNL     1       3.232   3.438  -1.656  1.00  0.00    -0.206 OA
HETATM   30  O   UNL     1       1.091   2.600  -0.614  1.00  0.00    -0.206 OA
BRANCH  28  31
HETATM   31  N   UNL     1       2.855   3.665   0.858  1.00  0.00    -0.208 NA
HETATM   32  H   UNL     1       2.827   3.042   1.668  1.00  0.00     0.140 HD
BRANCH  31  33
HETATM   33  C   UNL     1       4.092   4.462   0.810  1.00  0.00     0.182 C 
BRANCH  33  34
HETATM   34  C   UNL     1       4.423   4.933   2.183  1.00  0.00     0.119 A 
HETATM   35  N   UNL     1       5.460   4.568   2.915  1.00  0.00    -0.232 NA
HETATM   36  C   UNL     1       5.373   5.316   4.067  1.00  0.00     0.085 A 
HETATM   37  C   UNL     1       4.246   6.131   4.047  1.00  0.00     0.062 A 
HETATM   38  C   UNL     1       6.227   5.360   5.179  1.00  0.00     0.034 A 
HETATM   39  N   UNL     1       3.650   5.857   2.844  1.00  0.00    -0.342 N 
HETATM   40  C   UNL     1       3.908   7.000   5.086  1.00  0.00     0.032 A 
HETATM   41  H   UNL     1       2.794   6.268   2.495  1.00  0.00     0.167 HD
HETATM   42  C   UNL     1       4.774   7.032   6.185  1.00  0.00     0.002 A 
HETATM   43  C   UNL     1       5.916   6.228   6.233  1.00  0.00     0.002 A 
ENDBRANCH  33  34
ENDBRANCH  31  33
ENDBRANCH  28  31
ENDBRANCH   3  28
TORSDOF 8
