REMARK  4 active torsions:
REMARK  status: ('A' for Active; 'I' for Inactive)
REMARK    1  A    between atoms: C_2  and  C_5 
REMARK    2  A    between atoms: C_8  and  C_11 
REMARK    3  A    between atoms: C_17  and  C_18 
REMARK    4  A    between atoms: C_24  and  C_30 
ROOT
HETATM    1  C   UNL     1       5.549   5.939   2.249  1.00  0.00     0.091 A 
HETATM    2  N   UNL     1       5.621   6.111   0.933  1.00  0.00    -0.345 N 
HETATM    3  H   UNL     1       4.781   6.147   0.357  1.00  0.00     0.167 HD
HETATM    4  C   UNL     1       6.841   6.233   0.316  1.00  0.00     0.049 A 
HETATM    5  C   UNL     1       6.907   6.439  -1.062  1.00  0.00     0.031 A 
HETATM    6  C   UNL     1       8.148   6.614  -1.698  1.00  0.00     0.014 A 
HETATM    7  C   UNL     1       9.347   6.587  -0.970  1.00  0.00    -0.022 A 
HETATM    8  C   UNL     1       9.288   6.361   0.408  1.00  0.00     0.031 A 
HETATM    9  C   UNL     1       8.044   6.185   1.023  1.00  0.00     0.059 A 
HETATM   10  C   UNL     1       7.946   5.954   2.458  1.00  0.00     0.259 A 
HETATM   11  O   UNL     1       8.859   5.863   3.249  1.00  0.00    -0.267 OA
HETATM   12  N   UNL     1       6.634   5.847   2.995  1.00  0.00    -0.312 N 
HETATM   13  H   UNL     1       6.624   5.680   3.993  1.00  0.00     0.170 HD
ENDROOT
BRANCH   1  14
HETATM   14  C   UNL     1       4.195   5.858   2.887  1.00  0.00     0.089 C 
HETATM   15  C   UNL     1       3.925   4.512   3.575  1.00  0.00     0.057 C 
HETATM   16  C   UNL     1       2.797   4.828   4.568  1.00  0.00     0.242 C 
HETATM   17  N   UNL     1       3.058   6.247   4.988  1.00  0.00    -0.074 N 
HETATM   18  H   UNL     1       2.163   6.764   5.053  1.00  0.00     0.277 HD
HETATM   19  H   UNL     1       3.431   6.274   5.953  1.00  0.00     0.277 HD
HETATM   20  C   UNL     1       4.000   6.885   4.009  1.00  0.00     0.245 C 
BRANCH  15  21
HETATM   21  C   UNL     1       3.579   3.401   2.613  1.00  0.00    -0.051 A 
HETATM   22  C   UNL     1       2.432   3.447   1.803  1.00  0.00     0.008 A 
HETATM   23  C   UNL     1       2.110   2.382   0.956  1.00  0.00     0.017 A 
HETATM   24  C   UNL     1       2.926   1.247   0.892  1.00  0.00     0.047 A 
HETATM   25  C   UNL     1       4.084   1.209   1.681  1.00  0.00     0.017 A 
HETATM   26  C   UNL     1       4.407   2.271   2.532  1.00  0.00     0.008 A 
BRANCH  24  27
HETATM   27  C   UNL     1       2.578   0.077  -0.006  1.00  0.00     0.417 C 
HETATM   28  F   UNL     1       1.362   0.205  -0.599  1.00  0.00    -0.166 F 
HETATM   29  F   UNL     1       2.555  -1.101   0.669  1.00  0.00    -0.166 F 
HETATM   30  F   UNL     1       3.480  -0.070  -1.012  1.00  0.00    -0.166 F 
ENDBRANCH  24  27
ENDBRANCH  15  21
ENDBRANCH   1  14
BRANCH   7  31
HETATM   31  C   UNL     1      10.630   6.811  -1.612  1.00  0.00     0.010 A 
HETATM   32  C   UNL     1      11.825   7.377  -1.108  1.00  0.00     0.152 A 
HETATM   33  N   UNL     1      12.804   7.402  -2.012  1.00  0.00    -0.187 NA
HETATM   34  N   UNL     1      12.250   6.853  -3.102  1.00  0.00    -0.289 N 
HETATM   35  H   UNL     1      12.820   6.761  -3.939  1.00  0.00     0.188 HD
HETATM   36  C   UNL     1      10.947   6.482  -2.913  1.00  0.00     0.123 A 
ENDBRANCH   7  31
TORSDOF 4
