REMARK  10 active torsions:
REMARK  status: ('A' for Active; 'I' for Inactive)
REMARK    1  A    between atoms: C_3  and  C_4 
REMARK    2  A    between atoms: C_4  and  C_5 
REMARK       I    between atoms: C_5  and  N_6 
REMARK    3  A    between atoms: N_6  and  C_7 
REMARK    4  A    between atoms: C_7  and  C_8 
REMARK    5  A    between atoms: C_8  and  O_9 
REMARK    6  A    between atoms: C_15  and  N_16 
REMARK       I    between atoms: N_16  and  C_17 
REMARK    7  A    between atoms: C_17  and  C_18 
REMARK    8  A    between atoms: C_26  and  C_27 
REMARK    9  A    between atoms: C_27  and  O_28 
REMARK   10  A    between atoms: C_30  and  O_31 
ROOT
HETATM    1  C   UNL     1      -1.341   2.349   1.273  1.00  0.00     0.016 C 
HETATM    2  C   UNL     1       0.112   2.039   0.764  1.00  0.00    -0.030 C 
HETATM    3  C   UNL     1       0.366   0.498   1.174  1.00  0.00     0.056 C 
HETATM    4  C   UNL     1       0.036  -0.433   0.026  1.00  0.00     0.056 A 
HETATM    5  C   UNL     1      -0.482  -0.037  -1.188  1.00  0.00     0.012 A 
HETATM    6  S   UNL     1      -0.753  -1.385  -2.195  1.00  0.00    -0.055 SA
HETATM    7  C   UNL     1      -0.081  -2.383  -0.985  1.00  0.00     0.173 A 
HETATM    8  N   UNL     1       0.288  -1.790   0.122  1.00  0.00    -0.227 NA
HETATM    9  C   UNL     1      -0.769   1.355  -1.598  1.00  0.00     0.055 C 
HETATM   10  C   UNL     1       0.118   2.349  -0.804  1.00  0.00     0.012 C 
HETATM   11  C   UNL     1       1.538   2.628  -1.449  1.00  0.00     0.008 C 
HETATM   12  C   UNL     1       1.359   3.193  -2.888  1.00  0.00     0.020 C 
HETATM   13  C   UNL     1       2.270   3.712  -0.606  1.00  0.00     0.128 C 
HETATM   14  C   UNL     1       2.379   3.329   0.866  1.00  0.00     0.033 C 
HETATM   15  C   UNL     1       1.013   3.067   1.502  1.00  0.00     0.013 C 
ENDROOT
BRANCH   3  16
HETATM   16  C   UNL     1       1.720   0.124   1.812  1.00  0.00     0.114 C 
BRANCH  16  17
HETATM   17  C   UNL     1       1.577  -0.782   3.026  1.00  0.00     0.218 C 
HETATM   18  N   UNL     1       1.205  -2.072   2.763  1.00  0.00    -0.359 N 
HETATM   19  H   UNL     1       0.947  -2.344   1.810  1.00  0.00     0.162 HD
HETATM   20  O   UNL     1       1.825  -0.372   4.159  1.00  0.00    -0.274 OA
BRANCH  18  21
HETATM   21  C   UNL     1       1.188  -3.101   3.786  1.00  0.00     0.148 C 
BRANCH  21  22
HETATM   22  C   UNL     1       0.032  -2.972   4.782  1.00  0.00     0.186 C 
BRANCH  22  23
HETATM   23  O   UNL     1      -1.194  -3.391   4.171  1.00  0.00    -0.394 OA
HETATM   24  C   UNL     1      -2.271  -3.348   5.097  1.00  0.00     0.201 C 
ENDBRANCH  22  23
ENDBRANCH  21  22
ENDBRANCH  18  21
ENDBRANCH  16  17
ENDBRANCH   3  16
BRANCH  11  25
HETATM   25  C   UNL     1       2.425   1.366  -1.569  1.00  0.00     0.176 C 
BRANCH  25  26
HETATM   26  O   UNL     1       3.697   1.691  -2.124  1.00  0.00    -0.400 OA
HETATM   27  H   UNL     1       4.215   0.866  -2.151  1.00  0.00     0.209 HD
ENDBRANCH  25  26
ENDBRANCH  11  25
BRANCH   7  28
HETATM   28  N   UNL     1       0.008  -3.698  -1.339  1.00  0.00    -0.305 N 
HETATM   29  C   UNL     1       0.634  -4.637  -0.549  1.00  0.00     0.227 C 
HETATM   30  O   UNL     1       1.178  -4.398   0.531  1.00  0.00    -0.273 OA
HETATM   31  H   UNL     1      -0.369  -3.947  -2.240  1.00  0.00     0.171 HD
BRANCH  29  32
HETATM   32  C   UNL     1       0.613  -6.057  -1.189  1.00  0.00     0.078 C 
HETATM   33  C   UNL     1       1.985  -6.754  -1.405  1.00  0.00     0.014 C 
HETATM   34  C   UNL     1       1.290  -8.084  -1.058  1.00  0.00     0.002 C 
HETATM   35  C   UNL     1       0.255  -7.257  -0.270  1.00  0.00     0.014 C 
ENDBRANCH  29  32
ENDBRANCH   7  28
BRANCH  13  36
HETATM   36  O   UNL     1       1.569   4.959  -0.671  1.00  0.00    -0.395 OA
HETATM   37  H   UNL     1       1.840   5.397  -1.497  1.00  0.00     0.210 HD
ENDBRANCH  13  36
TORSDOF 10
