REMARK  8 active torsions:
REMARK  status: ('A' for Active; 'I' for Inactive)
REMARK    1  A    between atoms: C_2  and  C_3 
REMARK    2  A    between atoms: C_3  and  S_4 
REMARK    3  A    between atoms: S_4  and  C_5 
REMARK    4  A    between atoms: N_6  and  C_7 
REMARK    5  A    between atoms: C_8  and  O_9 
REMARK    6  A    between atoms: C_15  and  C_16 
REMARK    7  A    between atoms: C_16  and  N_17 
REMARK       I    between atoms: N_17  and  C_18 
REMARK    8  A    between atoms: C_18  and  C_19 
ROOT
HETATM    1  C   UNL     1       5.575  -2.034  -2.539  1.00  0.00     0.196 A 
HETATM    2  N   UNL     1       6.029  -1.808  -3.826  1.00  0.00    -0.271 N 
HETATM    3  C   UNL     1       6.066  -3.075  -4.396  1.00  0.00     0.153 A 
HETATM    4  N   UNL     1       5.672  -3.971  -3.508  1.00  0.00    -0.132 NA
HETATM    5  N   UNL     1       5.353  -3.315  -2.350  1.00  0.00    -0.122 NA
ENDROOT
BRANCH   3   6
HETATM    6  C   UNL     1       6.591  -3.403  -5.746  1.00  0.00     0.204 C 
BRANCH   6   7
HETATM    7  N   UNL     1       8.013  -3.648  -5.647  1.00  0.00    -0.350 N 
HETATM    8  C   UNL     1       8.855  -3.336  -6.692  1.00  0.00     0.252 C 
HETATM    9  O   UNL     1       8.466  -2.749  -7.699  1.00  0.00    -0.268 OA
HETATM   10  H   UNL     1       8.306  -4.312  -4.943  1.00  0.00     0.163 HD
BRANCH   8  11
HETATM   11  C   UNL     1      10.277  -3.775  -6.583  1.00  0.00     0.032 A 
HETATM   12  C   UNL     1      10.873  -4.132  -5.365  1.00  0.00     0.023 A 
HETATM   13  C   UNL     1      12.209  -4.563  -5.326  1.00  0.00    -0.061 A 
HETATM   14  C   UNL     1      12.855  -4.931  -4.022  1.00  0.00     0.048 C 
HETATM   15  C   UNL     1      12.956  -4.592  -6.510  1.00  0.00     0.007 A 
HETATM   16  C   UNL     1      12.375  -4.217  -7.721  1.00  0.00     0.002 A 
HETATM   17  C   UNL     1      11.041  -3.812  -7.758  1.00  0.00     0.017 A 
ENDBRANCH   8  11
ENDBRANCH   6   7
ENDBRANCH   3   6
BRANCH   2  18
HETATM   18  C   UNL     1       6.313  -0.573  -4.458  1.00  0.00     0.076 A 
HETATM   19  C   UNL     1       7.225   0.334  -3.894  1.00  0.00     0.095 A 
HETATM   20  C   UNL     1       7.469   1.544  -4.554  1.00  0.00     0.039 A 
HETATM   21  C   UNL     1       6.803   1.853  -5.743  1.00  0.00     0.003 A 
HETATM   22  C   UNL     1       5.893   0.954  -6.290  1.00  0.00     0.002 A 
HETATM   23  C   UNL     1       5.645  -0.260  -5.652  1.00  0.00     0.033 A 
BRANCH  19  24
HETATM   24  O   UNL     1       7.924  -0.061  -2.785  1.00  0.00    -0.354 OA
HETATM   25  C   UNL     1       8.336   0.985  -1.909  1.00  0.00     0.210 C 
ENDBRANCH  19  24
ENDBRANCH   2  18
BRANCH   1  26
HETATM   26  S   UNL     1       5.123  -0.806  -1.398  1.00  0.00    -0.090 SA
BRANCH  26  27
HETATM   27  C   UNL     1       3.359  -0.646  -1.800  1.00  0.00     0.082 C 
BRANCH  27  28
HETATM   28  C   UNL     1       2.708   0.362  -0.858  1.00  0.00     0.006 C 
HETATM   29  C   UNL     1       1.242   0.574  -1.205  1.00  0.00     0.006 C 
ENDBRANCH  27  28
ENDBRANCH  26  27
ENDBRANCH   1  26
TORSDOF 8
