REMARK  3 active torsions:
REMARK  status: ('A' for Active; 'I' for Inactive)
REMARK    1  A    between atoms: C_7  and  C_8 
REMARK    2  A    between atoms: N_9  and  N_10 
REMARK       I    between atoms: N_10  and  C_11 
REMARK    3  A    between atoms: C_11  and  C_12 
ROOT
HETATM    1  N   UNL     1       2.953  -4.523   0.194  1.00  0.00    -0.242 N 
HETATM    2  C   UNL     1       1.706  -5.007   0.544  1.00  0.00     0.292 C 
HETATM    3  O   UNL     1       0.677  -4.391   0.773  1.00  0.00    -0.264 OA
HETATM    4  H   UNL     1       3.637  -5.201  -0.139  1.00  0.00     0.192 HD
ENDROOT
BRANCH   1   5
HETATM    5  N   UNL     1       3.341  -3.215   0.048  1.00  0.00    -0.183 NA
HETATM    6  C   UNL     1       2.588  -2.263   0.495  1.00  0.00     0.153 C 
BRANCH   6   7
HETATM    7  C   UNL     1       2.999  -0.876   0.340  1.00  0.00     0.018 A 
HETATM    8  C   UNL     1       2.219   0.205   0.736  1.00  0.00     0.018 A 
HETATM    9  C   UNL     1       0.869   0.257   1.358  1.00  0.00     0.069 C 
HETATM   10  N   UNL     1       2.915   1.351   0.448  1.00  0.00    -0.358 N 
HETATM   11  H   UNL     1       2.589   2.291   0.624  1.00  0.00     0.166 HD
HETATM   12  C   UNL     1       4.130   1.052  -0.118  1.00  0.00     0.043 A 
HETATM   13  C   UNL     1       4.213  -0.339  -0.204  1.00  0.00     0.004 A 
HETATM   14  C   UNL     1       5.149   1.906  -0.556  1.00  0.00     0.030 A 
HETATM   15  C   UNL     1       5.385  -0.898  -0.759  1.00  0.00     0.014 A 
HETATM   16  C   UNL     1       6.415  -0.059  -1.202  1.00  0.00     0.001 A 
HETATM   17  C   UNL     1       6.297   1.323  -1.100  1.00  0.00     0.002 A 
ENDBRANCH   6   7
ENDBRANCH   1   5
BRANCH   2  18
HETATM   18  C   UNL     1       1.697  -6.522   0.660  1.00  0.00     0.157 A 
HETATM   19  N   UNL     1       2.125  -7.187  -0.376  1.00  0.00    -0.166 NA
HETATM   20  N   UNL     1       2.123  -8.548  -0.302  1.00  0.00    -0.242 N 
HETATM   21  C   UNL     1       1.706  -9.301   0.771  1.00  0.00     0.272 A 
HETATM   22  H   UNL     1       2.425  -9.053  -1.131  1.00  0.00     0.192 HD
HETATM   23  O   UNL     1       1.713 -10.526   0.756  1.00  0.00    -0.266 OA
HETATM   24  C   UNL     1       1.259  -8.549   1.957  1.00  0.00     0.046 A 
HETATM   25  C   UNL     1       1.252  -7.157   1.915  1.00  0.00     0.016 A 
HETATM   26  C   UNL     1       0.862  -9.227   3.116  1.00  0.00     0.018 A 
HETATM   27  C   UNL     1       0.857  -6.433   3.047  1.00  0.00     0.015 A 
HETATM   28  C   UNL     1       0.462  -7.109   4.205  1.00  0.00     0.001 A 
HETATM   29  C   UNL     1       0.463  -8.503   4.239  1.00  0.00     0.001 A 
ENDBRANCH   2  18
TORSDOF 3
