REMARK  6 active torsions:
REMARK  status: ('A' for Active; 'I' for Inactive)
REMARK    1  A    between atoms: O_2  and  C_3 
REMARK    2  A    between atoms: C_4  and  C_5 
REMARK       I    between atoms: C_5  and  N_6 
REMARK    3  A    between atoms: N_6  and  C_7 
REMARK    4  A    between atoms: C_9  and  C_10 
REMARK    5  A    between atoms: C_10  and  C_11 
REMARK    6  A    between atoms: C_11  and  C_12 
ROOT
HETATM    1  C   UNL     1       1.705   0.259  -1.170  1.00  0.00     0.725 A 
HETATM    2  N   UNL     1       2.845  -0.148  -0.669  1.00  0.00    -0.046 NA
HETATM    3  C   UNL     1       2.847  -1.500  -0.886  1.00  0.00     0.166 A 
HETATM    4  N   UNL     1       1.760  -1.961  -1.519  1.00  0.00    -0.144 NA
HETATM    5  N   UNL     1       1.050  -0.831  -1.676  1.00  0.00    -0.106 N 
HETATM    6  H   UNL     1       0.150  -0.877  -2.134  1.00  0.00     0.208 HD
ENDROOT
BRANCH   1   7
HETATM    7  N   UNL     1       1.172   1.525  -1.216  1.00  0.00    -0.152 N 
HETATM    8  C   UNL     1       1.861   2.619  -0.718  1.00  0.00     0.272 C 
HETATM    9  O   UNL     1       2.982   2.637  -0.234  1.00  0.00    -0.267 OA
HETATM   10  H   UNL     1       0.241   1.651  -1.583  1.00  0.00     0.187 HD
BRANCH   8  11
HETATM   11  C   UNL     1       1.095   3.890  -0.800  1.00  0.00     0.066 A 
HETATM   12  C   UNL     1       0.965   4.741   0.306  1.00  0.00     0.084 A 
HETATM   13  C   UNL     1       0.292   5.959   0.170  1.00  0.00     0.038 A 
HETATM   14  C   UNL     1      -0.282   6.316  -1.051  1.00  0.00     0.003 A 
HETATM   15  C   UNL     1      -0.165   5.469  -2.151  1.00  0.00     0.001 A 
HETATM   16  C   UNL     1       0.529   4.262  -2.032  1.00  0.00     0.020 A 
BRANCH  12  17
HETATM   17  O   UNL     1       1.524   4.503   1.533  1.00  0.00    -0.355 OA
HETATM   18  C   UNL     1       0.847   3.465   2.239  1.00  0.00     0.210 C 
ENDBRANCH  12  17
ENDBRANCH   8  11
ENDBRANCH   1   7
BRANCH   3  19
HETATM   19  C   UNL     1       3.990  -2.349  -0.461  1.00  0.00     0.087 C 
BRANCH  19  20
HETATM   20  C   UNL     1       3.580  -3.747   0.001  1.00  0.00     0.048 C 
BRANCH  20  21
HETATM   21  C   UNL     1       4.710  -4.479   0.660  1.00  0.00    -0.030 A 
HETATM   22  C   UNL     1       5.843  -5.078   0.019  1.00  0.00    -0.002 A 
HETATM   23  C   UNL     1       6.653  -5.617   1.019  1.00  0.00     0.042 A 
HETATM   24  C   UNL     1       6.263  -5.200  -1.322  1.00  0.00     0.014 A 
HETATM   25  C   UNL     1       7.863  -6.267   0.749  1.00  0.00     0.030 A 
HETATM   26  N   UNL     1       6.030  -5.371   2.220  1.00  0.00    -0.365 N 
HETATM   27  C   UNL     1       8.258  -6.370  -0.588  1.00  0.00     0.002 A 
HETATM   28  C   UNL     1       7.471  -5.846  -1.611  1.00  0.00     0.001 A 
HETATM   29  H   UNL     1       6.393  -5.649   3.121  1.00  0.00     0.165 HD
HETATM   30  C   UNL     1       4.862  -4.688   2.017  1.00  0.00     0.096 A 
ENDBRANCH  20  21
ENDBRANCH  19  20
ENDBRANCH   3  19
TORSDOF 6
