REMARK  6 active torsions:
REMARK  status: ('A' for Active; 'I' for Inactive)
REMARK    1  A    between atoms: C_6  and  C_7 
REMARK    2  A    between atoms: C_7  and  N_8 
REMARK    3  A    between atoms: C_12  and  C_13 
REMARK    4  A    between atoms: C_13  and  C_14 
REMARK    5  A    between atoms: N_23  and  C_24 
REMARK    6  A    between atoms: C_24  and  C_25 
ROOT
HETATM    1  C   UNL     1       6.057  -4.207   1.401  1.00  0.00     0.149 C 
HETATM    2  N   UNL     1       5.100  -3.123   1.571  1.00  0.00    -0.220 NA
HETATM    3  C   UNL     1       3.818  -3.543   1.294  1.00  0.00     0.304 C 
HETATM    4  O   UNL     1       2.833  -2.893   1.595  1.00  0.00    -0.253 OA
HETATM    5  N   UNL     1       3.870  -4.747   0.674  1.00  0.00    -0.270 N 
HETATM    6  C   UNL     1       5.132  -5.262   0.755  1.00  0.00     0.257 C 
HETATM    7  O   UNL     1       5.493  -6.363   0.358  1.00  0.00    -0.270 OA
HETATM    8  H   UNL     1       5.157  -2.581   2.432  1.00  0.00     0.134 HD
ENDROOT
BRANCH   1   9
HETATM    9  C   UNL     1       7.237  -3.829   0.446  1.00  0.00     0.028 C 
HETATM   10  C   UNL     1       8.115  -2.660   0.937  1.00  0.00     0.035 C 
HETATM   11  C   UNL     1       7.478  -1.286   0.766  1.00  0.00     0.235 C 
HETATM   12  N   UNL     1       7.063  -1.076  -0.671  1.00  0.00    -0.067 N 
HETATM   13  H   UNL     1       7.925  -1.059  -1.229  1.00  0.00     0.280 HD
HETATM   14  C   UNL     1       6.179  -2.170  -1.216  1.00  0.00     0.235 C 
HETATM   15  C   UNL     1       6.831  -3.529  -1.014  1.00  0.00     0.035 C 
BRANCH  12  16
HETATM   16  C   UNL     1       6.397   0.276  -0.882  1.00  0.00     0.273 C 
BRANCH  16  17
HETATM   17  C   UNL     1       7.301   1.454  -0.620  1.00  0.00    -0.027 A 
HETATM   18  C   UNL     1       7.127   2.312   0.487  1.00  0.00    -0.054 A 
HETATM   19  C   UNL     1       8.004   3.398   0.660  1.00  0.00     0.014 A 
HETATM   20  C   UNL     1       6.012   2.134   1.484  1.00  0.00     0.049 C 
HETATM   21  C   UNL     1       9.041   3.648  -0.244  1.00  0.00    -0.061 A 
HETATM   22  C   UNL     1       9.961   4.820  -0.057  1.00  0.00     0.048 C 
HETATM   23  C   UNL     1       9.213   2.792  -1.332  1.00  0.00     0.007 A 
HETATM   24  C   UNL     1       8.353   1.709  -1.521  1.00  0.00     0.010 A 
ENDBRANCH  16  17
ENDBRANCH  12  16
ENDBRANCH   1   9
BRANCH   1  25
HETATM   25  C   UNL     1       6.551  -4.638   2.783  1.00  0.00     0.067 A 
HETATM   26  N   UNL     1       6.522  -3.661   3.740  1.00  0.00    -0.263 NA
HETATM   27  C   UNL     1       6.940  -3.991   4.985  1.00  0.00     0.117 A 
HETATM   28  C   UNL     1       7.413  -5.243   5.327  1.00  0.00     0.019 A 
HETATM   29  C   UNL     1       7.465  -6.218   4.338  1.00  0.00     0.003 A 
HETATM   30  C   UNL     1       7.036  -5.916   3.048  1.00  0.00     0.030 A 
ENDBRANCH   1  25
BRANCH   5  31
HETATM   31  C   UNL     1       2.715  -5.457   0.150  1.00  0.00     0.168 C 
BRANCH  31  32
HETATM   32  C   UNL     1       1.926  -4.619  -0.862  1.00  0.00     0.140 C 
HETATM   33  O   UNL     1       2.779  -4.163  -1.938  1.00  0.00    -0.384 OA
HETATM   34  C   UNL     1       1.998  -4.171  -3.149  1.00  0.00     0.168 C 
HETATM   35  C   UNL     1       0.586  -4.575  -2.778  1.00  0.00     0.029 C 
HETATM   36  C   UNL     1       0.804  -5.395  -1.531  1.00  0.00     0.036 C 
ENDBRANCH  31  32
ENDBRANCH   5  31
TORSDOF 6
