REMARK  5 active torsions:
REMARK  status: ('A' for Active; 'I' for Inactive)
REMARK    1  A    between atoms: C_7  and  C_8 
REMARK    2  A    between atoms: C_16  and  C_17 
REMARK    3  A    between atoms: C_20  and  O_21 
REMARK    4  A    between atoms: C_24  and  C_25 
REMARK       I    between atoms: C_25  and  N_26 
REMARK    5  A    between atoms: N_26  and  C_27 
ROOT
HETATM    1  C   UNL     1       1.047  -0.030   0.551  1.00  0.00     0.070 C 
HETATM    2  C   UNL     1       2.522  -0.090   0.242  1.00  0.00     0.037 C 
HETATM    3  N   UNL     1       3.192   1.130   0.223  1.00  0.00    -0.192 N 
HETATM    4  C   UNL     1       4.535   1.223   0.172  1.00  0.00     0.726 A 
HETATM    5  N   UNL     1       5.275   0.104  -0.089  1.00  0.00    -0.083 N 
HETATM    6  N   UNL     1       6.591   0.331   0.095  1.00  0.00    -0.135 NA
HETATM    7  C   UNL     1       6.596   1.650   0.366  1.00  0.00     0.199 A 
HETATM    8  N   UNL     1       5.337   2.225   0.411  1.00  0.00    -0.041 NA
HETATM    9  C   UNL     1       4.695  -1.225  -0.311  1.00  0.00     0.202 C 
HETATM   10  C   UNL     1       3.212  -1.237   0.026  1.00  0.00     0.062 C 
HETATM   11  H   UNL     1       2.659   1.957   0.480  1.00  0.00     0.184 HD
ENDROOT
BRANCH  10  12
HETATM   12  C   UNL     1       2.530  -2.558   0.069  1.00  0.00     0.256 C 
HETATM   13  N   UNL     1       3.071  -3.402   1.016  1.00  0.00    -0.323 N 
HETATM   14  H   UNL     1       3.849  -3.065   1.567  1.00  0.00     0.169 HD
HETATM   15  O   UNL     1       1.584  -2.776  -0.675  1.00  0.00    -0.267 OA
BRANCH  13  16
HETATM   16  C   UNL     1       2.630  -4.701   1.351  1.00  0.00     0.035 A 
HETATM   17  C   UNL     1       1.477  -5.292   0.835  1.00  0.00     0.029 A 
HETATM   18  C   UNL     1       1.097  -6.576   1.241  1.00  0.00     0.002 A 
HETATM   19  C   UNL     1       1.874  -7.283   2.155  1.00  0.00     0.000 A 
HETATM   20  C   UNL     1       3.031  -6.706   2.670  1.00  0.00     0.002 A 
HETATM   21  C   UNL     1       3.404  -5.418   2.275  1.00  0.00     0.029 A 
ENDBRANCH  13  16
ENDBRANCH  10  12
BRANCH   9  22
HETATM   22  C   UNL     1       4.988  -1.703  -1.729  1.00  0.00    -0.028 A 
HETATM   23  C   UNL     1       5.802  -2.831  -1.935  1.00  0.00     0.012 A 
HETATM   24  C   UNL     1       6.072  -3.291  -3.227  1.00  0.00     0.037 A 
HETATM   25  C   UNL     1       5.530  -2.623  -4.319  1.00  0.00     0.065 A 
HETATM   26  C   UNL     1       4.724  -1.506  -4.141  1.00  0.00     0.037 A 
HETATM   27  C   UNL     1       4.452  -1.046  -2.851  1.00  0.00     0.012 A 
BRANCH  25  28
HETATM   28  O   UNL     1       5.767  -3.038  -5.596  1.00  0.00    -0.361 OA
HETATM   29  H   UNL     1       6.331  -3.828  -5.566  1.00  0.00     0.217 HD
ENDBRANCH  25  28
ENDBRANCH   9  22
BRANCH   7  30
HETATM   30  C   UNL     1       7.804   2.414   0.667  1.00  0.00     0.016 A 
HETATM   31  C   UNL     1       9.062   1.794   0.683  1.00  0.00     0.039 A 
HETATM   32  C   UNL     1      10.202   2.532   1.003  1.00  0.00     0.035 A 
HETATM   33 CL   UNL     1      11.739   1.757   1.033  1.00  0.00    -0.084 Cl
HETATM   34  C   UNL     1      10.108   3.889   1.305  1.00  0.00     0.024 A 
HETATM   35  C   UNL     1       8.864   4.517   1.286  1.00  0.00     0.003 A 
HETATM   36  C   UNL     1       7.719   3.782   0.969  1.00  0.00     0.015 A 
ENDBRANCH   7  30
TORSDOF 5
