REMARK  4 active torsions:
REMARK  status: ('A' for Active; 'I' for Inactive)
REMARK    1  A    between atoms: C_7  and  C_8 
REMARK    2  A    between atoms: N_9  and  N_10 
REMARK       I    between atoms: N_10  and  C_11 
REMARK    3  A    between atoms: C_11  and  C_12 
REMARK    4  A    between atoms: C_12  and  C_13 
ROOT
HETATM    1  N   UNL     1       2.854  -4.308   0.001  1.00  0.00    -0.247 N 
HETATM    2  C   UNL     1       3.604  -5.459  -0.229  1.00  0.00     0.241 C 
HETATM    3  O   UNL     1       4.691  -5.483  -0.804  1.00  0.00    -0.271 OA
HETATM    4  H   UNL     1       2.082  -4.295   0.652  1.00  0.00     0.192 HD
ENDROOT
BRANCH   1   5
HETATM    5  N   UNL     1       3.249  -3.149  -0.559  1.00  0.00    -0.184 NA
HETATM    6  C   UNL     1       2.502  -2.088  -0.582  1.00  0.00     0.153 C 
BRANCH   6   7
HETATM    7  C   UNL     1       1.124  -1.836  -0.165  1.00  0.00     0.018 A 
HETATM    8  C   UNL     1       0.030  -2.675   0.048  1.00  0.00     0.018 A 
HETATM    9  C   UNL     1      -0.213  -4.137  -0.063  1.00  0.00     0.069 C 
HETATM   10  N   UNL     1      -1.048  -1.878   0.373  1.00  0.00    -0.358 N 
HETATM   11  H   UNL     1      -1.978  -2.220   0.572  1.00  0.00     0.166 HD
HETATM   12  C   UNL     1      -0.733  -0.550   0.280  1.00  0.00     0.043 A 
HETATM   13  C   UNL     1       0.621  -0.481  -0.025  1.00  0.00     0.004 A 
HETATM   14  C   UNL     1      -1.546   0.580   0.429  1.00  0.00     0.030 A 
HETATM   15  C   UNL     1       1.200   0.802  -0.168  1.00  0.00     0.014 A 
HETATM   16  C   UNL     1       0.404   1.946  -0.028  1.00  0.00     0.001 A 
HETATM   17  C   UNL     1      -0.952   1.833   0.261  1.00  0.00     0.002 A 
ENDBRANCH   6   7
ENDBRANCH   1   5
BRANCH   2  18
HETATM   18  C   UNL     1       2.925  -6.723   0.270  1.00  0.00     0.145 C 
BRANCH  18  19
HETATM   19  C   UNL     1       2.651  -7.722  -0.818  1.00  0.00    -0.021 A 
HETATM   20  C   UNL     1       2.096  -7.490  -2.124  1.00  0.00    -0.001 A 
HETATM   21  C   UNL     1       1.976  -8.730  -2.756  1.00  0.00     0.042 A 
HETATM   22  C   UNL     1       1.684  -6.346  -2.841  1.00  0.00     0.014 A 
HETATM   23  C   UNL     1       1.445  -8.883  -4.043  1.00  0.00     0.030 A 
HETATM   24  N   UNL     1       2.475  -9.674  -1.891  1.00  0.00    -0.365 N 
HETATM   25  C   UNL     1       1.023  -7.733  -4.715  1.00  0.00     0.002 A 
HETATM   26  C   UNL     1       1.145  -6.480  -4.126  1.00  0.00     0.001 A 
HETATM   27  H   UNL     1       2.539 -10.661  -2.099  1.00  0.00     0.165 HD
HETATM   28  C   UNL     1       2.868  -9.085  -0.721  1.00  0.00     0.097 A 
ENDBRANCH  18  19
ENDBRANCH   2  18
TORSDOF 4
