REMARK  4 active torsions:
REMARK  status: ('A' for Active; 'I' for Inactive)
REMARK    1  A    between atoms: C_2  and  N_3 
REMARK    2  A    between atoms: C_11  and  N_12 
REMARK    3  A    between atoms: N_12  and  C_15 
REMARK    4  A    between atoms: C_15  and  C_16 
ROOT
HETATM    1  N   UNL     1       2.945  -0.597  -1.138  1.00  0.00    -0.067 N 
HETATM    2  H   UNL     1       2.654  -0.262  -2.070  1.00  0.00     0.280 HD
HETATM    3  C   UNL     1       4.437  -0.850  -1.264  1.00  0.00     0.238 C 
HETATM    4  C   UNL     1       4.967  -1.545  -0.013  1.00  0.00     0.066 C 
HETATM    5  C   UNL     1       4.241  -2.880   0.290  1.00  0.00     0.073 C 
HETATM    6  O   UNL     1       4.517  -3.737  -0.823  1.00  0.00    -0.339 OA
HETATM    7  C   UNL     1       4.543  -5.087  -0.635  1.00  0.00     0.078 A 
HETATM    8  C   UNL     1       4.551  -5.718   0.613  1.00  0.00     0.006 A 
HETATM    9  C   UNL     1       4.479  -4.923   1.881  1.00  0.00     0.224 C 
HETATM   10  C   UNL     1       4.815  -3.450   1.607  1.00  0.00     0.076 C 
HETATM   11  C   UNL     1       4.616  -5.838  -1.811  1.00  0.00     0.037 A 
HETATM   12  C   UNL     1       4.699  -7.227  -1.756  1.00  0.00     0.003 A 
HETATM   13  C   UNL     1       4.732  -7.868  -0.524  1.00  0.00     0.001 A 
HETATM   14  C   UNL     1       4.669  -7.120   0.653  1.00  0.00     0.012 A 
HETATM   15  C   UNL     1       2.720  -2.625   0.315  1.00  0.00     0.066 C 
HETATM   16  C   UNL     1       2.237  -1.920  -0.956  1.00  0.00     0.238 C 
ENDROOT
BRANCH   9  17
HETATM   17  N   UNL     1       3.146  -5.011   2.567  1.00  0.00    -0.063 N 
HETATM   18  H   UNL     1       3.021  -4.219   3.209  1.00  0.00     0.278 HD
HETATM   19  H   UNL     1       2.385  -4.970   1.883  1.00  0.00     0.278 HD
BRANCH  17  20
HETATM   20  C   UNL     1       2.880  -6.229   3.403  1.00  0.00     0.274 C 
BRANCH  20  21
HETATM   21  C   UNL     1       1.624  -6.007   4.153  1.00  0.00     0.004 A 
HETATM   22  C   UNL     1       1.457  -5.483   5.422  1.00  0.00     0.122 A 
HETATM   23  N   UNL     1       0.108  -5.456   5.652  1.00  0.00    -0.285 N 
HETATM   24  C   UNL     1      -0.574  -5.037   6.856  1.00  0.00     0.179 C 
HETATM   25  N   UNL     1      -0.606  -5.848   4.584  1.00  0.00    -0.185 NA
HETATM   26  C   UNL     1       0.306  -6.255   3.707  1.00  0.00     0.149 A 
ENDBRANCH  20  21
ENDBRANCH  17  20
ENDBRANCH   9  17
BRANCH   1  27
HETATM   27  C   UNL     1       2.539   0.540  -0.182  1.00  0.00     0.180 C 
HETATM   28  C   UNL     1       1.017   0.688  -0.141  1.00  0.00     0.039 C 
HETATM   29  C   UNL     1       3.159   1.859  -0.646  1.00  0.00     0.039 C 
ENDBRANCH   1  27
TORSDOF 4
