REMARK  8 active torsions:
REMARK  status: ('A' for Active; 'I' for Inactive)
REMARK    1  A    between atoms: C_3  and  N_4 
REMARK       I    between atoms: N_4  and  C_5 
REMARK       I    between atoms: C_5  and  N_6 
REMARK       I    between atoms: N_6  and  C_7 
REMARK    2  A    between atoms: C_7  and  C_8 
REMARK    3  A    between atoms: C_8  and  N_9 
REMARK    4  A    between atoms: N_9  and  C_11 
REMARK    5  A    between atoms: N_9  and  C_17 
REMARK    6  A    between atoms: C_11  and  C_12 
REMARK    7  A    between atoms: C_17  and  C_18 
REMARK    8  A    between atoms: C_19  and  O_20 
ROOT
HETATM    1  N   UNL     1       2.249  -1.265   0.775  1.00  0.00    -0.053 N 
HETATM    2  H   UNL     1       2.492  -2.260   0.668  1.00  0.00     0.281 HD
ENDROOT
BRANCH   1   3
HETATM    3  C   UNL     1       3.512  -0.644   1.368  1.00  0.00     0.338 C 
BRANCH   3   4
HETATM    4  C   UNL     1       3.889  -1.230   2.728  1.00  0.00     0.251 C 
HETATM    5  N   UNL     1       4.496  -0.337   3.586  1.00  0.00    -0.278 N 
HETATM    6  C   UNL     1       4.623  -0.430   4.948  1.00  0.00     0.323 C 
HETATM    7  H   UNL     1       4.612   0.629   3.306  1.00  0.00     0.173 HD
HETATM    8  N   UNL     1       4.393  -1.651   5.498  1.00  0.00    -0.338 N 
HETATM    9  O   UNL     1       4.887   0.591   5.573  1.00  0.00    -0.247 OA
HETATM   10  H   UNL     1       4.277  -2.434   4.862  1.00  0.00     0.164 HD
HETATM   11  O   UNL     1       3.681  -2.420   2.969  1.00  0.00    -0.271 OA
BRANCH   8  12
HETATM   12  C   UNL     1       4.515  -1.961   6.922  1.00  0.00     0.089 C 
HETATM   13  C   UNL     1       3.541  -1.157   7.817  1.00  0.00     0.004 C 
HETATM   14  C   UNL     1       2.080  -1.373   7.407  1.00  0.00     0.012 C 
HETATM   15  C   UNL     1       3.725  -1.538   9.296  1.00  0.00     0.006 C 
HETATM   16  C   UNL     1       5.175  -1.388   9.749  1.00  0.00     0.001 C 
HETATM   17  C   UNL     1       6.122  -2.196   8.869  1.00  0.00     0.002 C 
HETATM   18  C   UNL     1       5.969  -1.823   7.398  1.00  0.00     0.026 C 
ENDBRANCH   8  12
ENDBRANCH   3   4
ENDBRANCH   1   3
BRANCH   1  19
HETATM   19  C   UNL     1       1.045  -1.260   1.693  1.00  0.00     0.300 C 
BRANCH  19  20
HETATM   20  C   UNL     1       0.594   0.086   2.131  1.00  0.00     0.078 A 
HETATM   21  O   UNL     1       1.474   0.810   2.883  1.00  0.00    -0.325 OA
HETATM   22  C   UNL     1       0.866   1.985   3.190  1.00  0.00     0.142 A 
HETATM   23  C   UNL     1      -0.393   2.029   2.640  1.00  0.00     0.027 A 
HETATM   24  C   UNL     1      -0.573   0.801   1.958  1.00  0.00     0.036 A 
ENDBRANCH  19  20
ENDBRANCH   1  19
BRANCH   1  25
HETATM   25  C   UNL     1       1.953  -0.736  -0.606  1.00  0.00     0.277 C 
BRANCH  25  26
HETATM   26  C   UNL     1       2.027  -1.804  -1.660  1.00  0.00     0.001 A 
HETATM   27  C   UNL     1       3.254  -2.183  -2.217  1.00  0.00     0.073 A 
HETATM   28  C   UNL     1       3.329  -3.167  -3.200  1.00  0.00     0.037 A 
HETATM   29  C   UNL     1       2.163  -3.793  -3.635  1.00  0.00     0.003 A 
HETATM   30  C   UNL     1       0.932  -3.438  -3.085  1.00  0.00     0.001 A 
HETATM   31  C   UNL     1       0.863  -2.451  -2.100  1.00  0.00     0.011 A 
BRANCH  27  32
HETATM   32  O   UNL     1       4.391  -1.569  -1.772  1.00  0.00    -0.360 OA
HETATM   33  H   UNL     1       5.131  -1.848  -2.347  1.00  0.00     0.217 HD
ENDBRANCH  27  32
ENDBRANCH  25  26
ENDBRANCH   1  25
TORSDOF 8
