REMARK  9 active torsions:
REMARK  status: ('A' for Active; 'I' for Inactive)
REMARK    1  A    between atoms: C_4  and  C_5 
REMARK    2  A    between atoms: C_7  and  O_8 
REMARK    3  A    between atoms: C_10  and  O_11 
REMARK    4  A    between atoms: C_16  and  C_17 
REMARK    5  A    between atoms: C_20  and  C_21 
REMARK    6  A    between atoms: C_21  and  N_22 
REMARK    7  A    between atoms: N_22  and  C_23 
REMARK    8  A    between atoms: C_23  and  N_24 
REMARK    9  A    between atoms: N_24  and  C_25 
ROOT
HETATM    1  C   UNL     1       2.703  -2.374   0.814  1.00  0.00     0.067 C 
HETATM    2  C   UNL     1       2.526  -3.627  -0.072  1.00  0.00     0.001 C 
HETATM    3  C   UNL     1       1.115  -3.719  -0.699  1.00  0.00     0.040 C 
HETATM    4  C   UNL     1       0.021  -3.780   0.383  1.00  0.00     0.206 C 
HETATM    5  N   UNL     1       0.705  -3.535   1.720  1.00  0.00    -0.065 N 
HETATM    6  H   UNL     1      -0.048  -3.487   2.427  1.00  0.00     0.280 HD
HETATM    7  C   UNL     1       1.473  -2.230   1.739  1.00  0.00     0.246 C 
HETATM    8  C   UNL     1       2.629  -4.845   0.891  1.00  0.00     0.033 C 
HETATM    9  C   UNL     1       1.621  -4.701   2.045  1.00  0.00     0.236 C 
ENDROOT
BRANCH   4  10
HETATM   10  C   UNL     1      -1.149  -2.799   0.122  1.00  0.00     0.155 C 
BRANCH  10  11
HETATM   11  N   UNL     1      -1.810  -2.228   1.298  1.00  0.00    -0.365 N 
HETATM   12  H   UNL     1      -1.970  -1.225   1.247  1.00  0.00     0.161 HD
BRANCH  11  13
HETATM   13  C   UNL     1      -2.688  -2.862   2.137  1.00  0.00     0.172 C 
HETATM   14  S   UNL     1      -2.555  -4.456   2.603  1.00  0.00    -0.041 SA
BRANCH  13  15
HETATM   15  N   UNL     1      -3.624  -2.064   2.732  1.00  0.00    -0.333 N 
HETATM   16  H   UNL     1      -4.059  -2.462   3.560  1.00  0.00     0.168 HD
BRANCH  15  17
HETATM   17  C   UNL     1      -4.269  -0.899   2.228  1.00  0.00     0.045 A 
HETATM   18  C   UNL     1      -4.916  -0.004   3.128  1.00  0.00     0.001 A 
HETATM   19  C   UNL     1      -5.597   1.121   2.592  1.00  0.00    -0.024 A 
HETATM   20  C   UNL     1      -4.904  -0.142   4.539  1.00  0.00     0.014 A 
HETATM   21  C   UNL     1      -6.240   2.033   3.444  1.00  0.00     0.012 A 
HETATM   22  C   UNL     1      -5.629   1.329   1.207  1.00  0.00     0.012 A 
HETATM   23  C   UNL     1      -6.219   1.860   4.826  1.00  0.00     0.001 A 
HETATM   24  C   UNL     1      -5.549   0.775   5.374  1.00  0.00     0.001 A 
HETATM   25  C   UNL     1      -5.012   0.436   0.337  1.00  0.00     0.003 A 
HETATM   26  C   UNL     1      -4.345  -0.674   0.844  1.00  0.00     0.030 A 
ENDBRANCH  15  17
ENDBRANCH  13  15
ENDBRANCH  11  13
ENDBRANCH  10  11
ENDBRANCH   4  10
BRANCH   1  27
HETATM   27  C   UNL     1       3.105  -1.041   0.246  1.00  0.00     0.038 C 
HETATM   28  N   UNL     1       2.955  -0.489  -1.004  1.00  0.00    -0.277 N 
HETATM   29  C   UNL     1       2.501  -1.059  -2.249  1.00  0.00     0.179 C 
HETATM   30  N   UNL     1       3.264   0.819  -1.042  1.00  0.00    -0.172 NA
HETATM   31  C   UNL     1       3.804   1.105   0.147  1.00  0.00     0.089 C 
HETATM   32  C   UNL     1       3.732  -0.038   0.976  1.00  0.00     0.061 C 
BRANCH  31  33
HETATM   33  C   UNL     1       4.319   2.438   0.478  1.00  0.00    -0.003 A 
HETATM   34  C   UNL     1       4.011   3.543  -0.332  1.00  0.00     0.053 A 
HETATM   35  C   UNL     1       4.467   4.827  -0.006  1.00  0.00     0.102 A 
HETATM   36  C   UNL     1       5.246   5.019   1.152  1.00  0.00     0.101 A 
HETATM   37  C   UNL     1       5.570   3.920   1.950  1.00  0.00     0.040 A 
HETATM   38  C   UNL     1       5.110   2.642   1.616  1.00  0.00     0.017 A 
BRANCH  35  39
HETATM   39  O   UNL     1       4.195   5.956  -0.740  1.00  0.00    -0.353 OA
HETATM   40  C   UNL     1       3.491   5.797  -1.963  1.00  0.00     0.210 C 
ENDBRANCH  35  39
BRANCH  36  41
HETATM   41  O   UNL     1       5.645   6.307   1.408  1.00  0.00    -0.353 OA
HETATM   42  C   UNL     1       6.357   6.553   2.612  1.00  0.00     0.210 C 
ENDBRANCH  36  41
ENDBRANCH  31  33
ENDBRANCH   1  27
TORSDOF 9
