REMARK  7 active torsions:
REMARK  status: ('A' for Active; 'I' for Inactive)
REMARK    1  A    between atoms: C_5  and  C_6 
REMARK    2  A    between atoms: C_6  and  C_7 
REMARK    3  A    between atoms: C_7  and  N_8 
REMARK       I    between atoms: N_8  and  C_9 
REMARK       I    between atoms: C_9  and  N_10 
REMARK    4  A    between atoms: N_10  and  N_11 
REMARK       I    between atoms: N_11  and  C_12 
REMARK    5  A    between atoms: C_12  and  C_13 
REMARK    6  A    between atoms: C_13  and  O_14 
REMARK    7  A    between atoms: O_14  and  C_15 
ROOT
HETATM    1  N   UNL     1       8.062  -1.808  -0.338  1.00  0.00    -0.341 N 
HETATM    2  C   UNL     1       9.332  -1.310  -0.424  1.00  0.00     0.334 C 
HETATM    3  N   UNL     1       9.424   0.051  -0.607  1.00  0.00    -0.249 N 
HETATM    4  O   UNL     1      10.347  -1.996  -0.358  1.00  0.00    -0.246 OA
HETATM    5  H   UNL     1       7.424  -1.264  -0.912  1.00  0.00     0.164 HD
HETATM    6  H   UNL     1      10.373   0.408  -0.635  1.00  0.00     0.192 HD
ENDROOT
BRANCH   3   7
HETATM    7  N   UNL     1       8.394   0.968  -0.300  1.00  0.00    -0.264 N 
HETATM    8  C   UNL     1       7.270   1.055  -1.108  1.00  0.00     0.260 C 
HETATM    9  O   UNL     1       6.953   0.198  -1.933  1.00  0.00    -0.269 OA
HETATM   10  H   UNL     1       8.677   1.790   0.228  1.00  0.00     0.190 HD
BRANCH   8  11
HETATM   11  C   UNL     1       6.395   2.263  -0.811  1.00  0.00     0.280 C 
BRANCH  11  12
HETATM   12  O   UNL     1       7.100   3.436  -1.210  1.00  0.00    -0.342 OA
BRANCH  12  13
HETATM   13  C   UNL     1       6.274   4.482  -1.526  1.00  0.00     0.069 A 
HETATM   14  C   UNL     1       5.167   4.851  -0.759  1.00  0.00     0.038 A 
HETATM   15  C   UNL     1       4.379   5.937  -1.151  1.00  0.00     0.022 A 
HETATM   16  C   UNL     1       4.709   6.654  -2.300  1.00  0.00     0.011 A 
HETATM   17 BR   UNL     1       3.637   8.117  -2.832  1.00  0.00    -0.051 Br
HETATM   18  C   UNL     1       5.826   6.303  -3.055  1.00  0.00     0.022 A 
HETATM   19  C   UNL     1       6.615   5.220  -2.660  1.00  0.00     0.038 A 
ENDBRANCH  12  13
ENDBRANCH  11  12
ENDBRANCH   8  11
ENDBRANCH   3   7
BRANCH   1  20
HETATM   20  C   UNL     1       7.820  -3.240  -0.365  1.00  0.00     0.130 C 
BRANCH  20  21
HETATM   21  C   UNL     1       8.205  -3.958   0.928  1.00  0.00     0.079 C 
BRANCH  21  22
HETATM   22  C   UNL     1       7.882  -5.416   0.852  1.00  0.00     0.043 A 
HETATM   23  C   UNL     1       8.759  -6.439   0.548  1.00  0.00     0.078 A 
HETATM   24  S   UNL     1       7.937  -7.942   0.560  1.00  0.00    -0.085 SA
HETATM   25  C   UNL     1       6.478  -7.127   0.956  1.00  0.00     0.071 A 
HETATM   26  C   UNL     1       5.216  -7.892   1.144  1.00  0.00     0.078 C 
HETATM   27  N   UNL     1       6.576  -5.821   1.083  1.00  0.00    -0.251 NA
ENDBRANCH  21  22
ENDBRANCH  20  21
ENDBRANCH   1  20
TORSDOF 7
