REMARK  3 active torsions:
REMARK  status: ('A' for Active; 'I' for Inactive)
REMARK    1  A    between atoms: C_8  and  C_9 
REMARK    2  A    between atoms: C_14  and  C_15 
REMARK    3  A    between atoms: C_16  and  O_17 
ROOT
HETATM    1  C   UNL     1       2.740  -2.416   0.017  1.00  0.00     0.143 A 
HETATM    2  N   UNL     1       3.449  -3.456  -0.359  1.00  0.00    -0.223 NA
HETATM    3  C   UNL     1       2.698  -4.589  -0.074  1.00  0.00     0.149 A 
HETATM    4  C   UNL     1       1.478  -4.206   0.465  1.00  0.00     0.046 A 
HETATM    5  C   UNL     1       0.266  -4.914   0.961  1.00  0.00     0.070 C 
HETATM    6  C   UNL     1       0.324  -6.447   1.069  1.00  0.00     0.045 C 
HETATM    7  C   UNL     1       1.718  -7.006   1.382  1.00  0.00     0.132 C 
HETATM    8  N   UNL     1       2.641  -7.010   0.266  1.00  0.00    -0.355 N 
HETATM    9  C   UNL     1       3.208  -5.933  -0.364  1.00  0.00     0.272 C 
HETATM   10  O   UNL     1       4.126  -6.143  -1.156  1.00  0.00    -0.266 OA
HETATM   11  N   UNL     1       1.531  -2.830   0.500  1.00  0.00    -0.341 N 
HETATM   12  H   UNL     1       0.803  -2.220   0.837  1.00  0.00     0.167 HD
HETATM   13  H   UNL     1       3.074  -7.886   0.002  1.00  0.00     0.162 HD
ENDROOT
BRANCH   1  14
HETATM   14  C   UNL     1       3.205  -1.006  -0.070  1.00  0.00     0.059 A 
HETATM   15  C   UNL     1       2.537   0.137   0.329  1.00  0.00     0.040 A 
HETATM   16  C   UNL     1       1.216   0.394   0.946  1.00  0.00     0.071 C 
HETATM   17  N   UNL     1       3.394   1.167   0.043  1.00  0.00    -0.281 N 
HETATM   18  H   UNL     1       3.252   2.160   0.198  1.00  0.00     0.189 HD
HETATM   19  N   UNL     1       4.553   0.782  -0.503  1.00  0.00    -0.179 NA
HETATM   20  C   UNL     1       4.451  -0.552  -0.577  1.00  0.00     0.067 A 
HETATM   21  C   UNL     1       5.566  -1.356  -1.138  1.00  0.00     0.073 C 
ENDBRANCH   1  14
BRANCH   6  22
HETATM   22  C   UNL     1      -0.369  -7.201  -0.068  1.00  0.00    -0.019 A 
HETATM   23  C   UNL     1      -1.229  -8.287   0.211  1.00  0.00     0.074 A 
HETATM   24  C   UNL     1      -1.835  -8.988  -0.839  1.00  0.00     0.037 A 
HETATM   25  C   UNL     1      -1.604  -8.617  -2.164  1.00  0.00     0.003 A 
HETATM   26  C   UNL     1      -0.763  -7.547  -2.449  1.00  0.00     0.001 A 
HETATM   27  C   UNL     1      -0.150  -6.845  -1.410  1.00  0.00     0.010 A 
BRANCH  23  28
HETATM   28  O   UNL     1      -1.395  -8.609   1.535  1.00  0.00    -0.355 OA
HETATM   29  C   UNL     1      -2.524  -9.410   1.866  1.00  0.00     0.210 C 
ENDBRANCH  23  28
ENDBRANCH   6  22
TORSDOF 3
