REMARK  8 active torsions:
REMARK  status: ('A' for Active; 'I' for Inactive)
REMARK    1  A    between atoms: C_5  and  N_6 
REMARK       I    between atoms: N_6  and  C_7 
REMARK    2  A    between atoms: C_7  and  C_8 
REMARK    3  A    between atoms: C_8  and  N_9 
REMARK    4  A    between atoms: N_12  and  C_13 
REMARK    5  A    between atoms: C_13  and  C_14 
REMARK    6  A    between atoms: C_17  and  C_18 
REMARK       I    between atoms: C_18  and  N_19 
REMARK    7  A    between atoms: N_19  and  C_20 
REMARK    8  A    between atoms: C_20  and  C_21 
ROOT
HETATM    1  N   UNL     1       5.817  -2.319   0.339  1.00  0.00    -0.290 N 
HETATM    2  C   UNL     1       5.668  -1.042   0.867  1.00  0.00     0.332 C 
HETATM    3  O   UNL     1       6.626  -0.268   0.913  1.00  0.00    -0.246 OA
HETATM    4  N   UNL     1       4.402  -0.685   1.306  1.00  0.00    -0.261 N 
HETATM    5  C   UNL     1       3.306  -1.538   1.310  1.00  0.00     0.264 C 
HETATM    6  O   UNL     1       2.150  -1.180   1.525  1.00  0.00    -0.267 OA
HETATM    7  C   UNL     1       3.562  -2.948   0.981  1.00  0.00     0.059 A 
HETATM    8  C   UNL     1       4.803  -3.307   0.458  1.00  0.00     0.055 A 
HETATM    9  C   UNL     1       2.533  -3.891   1.124  1.00  0.00     0.019 A 
HETATM   10  C   UNL     1       2.744  -5.213   0.745  1.00  0.00     0.001 A 
HETATM   11  C   UNL     1       3.975  -5.587   0.216  1.00  0.00     0.002 A 
HETATM   12  C   UNL     1       4.997  -4.641   0.070  1.00  0.00     0.031 A 
ENDROOT
BRANCH   4  13
HETATM   13  C   UNL     1       4.141   0.731   1.535  1.00  0.00     0.175 C 
BRANCH  13  14
HETATM   14  C   UNL     1       3.861   1.102   2.975  1.00  0.00    -0.040 A 
HETATM   15  C   UNL     1       4.902   1.260   3.900  1.00  0.00     0.010 A 
HETATM   16  C   UNL     1       4.635   1.708   5.202  1.00  0.00     0.017 A 
HETATM   17  C   UNL     1       3.320   1.989   5.598  1.00  0.00     0.032 A 
HETATM   18  C   UNL     1       2.279   1.808   4.681  1.00  0.00     0.017 A 
HETATM   19  C   UNL     1       2.546   1.364   3.386  1.00  0.00     0.010 A 
BRANCH  17  20
HETATM   20  C   UNL     1       2.972   2.543   6.939  1.00  0.00     0.251 C 
HETATM   21  N   UNL     1       3.864   2.319   7.963  1.00  0.00    -0.353 N 
HETATM   22  H   UNL     1       4.642   1.690   7.838  1.00  0.00     0.163 HD
HETATM   23  O   UNL     1       1.920   3.154   7.090  1.00  0.00    -0.268 OA
BRANCH  21  24
HETATM   24  C   UNL     1       3.621   2.817   9.300  1.00  0.00     0.161 C 
BRANCH  24  25
HETATM   25  C   UNL     1       3.521   1.689  10.296  1.00  0.00    -0.038 A 
HETATM   26  C   UNL     1       4.409   1.619  11.381  1.00  0.00     0.048 A 
HETATM   27  C   UNL     1       4.260   0.582  12.278  1.00  0.00     0.105 A 
HETATM   28  C   UNL     1       3.278  -0.369  12.132  1.00  0.00     0.105 A 
HETATM   29  O   UNL     1       5.028   0.371  13.380  1.00  0.00    -0.323 OA
HETATM   30  O   UNL     1       3.305  -1.299  13.124  1.00  0.00    -0.323 OA
HETATM   31  C   UNL     1       2.386  -0.335  11.083  1.00  0.00     0.040 A 
HETATM   32  C   UNL     1       4.405  -0.813  13.921  1.00  0.00     0.352 A 
HETATM   33  C   UNL     1       2.509   0.709  10.161  1.00  0.00     0.012 A 
ENDBRANCH  24  25
ENDBRANCH  21  24
ENDBRANCH  17  20
ENDBRANCH  13  14
ENDBRANCH   4  13
BRANCH   1  34
HETATM   34  C   UNL     1       6.994  -2.579  -0.500  1.00  0.00     0.237 C 
BRANCH  34  35
HETATM   35  C   UNL     1       8.104  -3.439   0.104  1.00  0.00     0.240 C 
HETATM   36  N   UNL     1       8.379  -3.170   1.430  1.00  0.00    -0.326 N 
HETATM   37  H   UNL     1       7.819  -2.448   1.868  1.00  0.00     0.169 HD
HETATM   38  O   UNL     1       8.730  -4.205  -0.626  1.00  0.00    -0.271 OA
BRANCH  36  39
HETATM   39  C   UNL     1       9.391  -3.754   2.223  1.00  0.00     0.034 A 
HETATM   40  C   UNL     1      10.280  -4.727   1.763  1.00  0.00     0.030 A 
HETATM   41  C   UNL     1      11.269  -5.250   2.604  1.00  0.00     0.009 A 
HETATM   42  C   UNL     1      11.390  -4.805   3.922  1.00  0.00    -0.062 A 
HETATM   43  C   UNL     1      12.437  -5.378   4.830  1.00  0.00     0.048 C 
HETATM   44  C   UNL     1      10.489  -3.845   4.393  1.00  0.00     0.009 A 
HETATM   45  C   UNL     1       9.502  -3.321   3.549  1.00  0.00     0.030 A 
ENDBRANCH  36  39
ENDBRANCH  34  35
ENDBRANCH   1  34
TORSDOF 8
