REMARK  9 active torsions:
REMARK  status: ('A' for Active; 'I' for Inactive)
REMARK    1  A    between atoms: C_2  and  C_3 
REMARK    2  A    between atoms: C_3  and  C_4 
REMARK    3  A    between atoms: C_4  and  N_5 
REMARK    4  A    between atoms: C_14  and  C_15 
REMARK    5  A    between atoms: C_15  and  C_16 
REMARK    6  A    between atoms: C_16  and  C_17 
REMARK       I    between atoms: C_17  and  N_18 
REMARK    7  A    between atoms: N_18  and  C_19 
REMARK    8  A    between atoms: N_32  and  C_33 
REMARK    9  A    between atoms: C_33  and  C_34 
ROOT
HETATM    1  N   UNL     1       6.050  -5.714  -0.901  1.00  0.00    -0.282 N 
HETATM    2  C   UNL     1       6.824  -4.801  -1.615  1.00  0.00     0.331 A 
HETATM    3  O   UNL     1       8.005  -4.982  -1.907  1.00  0.00    -0.246 OA
HETATM    4  N   UNL     1       6.205  -3.638  -2.028  1.00  0.00    -0.273 N 
HETATM    5  C   UNL     1       4.894  -3.270  -1.831  1.00  0.00     0.280 A 
HETATM    6  O   UNL     1       4.427  -2.236  -2.292  1.00  0.00    -0.265 OA
HETATM    7  C   UNL     1       4.163  -4.237  -1.083  1.00  0.00     0.151 A 
HETATM    8  C   UNL     1       4.727  -5.406  -0.662  1.00  0.00     0.168 A 
HETATM    9  N   UNL     1       3.825  -6.196  -0.026  1.00  0.00    -0.215 NA
HETATM   10  C   UNL     1       2.720  -5.472   0.054  1.00  0.00     0.109 A 
HETATM   11  N   UNL     1       2.877  -4.264  -0.609  1.00  0.00    -0.327 N 
HETATM   12  H   UNL     1       6.785  -2.991  -2.543  1.00  0.00     0.173 HD
ENDROOT
BRANCH  10  13
HETATM   13  C   UNL     1       1.463  -5.906   0.750  1.00  0.00     0.088 C 
BRANCH  13  14
HETATM   14  C   UNL     1       1.414  -7.414   0.994  1.00  0.00     0.110 C 
BRANCH  14  15
HETATM   15  C   UNL     1       0.999  -8.199  -0.237  1.00  0.00     0.218 C 
HETATM   16  N   UNL     1       1.813  -8.040  -1.340  1.00  0.00    -0.356 N 
HETATM   17  H   UNL     1       2.733  -7.666  -1.084  1.00  0.00     0.162 HD
HETATM   18  O   UNL     1      -0.008  -8.897  -0.238  1.00  0.00    -0.274 OA
BRANCH  16  19
HETATM   19  C   UNL     1       1.802  -8.906  -2.515  1.00  0.00     0.089 C 
HETATM   20  C   UNL     1       2.534  -8.241  -3.690  1.00  0.00     0.063 C 
HETATM   21  C   UNL     1       1.719  -7.190  -4.464  1.00  0.00     0.121 C 
HETATM   22  C   UNL     1       1.612  -5.842  -3.744  1.00  0.00     0.046 C 
HETATM   23  C   UNL     1       2.392  -6.930  -5.828  1.00  0.00     0.046 C 
HETATM   24  N   UNL     1       0.338  -7.723  -4.781  1.00  0.00    -0.059 N 
HETATM   25  H   UNL     1       0.438  -8.373  -5.574  1.00  0.00     0.279 HD
HETATM   26  H   UNL     1      -0.241  -6.958  -5.156  1.00  0.00     0.279 HD
HETATM   27  C   UNL     1      -0.458  -8.455  -3.717  1.00  0.00     0.121 C 
HETATM   28  C   UNL     1      -1.562  -9.228  -4.473  1.00  0.00     0.046 C 
HETATM   29  C   UNL     1      -1.157  -7.450  -2.800  1.00  0.00     0.046 C 
HETATM   30  C   UNL     1       0.459  -9.459  -3.012  1.00  0.00     0.063 C 
ENDBRANCH  16  19
ENDBRANCH  14  15
ENDBRANCH  13  14
ENDBRANCH  10  13
BRANCH  11  31
HETATM   31  C   UNL     1       1.854  -3.254  -0.815  1.00  0.00     0.134 C 
BRANCH  31  32
HETATM   32  C   UNL     1       1.597  -2.354   0.403  1.00  0.00    -0.004 C 
HETATM   33  C   UNL     1       2.775  -1.420   0.684  1.00  0.00     0.011 C 
HETATM   34  C   UNL     1       0.326  -1.535   0.174  1.00  0.00     0.011 C 
ENDBRANCH  31  32
ENDBRANCH  11  31
BRANCH   1  35
HETATM   35  C   UNL     1       6.667  -6.916  -0.347  1.00  0.00     0.135 C 
BRANCH  35  36
HETATM   36  C   UNL     1       6.226  -8.214  -1.026  1.00  0.00     0.020 C 
BRANCH  36  37
HETATM   37  C   UNL     1       6.594  -8.270  -2.508  1.00  0.00    -0.003 C 
HETATM   38  C   UNL     1       6.223  -9.614  -3.115  1.00  0.00     0.005 C 
ENDBRANCH  36  37
ENDBRANCH  35  36
ENDBRANCH   1  35
TORSDOF 9
