REMARK  4 active torsions:
REMARK  status: ('A' for Active; 'I' for Inactive)
REMARK    1  A    between atoms: C_2  and  N_3 
REMARK    2  A    between atoms: C_4  and  C_5 
REMARK    3  A    between atoms: C_6  and  O_7 
REMARK    4  A    between atoms: C_19  and  C_20 
REMARK       I    between atoms: C_20  and  N_21 
ROOT
HETATM    1  C   UNL     1       2.128   0.728  -0.318  1.00  0.00     0.034 A 
HETATM    2  C   UNL     1       2.212  -0.664  -0.185  1.00  0.00     0.057 A 
HETATM    3  C   UNL     1       1.042  -1.417  -0.026  1.00  0.00     0.048 A 
HETATM    4  C   UNL     1      -0.207  -0.766   0.020  1.00  0.00     0.030 A 
HETATM    5  C   UNL     1      -0.243   0.618  -0.094  1.00  0.00     0.063 A 
HETATM    6  N   UNL     1      -1.567   0.952  -0.018  1.00  0.00    -0.277 N 
HETATM    7  H   UNL     1      -1.970   1.881  -0.066  1.00  0.00     0.189 HD
HETATM    8  N   UNL     1      -2.398  -0.095   0.124  1.00  0.00    -0.168 NA
HETATM    9  C   UNL     1      -1.571  -1.164   0.146  1.00  0.00     0.156 A 
HETATM   10  C   UNL     1       0.902   1.401  -0.261  1.00  0.00     0.034 A 
ENDROOT
BRANCH   2  11
HETATM   11  N   UNL     1       3.437  -1.344  -0.283  1.00  0.00    -0.260 NA
HETATM   12  C   UNL     1       4.371  -1.022   0.557  1.00  0.00     0.131 C 
BRANCH  12  13
HETATM   13  C   UNL     1       5.690  -1.687   0.516  1.00  0.00     0.016 A 
HETATM   14  C   UNL     1       5.942  -2.779  -0.323  1.00  0.00     0.077 A 
HETATM   15  C   UNL     1       7.196  -3.385  -0.333  1.00  0.00     0.039 A 
HETATM   16  C   UNL     1       8.211  -2.894   0.490  1.00  0.00     0.022 A 
HETATM   17  C   UNL     1       7.960  -1.802   1.321  1.00  0.00     0.012 A 
HETATM   18 BR   UNL     1       9.341  -1.132   2.426  1.00  0.00    -0.051 Br
HETATM   19  C   UNL     1       6.703  -1.195   1.345  1.00  0.00     0.034 A 
BRANCH  14  20
HETATM   20  O   UNL     1       5.000  -3.309  -1.160  1.00  0.00    -0.360 OA
HETATM   21  H   UNL     1       4.188  -2.757  -1.074  1.00  0.00     0.217 HD
ENDBRANCH  14  20
ENDBRANCH  12  13
ENDBRANCH   2  11
BRANCH   9  22
HETATM   22  C   UNL     1      -2.092  -2.532   0.275  1.00  0.00     0.270 C 
HETATM   23  N   UNL     1      -3.457  -2.607   0.335  1.00  0.00    -0.365 N 
HETATM   24  H   UNL     1      -3.993  -1.750   0.274  1.00  0.00     0.159 HD
HETATM   25  H   UNL     1      -3.906  -3.507   0.398  1.00  0.00     0.159 HD
HETATM   26  O   UNL     1      -1.396  -3.541   0.322  1.00  0.00    -0.266 OA
ENDBRANCH   9  22
TORSDOF 4
