REMARK  7 active torsions:
REMARK  status: ('A' for Active; 'I' for Inactive)
REMARK    1  A    between atoms: O_2  and  C_3 
REMARK    2  A    between atoms: C_4  and  O_5 
REMARK    3  A    between atoms: C_9  and  C_10 
REMARK    4  A    between atoms: C_10  and  N_11 
REMARK    5  A    between atoms: C_14  and  C_15 
REMARK    6  A    between atoms: C_15  and  N_16 
REMARK    7  A    between atoms: N_16  and  C_17 
ROOT
HETATM    1  N   UNL     1       5.369  -1.714  -3.924  1.00  0.00    -0.067 N 
HETATM    2  H   UNL     1       5.386  -2.131  -2.981  1.00  0.00     0.280 HD
HETATM    3  C   UNL     1       6.728  -2.003  -4.534  1.00  0.00     0.241 C 
HETATM    4  C   UNL     1       6.442  -2.645  -5.890  1.00  0.00     0.031 C 
HETATM    5  C   UNL     1       5.136  -3.390  -5.627  1.00  0.00     0.035 C 
HETATM    6  C   UNL     1       4.329  -2.470  -4.726  1.00  0.00     0.235 C 
ENDROOT
BRANCH   1   7
HETATM    7  C   UNL     1       5.005  -0.261  -3.708  1.00  0.00     0.273 C 
BRANCH   7   8
HETATM    8  C   UNL     1       6.049   0.531  -2.969  1.00  0.00    -0.028 A 
HETATM    9  C   UNL     1       6.341   0.249  -1.626  1.00  0.00     0.031 A 
HETATM   10  C   UNL     1       7.352   0.950  -0.962  1.00  0.00     0.047 A 
HETATM   11  C   UNL     1       8.070   1.937  -1.635  1.00  0.00     0.116 A 
HETATM   12 BR   UNL     1       7.714   0.508   0.843  1.00  0.00    -0.048 Br
HETATM   13  C   UNL     1       7.777   2.253  -2.966  1.00  0.00     0.103 A 
HETATM   14  C   UNL     1       6.767   1.549  -3.629  1.00  0.00     0.048 A 
BRANCH  11  15
HETATM   15  O   UNL     1       9.075   2.613  -0.997  1.00  0.00    -0.357 OA
HETATM   16  H   UNL     1       9.410   3.286  -1.621  1.00  0.00     0.218 HD
ENDBRANCH  11  15
BRANCH  13  17
HETATM   17  O   UNL     1       8.558   3.236  -3.514  1.00  0.00    -0.353 OA
HETATM   18  C   UNL     1       8.179   3.751  -4.785  1.00  0.00     0.210 C 
ENDBRANCH  13  17
ENDBRANCH   7   8
ENDBRANCH   1   7
BRANCH   4  19
HETATM   19  C   UNL     1       6.364  -1.584  -7.003  1.00  0.00     0.127 C 
BRANCH  19  20
HETATM   20  N   UNL     1       6.194  -2.202  -8.320  1.00  0.00    -0.376 N 
HETATM   21  H   UNL     1       6.607  -3.127  -8.415  1.00  0.00     0.161 HD
BRANCH  20  22
HETATM   22  C   UNL     1       6.213  -1.402  -9.457  1.00  0.00     0.100 A 
HETATM   23  N   UNL     1       6.530  -1.966 -10.637  1.00  0.00    -0.353 N 
HETATM   24  H   UNL     1       6.741  -2.960 -10.655  1.00  0.00     0.166 HD
HETATM   25  C   UNL     1       6.573  -1.294 -11.799  1.00  0.00     0.089 A 
HETATM   26  C   UNL     1       6.267   0.056 -11.835  1.00  0.00     0.017 A 
HETATM   27  C   UNL     1       5.903   0.688 -10.655  1.00  0.00     0.005 A 
HETATM   28  C   UNL     1       5.867  -0.042  -9.467  1.00  0.00     0.048 A 
ENDBRANCH  20  22
ENDBRANCH  19  20
ENDBRANCH   4  19
TORSDOF 7
