REMARK  5 active torsions:
REMARK  status: ('A' for Active; 'I' for Inactive)
REMARK    1  A    between atoms: C_4  and  C_5 
REMARK    2  A    between atoms: N_7  and  C_8 
REMARK    3  A    between atoms: C_15  and  C_16 
REMARK       I    between atoms: C_16  and  N_17 
REMARK    4  A    between atoms: N_17  and  N_18 
REMARK       I    between atoms: N_18  and  C_19 
REMARK    5  A    between atoms: C_19  and  C_20 
ROOT
HETATM    1  C   UNL     1       2.770   0.438  -0.256  1.00  0.00     0.105 A 
HETATM    2  N   UNL     1       3.533   1.542  -0.329  1.00  0.00    -0.166 NA
HETATM    3  N   UNL     1       4.803   1.111  -0.459  1.00  0.00    -0.244 N 
HETATM    4  C   UNL     1       4.861  -0.261  -0.482  1.00  0.00     0.138 A 
HETATM    5  C   UNL     1       3.566  -0.744  -0.375  1.00  0.00     0.082 A 
ENDROOT
BRANCH   5   6
HETATM    6  C   UNL     1       3.158  -2.145  -0.393  1.00  0.00     0.274 C 
HETATM    7  N   UNL     1       4.154  -3.033  -0.753  1.00  0.00    -0.263 N 
HETATM    8  H   UNL     1       5.074  -2.751  -1.077  1.00  0.00     0.190 HD
HETATM    9  O   UNL     1       2.026  -2.530  -0.112  1.00  0.00    -0.266 OA
BRANCH   7  10
HETATM   10  N   UNL     1       3.884  -4.404  -0.805  1.00  0.00    -0.263 N 
HETATM   11  C   UNL     1       4.899  -5.250  -1.186  1.00  0.00     0.275 C 
HETATM   12  O   UNL     1       6.005  -4.823  -1.526  1.00  0.00    -0.266 OA
HETATM   13  H   UNL     1       2.960  -4.728  -0.496  1.00  0.00     0.190 HD
BRANCH  11  14
HETATM   14  C   UNL     1       4.585  -6.704  -1.155  1.00  0.00     0.101 A 
HETATM   15  C   UNL     1       3.274  -7.256  -0.699  1.00  0.00     0.261 A 
HETATM   16  O   UNL     1       2.357  -6.533  -0.321  1.00  0.00    -0.267 OA
HETATM   17  N   UNL     1       3.146  -8.628  -0.720  1.00  0.00    -0.333 N 
HETATM   18  C   UNL     1       4.134  -9.484  -1.129  1.00  0.00     0.091 A 
HETATM   19  H   UNL     1       2.253  -8.993  -0.406  1.00  0.00     0.168 HD
HETATM   20  C   UNL     1       5.310  -9.001  -1.542  1.00  0.00     0.018 A 
HETATM   21  C   UNL     1       5.536  -7.573  -1.552  1.00  0.00     0.024 A 
ENDBRANCH  11  14
ENDBRANCH   7  10
ENDBRANCH   5   6
BRANCH   1  22
HETATM   22  C   UNL     1       1.321   0.595  -0.111  1.00  0.00    -0.005 A 
HETATM   23  C   UNL     1       0.639   1.513  -0.924  1.00  0.00     0.014 A 
HETATM   24  C   UNL     1      -0.739   1.700  -0.790  1.00  0.00     0.001 A 
HETATM   25  C   UNL     1      -1.448   0.975   0.165  1.00  0.00     0.000 A 
HETATM   26  C   UNL     1      -0.780   0.071   0.989  1.00  0.00     0.001 A 
HETATM   27  C   UNL     1       0.600  -0.112   0.858  1.00  0.00     0.014 A 
ENDBRANCH   1  22
BRANCH   3  28
HETATM   28  C   UNL     1       5.881   2.036  -0.568  1.00  0.00     0.058 A 
HETATM   29  C   UNL     1       5.613   3.414  -0.517  1.00  0.00     0.031 A 
HETATM   30  C   UNL     1       6.652   4.339  -0.631  1.00  0.00     0.002 A 
HETATM   31  C   UNL     1       7.963   3.900  -0.797  1.00  0.00     0.000 A 
HETATM   32  C   UNL     1       8.239   2.534  -0.847  1.00  0.00     0.002 A 
HETATM   33  C   UNL     1       7.204   1.601  -0.732  1.00  0.00     0.031 A 
ENDBRANCH   3  28
TORSDOF 5
