REMARK  5 active torsions:
REMARK  status: ('A' for Active; 'I' for Inactive)
REMARK    1  A    between atoms: C_5  and  O_6 
REMARK    2  A    between atoms: O_6  and  C_7 
REMARK    3  A    between atoms: C_7  and  C_8 
REMARK       I    between atoms: C_8  and  N_9 
REMARK    4  A    between atoms: N_9  and  N_10 
REMARK    5  A    between atoms: C_11  and  C_12 
ROOT
HETATM    1  C   UNL     1       5.402  -4.945  -0.017  1.00  0.00     0.261 C 
HETATM    2  N   UNL     1       6.706  -4.528  -0.258  1.00  0.00    -0.246 N 
HETATM    3  O   UNL     1       5.036  -6.102   0.185  1.00  0.00    -0.269 OA
HETATM    4  H   UNL     1       6.815  -3.595  -0.652  1.00  0.00     0.192 HD
ENDROOT
BRANCH   2   5
HETATM    5  N   UNL     1       7.797  -5.349  -0.439  1.00  0.00    -0.184 NA
HETATM    6  C   UNL     1       7.808  -6.500   0.154  1.00  0.00     0.152 C 
BRANCH   6   7
HETATM    7  C   UNL     1       8.913  -7.414  -0.059  1.00  0.00     0.011 A 
HETATM    8  C   UNL     1       9.001  -8.769   0.400  1.00  0.00     0.004 A 
HETATM    9  C   UNL     1      10.231  -9.275  -0.020  1.00  0.00     0.043 A 
HETATM   10  C   UNL     1       8.139  -9.618   1.129  1.00  0.00     0.014 A 
HETATM   11  C   UNL     1      10.647 -10.583   0.257  1.00  0.00     0.030 A 
HETATM   12  N   UNL     1      10.867  -8.269  -0.711  1.00  0.00    -0.364 N 
HETATM   13  C   UNL     1       9.775 -11.402   0.982  1.00  0.00     0.002 A 
HETATM   14  C   UNL     1       8.538 -10.929   1.411  1.00  0.00     0.001 A 
HETATM   15  H   UNL     1      11.780  -8.355  -1.136  1.00  0.00     0.165 HD
HETATM   16  C   UNL     1      10.082  -7.149  -0.747  1.00  0.00     0.102 A 
ENDBRANCH   6   7
ENDBRANCH   2   5
BRANCH   1  17
HETATM   17  C   UNL     1       4.405  -3.791   0.047  1.00  0.00     0.280 C 
BRANCH  17  18
HETATM   18  O   UNL     1       4.846  -2.657  -0.706  1.00  0.00    -0.342 OA
BRANCH  18  19
HETATM   19  C   UNL     1       3.790  -1.792  -0.865  1.00  0.00     0.075 A 
HETATM   20  C   UNL     1       3.559  -0.759   0.059  1.00  0.00    -0.023 A 
HETATM   21  C   UNL     1       2.404   0.037  -0.101  1.00  0.00    -0.053 A 
HETATM   22  C   UNL     1       4.494  -0.547   1.219  1.00  0.00     0.052 C 
HETATM   23  C   UNL     1       2.049   1.125   0.878  1.00  0.00     0.049 C 
HETATM   24  C   UNL     1       1.573  -0.163  -1.217  1.00  0.00     0.007 A 
HETATM   25  C   UNL     1       1.860  -1.152  -2.157  1.00  0.00     0.003 A 
HETATM   26  C   UNL     1       2.971  -1.968  -1.982  1.00  0.00     0.037 A 
ENDBRANCH  18  19
ENDBRANCH  17  18
ENDBRANCH   1  17
TORSDOF 5
