REMARK  6 active torsions:
REMARK  status: ('A' for Active; 'I' for Inactive)
REMARK    1  A    between atoms: O_2  and  C_3 
REMARK    2  A    between atoms: C_5  and  C_6 
REMARK       I    between atoms: C_6  and  N_7 
REMARK    3  A    between atoms: N_7  and  C_8 
REMARK    4  A    between atoms: C_10  and  C_11 
REMARK    5  A    between atoms: C_11  and  C_12 
REMARK    6  A    between atoms: C_12  and  C_13 
ROOT
HETATM    1  C   UNL     1       7.118  -4.773   1.629  1.00  0.00     0.725 A 
HETATM    2  N   UNL     1       7.575  -5.883   2.155  1.00  0.00    -0.046 NA
HETATM    3  C   UNL     1       6.926  -6.862   1.440  1.00  0.00     0.166 A 
HETATM    4  N   UNL     1       6.081  -6.407   0.504  1.00  0.00    -0.144 NA
HETATM    5  N   UNL     1       6.221  -5.076   0.642  1.00  0.00    -0.106 N 
HETATM    6  H   UNL     1       5.708  -4.426   0.054  1.00  0.00     0.208 HD
ENDROOT
BRANCH   1   7
HETATM    7  N   UNL     1       7.486  -3.509   2.008  1.00  0.00    -0.152 N 
HETATM    8  C   UNL     1       6.977  -2.390   1.386  1.00  0.00     0.270 C 
HETATM    9  O   UNL     1       6.183  -2.425   0.448  1.00  0.00    -0.267 OA
HETATM   10  H   UNL     1       8.196  -3.463   2.724  1.00  0.00     0.187 HD
BRANCH   8  11
HETATM   11  C   UNL     1       7.467  -1.079   1.897  1.00  0.00     0.035 A 
HETATM   12  C   UNL     1       7.487   0.010   1.016  1.00  0.00     0.053 A 
HETATM   13  C   UNL     1       7.939   1.263   1.439  1.00  0.00     0.069 A 
HETATM   14  C   UNL     1       8.369   1.426   2.757  1.00  0.00     0.037 A 
HETATM   15  C   UNL     1       8.335   0.348   3.646  1.00  0.00     0.004 A 
HETATM   16  C   UNL     1       7.882  -0.902   3.222  1.00  0.00     0.017 A 
BRANCH  13  17
HETATM   17  O   UNL     1       7.914   2.234   0.477  1.00  0.00    -0.356 OA
HETATM   18  C   UNL     1       8.324   3.539   0.864  1.00  0.00     0.210 C 
ENDBRANCH  13  17
ENDBRANCH   8  11
ENDBRANCH   1   7
BRANCH   3  19
HETATM   19  C   UNL     1       7.132  -8.315   1.682  1.00  0.00     0.087 C 
BRANCH  19  20
HETATM   20  C   UNL     1       8.428  -8.615   2.437  1.00  0.00     0.048 C 
BRANCH  20  21
HETATM   21  C   UNL     1       8.671 -10.084   2.595  1.00  0.00    -0.030 A 
HETATM   22  C   UNL     1       9.332 -10.947   1.663  1.00  0.00    -0.002 A 
HETATM   23  C   UNL     1       9.347 -12.228   2.217  1.00  0.00     0.042 A 
HETATM   24  C   UNL     1       9.922 -10.756   0.397  1.00  0.00     0.014 A 
HETATM   25  C   UNL     1       9.925 -13.327   1.570  1.00  0.00     0.030 A 
HETATM   26  N   UNL     1       8.715 -12.148   3.436  1.00  0.00    -0.365 N 
HETATM   27  C   UNL     1      10.504 -13.109   0.316  1.00  0.00     0.002 A 
HETATM   28  C   UNL     1      10.504 -11.844  -0.265  1.00  0.00     0.001 A 
HETATM   29  H   UNL     1       8.580 -12.930   4.061  1.00  0.00     0.165 HD
HETATM   30  C   UNL     1       8.304 -10.865   3.674  1.00  0.00     0.096 A 
ENDBRANCH  20  21
ENDBRANCH  19  20
ENDBRANCH   3  19
TORSDOF 6
