REMARK  2 active torsions:
REMARK  status: ('A' for Active; 'I' for Inactive)
REMARK    1  A    between atoms: N_9  and  N_11 
REMARK       I    between atoms: N_11  and  C_12 
REMARK    2  A    between atoms: C_12  and  C_13 
ROOT
HETATM    1  C   UNL     1       3.255   1.509  -0.512  1.00  0.00     0.033 C 
HETATM    2  C   UNL     1       2.667   0.194   0.003  1.00  0.00     0.086 C 
HETATM    3  N   UNL     1       2.799   0.108   1.470  1.00  0.00    -0.379 N 
HETATM    4  C   UNL     1       4.121   0.126   2.097  1.00  0.00     0.150 C 
HETATM    5  C   UNL     1       1.894  -0.731   2.154  1.00  0.00     0.052 A 
HETATM    6  C   UNL     1       1.692  -2.104   1.865  1.00  0.00     0.040 A 
HETATM    7  N   UNL     1       2.421  -2.783   0.827  1.00  0.00    -0.246 NA
HETATM    8  C   UNL     1       2.446  -2.182  -0.470  1.00  0.00     0.077 C 
HETATM    9  N   UNL     1       1.622  -2.711  -1.358  1.00  0.00    -0.291 N 
HETATM   10  H   UNL     1       1.085  -3.513  -1.007  1.00  0.00     0.188 HD
HETATM   11  C   UNL     1       3.291  -1.001  -0.726  1.00  0.00     0.096 C 
HETATM   12  C   UNL     1       1.196  -0.178   3.240  1.00  0.00     0.031 A 
HETATM   13  C   UNL     1       0.327  -0.949   4.015  1.00  0.00     0.002 A 
HETATM   14  C   UNL     1       0.149  -2.299   3.727  1.00  0.00     0.002 A 
HETATM   15  C   UNL     1       0.836  -2.877   2.661  1.00  0.00     0.026 A 
HETATM   16  H   UNL     1       3.371  -2.704   1.203  1.00  0.00     0.135 HD
ENDROOT
BRANCH   9  17
HETATM   17  N   UNL     1       1.401  -2.309  -2.599  1.00  0.00    -0.265 N 
HETATM   18  C   UNL     1       0.434  -2.990  -3.320  1.00  0.00     0.270 C 
HETATM   19  O   UNL     1      -0.192  -3.935  -2.849  1.00  0.00    -0.266 OA
HETATM   20  H   UNL     1       1.833  -1.465  -2.953  1.00  0.00     0.190 HD
BRANCH  18  21
HETATM   21  C   UNL     1       0.157  -2.484  -4.690  1.00  0.00     0.033 A 
HETATM   22  C   UNL     1       1.143  -1.864  -5.471  1.00  0.00     0.017 A 
HETATM   23  C   UNL     1       0.825  -1.387  -6.744  1.00  0.00     0.001 A 
HETATM   24  C   UNL     1      -0.469  -1.534  -7.244  1.00  0.00     0.000 A 
HETATM   25  C   UNL     1      -1.446  -2.170  -6.479  1.00  0.00     0.001 A 
HETATM   26  C   UNL     1      -1.134  -2.649  -5.206  1.00  0.00     0.017 A 
ENDBRANCH  18  21
ENDBRANCH   9  17
TORSDOF 2
