REMARK  7 active torsions:
REMARK  status: ('A' for Active; 'I' for Inactive)
REMARK    1  A    between atoms: C_3  and  N_4 
REMARK       I    between atoms: N_4  and  C_5 
REMARK       I    between atoms: C_5  and  N_6 
REMARK       I    between atoms: N_6  and  C_7 
REMARK    2  A    between atoms: C_7  and  C_8 
REMARK    3  A    between atoms: C_8  and  S_9 
REMARK    4  A    between atoms: S_9  and  C_10 
REMARK    5  A    between atoms: N_11  and  C_12 
REMARK    6  A    between atoms: C_19  and  C_20 
REMARK    7  A    between atoms: C_20  and  N_21 
ROOT
HETATM    1  C   UNL     1       2.469   0.057   1.028  1.00  0.00     0.196 A 
HETATM    2  N   UNL     1       3.689  -0.171   0.418  1.00  0.00    -0.274 N 
HETATM    3  C   UNL     1       3.637  -1.513   0.067  1.00  0.00     0.161 A 
HETATM    4  N   UNL     1       2.471  -2.024   0.412  1.00  0.00    -0.132 NA
HETATM    5  N   UNL     1       1.738  -1.035   1.005  1.00  0.00    -0.122 NA
ENDROOT
BRANCH   1   6
HETATM    6  S   UNL     1       1.918   1.605   1.569  1.00  0.00    -0.080 SA
BRANCH   6   7
HETATM    7  C   UNL     1       0.304   1.720   0.738  1.00  0.00     0.185 C 
BRANCH   7   8
HETATM    8  C   UNL     1       0.443   1.821  -0.779  1.00  0.00     0.235 C 
HETATM    9  N   UNL     1      -0.556   2.458  -1.490  1.00  0.00    -0.278 N 
HETATM   10  C   UNL     1      -1.791   2.911  -1.048  1.00  0.00     0.327 C 
HETATM   11  H   UNL     1      -0.368   2.505  -2.478  1.00  0.00     0.173 HD
HETATM   12  N   UNL     1      -2.452   3.616  -2.031  1.00  0.00    -0.306 N 
HETATM   13  O   UNL     1      -2.206   2.704   0.084  1.00  0.00    -0.247 OA
HETATM   14  H   UNL     1      -2.111   3.557  -2.983  1.00  0.00     0.171 HD
HETATM   15  O   UNL     1       1.390   1.349  -1.417  1.00  0.00    -0.272 OA
BRANCH  12  16
HETATM   16  C   UNL     1      -3.639   4.372  -1.894  1.00  0.00     0.075 A 
HETATM   17  C   UNL     1      -4.260   4.655  -0.677  1.00  0.00     0.033 A 
HETATM   18  C   UNL     1      -5.415   5.447  -0.645  1.00  0.00     0.002 A 
HETATM   19  C   UNL     1      -5.960   5.957  -1.824  1.00  0.00     0.003 A 
HETATM   20  C   UNL     1      -5.348   5.680  -3.044  1.00  0.00     0.044 A 
HETATM   21  C   UNL     1      -4.198   4.898  -3.067  1.00  0.00     0.143 A 
HETATM   22  F   UNL     1      -3.607   4.642  -4.246  1.00  0.00    -0.204 F 
ENDBRANCH  12  16
ENDBRANCH   7   8
ENDBRANCH   6   7
ENDBRANCH   1   6
BRANCH   2  23
HETATM   23  C   UNL     1       4.773   0.719   0.214  1.00  0.00     0.043 A 
HETATM   24  C   UNL     1       5.226   1.533   1.262  1.00  0.00     0.033 A 
HETATM   25  C   UNL     1       6.304   2.395   1.053  1.00  0.00     0.044 A 
HETATM   26  C   UNL     1       6.914   2.447  -0.194  1.00  0.00     0.116 A 
HETATM   27  F   UNL     1       7.946   3.276  -0.392  1.00  0.00    -0.206 F 
HETATM   28  C   UNL     1       6.465   1.653  -1.244  1.00  0.00     0.044 A 
HETATM   29  C   UNL     1       5.390   0.785  -1.044  1.00  0.00     0.033 A 
ENDBRANCH   2  23
BRANCH   3  30
HETATM   30  C   UNL     1       4.779  -2.328  -0.423  1.00  0.00     0.315 C 
BRANCH  30  31
HETATM   31  N   UNL     1       4.335  -3.733  -0.817  1.00  0.00    -0.064 N 
HETATM   32  H   UNL     1       3.599  -3.971  -0.130  1.00  0.00     0.280 HD
HETATM   33  C   UNL     1       3.670  -3.753  -2.174  1.00  0.00     0.235 C 
HETATM   34  C   UNL     1       3.137  -5.148  -2.463  1.00  0.00     0.028 C 
HETATM   35  C   UNL     1       4.232  -6.202  -2.350  1.00  0.00     0.003 C 
HETATM   36  C   UNL     1       4.914  -6.135  -0.989  1.00  0.00     0.028 C 
HETATM   37  C   UNL     1       5.444  -4.740  -0.691  1.00  0.00     0.235 C 
ENDBRANCH  30  31
ENDBRANCH   3  30
TORSDOF 7
