REMARK  6 active torsions:
REMARK  status: ('A' for Active; 'I' for Inactive)
REMARK    1  A    between atoms: O_2  and  C_3 
REMARK    2  A    between atoms: C_6  and  C_7 
REMARK    3  A    between atoms: C_11  and  C_12 
REMARK       I    between atoms: C_12  and  N_13 
REMARK    4  A    between atoms: N_13  and  N_14 
REMARK       I    between atoms: N_14  and  C_15 
REMARK    5  A    between atoms: C_15  and  C_16 
REMARK    6  A    between atoms: C_17  and  C_18 
ROOT
HETATM    1  C   UNL     1       8.153   6.774  -0.989  1.00  0.00     0.288 C 
HETATM    2  N   UNL     1       9.137   6.002  -1.563  1.00  0.00    -0.262 N 
HETATM    3  O   UNL     1       8.324   7.955  -0.698  1.00  0.00    -0.264 OA
HETATM    4  H   UNL     1       8.993   5.042  -1.869  1.00  0.00     0.190 HD
ENDROOT
BRANCH   1   5
HETATM    5  C   UNL     1       6.917   6.081  -0.744  1.00  0.00     0.121 A 
HETATM    6  N   UNL     1       5.782   6.721  -0.333  1.00  0.00    -0.272 N 
HETATM    7  N   UNL     1       4.734   5.907  -0.131  1.00  0.00    -0.174 NA
HETATM    8  H   UNL     1       5.667   7.718  -0.173  1.00  0.00     0.189 HD
HETATM    9  C   UNL     1       5.205   4.675  -0.384  1.00  0.00     0.089 A 
HETATM   10  C   UNL     1       6.563   4.748  -0.801  1.00  0.00     0.071 A 
BRANCH   9  11
HETATM   11  C   UNL     1       4.381   3.473  -0.221  1.00  0.00    -0.005 A 
HETATM   12  C   UNL     1       2.983   3.563  -0.173  1.00  0.00     0.016 A 
HETATM   13  C   UNL     1       2.191   2.416  -0.017  1.00  0.00     0.037 A 
HETATM   14  C   UNL     1       2.788   1.162   0.099  1.00  0.00     0.068 A 
HETATM   15  C   UNL     1       4.179   1.066   0.059  1.00  0.00     0.037 A 
HETATM   16  C   UNL     1       4.970   2.208  -0.099  1.00  0.00     0.016 A 
BRANCH  14  17
HETATM   17  O   UNL     1       2.140  -0.031   0.257  1.00  0.00    -0.356 OA
HETATM   18  C   UNL     1       0.719   0.006   0.267  1.00  0.00     0.210 C 
ENDBRANCH  14  17
ENDBRANCH   9  11
ENDBRANCH   1   5
BRANCH   2  19
HETATM   19  N   UNL     1      10.419   6.522  -1.773  1.00  0.00    -0.263 N 
HETATM   20  C   UNL     1      11.344   5.663  -2.328  1.00  0.00     0.271 C 
HETATM   21  O   UNL     1      11.039   4.531  -2.700  1.00  0.00    -0.266 OA
HETATM   22  H   UNL     1      10.621   7.426  -1.343  1.00  0.00     0.190 HD
BRANCH  20  23
HETATM   23  C   UNL     1      12.764   6.101  -2.386  1.00  0.00     0.048 A 
HETATM   24  C   UNL     1      13.195   7.392  -2.741  1.00  0.00     0.063 A 
HETATM   25  C   UNL     1      14.579   7.661  -2.746  1.00  0.00     0.017 A 
HETATM   26  C   UNL     1      15.510   6.670  -2.433  1.00  0.00     0.001 A 
HETATM   27  C   UNL     1      15.078   5.389  -2.111  1.00  0.00     0.001 A 
HETATM   28  C   UNL     1      13.714   5.106  -2.090  1.00  0.00     0.018 A 
BRANCH  24  29
HETATM   29  C   UNL     1      12.234   8.479  -3.135  1.00  0.00     0.418 C 
HETATM   30  F   UNL     1      11.355   8.094  -4.096  1.00  0.00    -0.166 F 
HETATM   31  F   UNL     1      11.489   8.899  -2.074  1.00  0.00    -0.166 F 
HETATM   32  F   UNL     1      12.845   9.597  -3.618  1.00  0.00    -0.166 F 
ENDBRANCH  24  29
ENDBRANCH  20  23
ENDBRANCH   2  19
TORSDOF 6
