REMARK  7 active torsions:
REMARK  status: ('A' for Active; 'I' for Inactive)
REMARK    1  A    between atoms: C_5  and  C_6 
REMARK       I    between atoms: C_6  and  N_7 
REMARK    2  A    between atoms: N_7  and  C_8 
REMARK    3  A    between atoms: C_8  and  C_9 
REMARK    4  A    between atoms: C_9  and  C_10 
REMARK    5  A    between atoms: N_15  and  C_17 
REMARK    6  A    between atoms: C_17  and  C_18 
REMARK    7  A    between atoms: C_21  and  C_22 
ROOT
HETATM    1  C   UNL     1       0.994   1.661  -2.634  1.00  0.00     0.131 A 
HETATM    2  N   UNL     1       0.043   0.664  -2.598  1.00  0.00    -0.319 N 
HETATM    3  C   UNL     1      -1.165   1.298  -2.432  1.00  0.00     0.131 A 
HETATM    4  C   UNL     1      -2.511   0.664  -2.399  1.00  0.00     0.108 C 
HETATM    5  C   UNL     1      -2.672  -0.398  -3.479  1.00  0.00     0.243 C 
HETATM    6  N   UNL     1      -2.050  -1.737  -3.081  1.00  0.00    -0.065 N 
HETATM    7  H   UNL     1      -2.767  -2.198  -2.502  1.00  0.00     0.280 HD
HETATM    8  C   UNL     1      -0.806  -1.670  -2.212  1.00  0.00     0.255 C 
HETATM    9  C   UNL     1       0.286  -0.752  -2.762  1.00  0.00     0.159 C 
HETATM   10  N   UNL     1      -0.951   2.589  -2.333  1.00  0.00    -0.135 NA
HETATM   11  N   UNL     1       0.387   2.815  -2.464  1.00  0.00    -0.135 NA
ENDROOT
BRANCH   1  12
HETATM   12  C   UNL     1       2.458   1.480  -2.872  1.00  0.00     0.100 C 
BRANCH  12  13
HETATM   13  C   UNL     1       3.256   2.697  -2.386  1.00  0.00     0.130 C 
BRANCH  13  14
HETATM   14  N   UNL     1       4.675   2.648  -2.717  1.00  0.00    -0.360 N 
HETATM   15  C   UNL     1       5.551   1.806  -2.080  1.00  0.00     0.223 C 
HETATM   16  O   UNL     1       5.208   0.864  -1.368  1.00  0.00    -0.273 OA
HETATM   17  H   UNL     1       5.040   3.461  -3.204  1.00  0.00     0.162 HD
BRANCH  15  18
HETATM   18  C   UNL     1       7.020   2.059  -2.394  1.00  0.00     0.103 C 
HETATM   19  C   UNL     1       7.892   1.480  -1.278  1.00  0.00     0.248 C 
HETATM   20  N   UNL     1       7.854  -0.033  -1.301  1.00  0.00    -0.074 N 
HETATM   21  C   UNL     1       8.587  -0.634  -0.136  1.00  0.00     0.269 C 
HETATM   22  H   UNL     1       6.854  -0.280  -1.172  1.00  0.00     0.279 HD
HETATM   23  C   UNL     1       8.314  -0.602  -2.616  1.00  0.00     0.234 C 
HETATM   24  C   UNL     1       7.440  -0.060  -3.739  1.00  0.00     0.029 C 
HETATM   25  C   UNL     1       7.393   1.469  -3.758  1.00  0.00     0.017 C 
ENDBRANCH  15  18
ENDBRANCH  13  14
ENDBRANCH  12  13
ENDBRANCH   1  12
BRANCH   6  26
HETATM   26  C   UNL     1      -1.883  -2.668  -4.276  1.00  0.00     0.273 C 
BRANCH  26  27
HETATM   27  C   UNL     1      -3.188  -3.062  -4.906  1.00  0.00    -0.033 A 
HETATM   28  C   UNL     1      -3.628  -2.439  -6.080  1.00  0.00     0.010 A 
HETATM   29  C   UNL     1      -4.857  -2.788  -6.649  1.00  0.00     0.015 A 
HETATM   30  C   UNL     1      -5.674  -3.767  -6.068  1.00  0.00    -0.002 A 
HETATM   31  C   UNL     1      -5.225  -4.391  -4.897  1.00  0.00     0.015 A 
HETATM   32  C   UNL     1      -3.999  -4.043  -4.318  1.00  0.00     0.010 A 
BRANCH  30  33
HETATM   33  C   UNL     1      -6.954  -4.135  -6.668  1.00  0.00     0.085 A 
HETATM   34  O   UNL     1      -7.386  -3.343  -7.696  1.00  0.00    -0.322 OA
HETATM   35  C   UNL     1      -8.578  -3.835  -8.118  1.00  0.00     0.142 A 
HETATM   36  C   UNL     1      -8.930  -4.936  -7.377  1.00  0.00     0.027 A 
HETATM   37  C   UNL     1      -7.885  -5.131  -6.440  1.00  0.00     0.040 A 
ENDBRANCH  30  33
ENDBRANCH  26  27
ENDBRANCH   6  26
TORSDOF 7
