REMARK  6 active torsions:
REMARK  status: ('A' for Active; 'I' for Inactive)
REMARK    1  A    between atoms: O_2  and  C_3 
REMARK    2  A    between atoms: C_5  and  N_6 
REMARK    3  A    between atoms: C_8  and  C_9 
REMARK    4  A    between atoms: C_9  and  N_10 
REMARK       I    between atoms: N_10  and  C_11 
REMARK       I    between atoms: C_11  and  N_12 
REMARK    5  A    between atoms: N_12  and  C_13 
REMARK    6  A    between atoms: C_13  and  C_14 
ROOT
HETATM    1  N   UNL     1       2.318   8.138  -3.146  1.00  0.00    -0.343 N 
HETATM    2  C   UNL     1       2.980   9.140  -2.490  1.00  0.00     0.316 C 
HETATM    3  N   UNL     1       2.887  10.323  -3.171  1.00  0.00    -0.339 N 
HETATM    4  O   UNL     1       3.541   9.005  -1.412  1.00  0.00    -0.248 OA
HETATM    5  H   UNL     1       1.671   8.421  -3.867  1.00  0.00     0.164 HD
HETATM    6  H   UNL     1       2.814  10.254  -4.174  1.00  0.00     0.164 HD
ENDROOT
BRANCH   1   7
HETATM    7  C   UNL     1       2.115   6.833  -2.543  1.00  0.00     0.130 C 
BRANCH   7   8
HETATM    8  C   UNL     1       1.102   6.849  -1.386  1.00  0.00     0.023 C 
HETATM    9  C   UNL     1      -0.298   7.281  -1.835  1.00  0.00     0.129 C 
HETATM   10  N   UNL     1      -0.919   6.043  -2.305  1.00  0.00    -0.380 N 
HETATM   11  C   UNL     1      -0.205   4.869  -1.808  1.00  0.00     0.123 C 
HETATM   12  C   UNL     1       0.839   5.442  -0.848  1.00  0.00     0.028 C 
BRANCH  10  13
HETATM   13  C   UNL     1      -2.013   5.994  -3.140  1.00  0.00     0.032 A 
HETATM   14  C   UNL     1      -2.500   4.776  -3.653  1.00  0.00     0.066 A 
HETATM   15  C   UNL     1      -3.599   4.718  -4.522  1.00  0.00     0.070 A 
HETATM   16  C   UNL     1      -4.230   5.898  -4.906  1.00  0.00     0.037 A 
HETATM   17  C   UNL     1      -3.786   7.116  -4.409  1.00  0.00     0.005 A 
HETATM   18  C   UNL     1      -2.696   7.156  -3.533  1.00  0.00     0.029 A 
BRANCH  15  19
HETATM   19  O   UNL     1      -4.134   3.583  -5.068  1.00  0.00    -0.356 OA
HETATM   20  C   UNL     1      -3.641   2.342  -4.581  1.00  0.00     0.210 C 
ENDBRANCH  15  19
ENDBRANCH  10  13
ENDBRANCH   7   8
ENDBRANCH   1   7
BRANCH   3  21
HETATM   21  C   UNL     1       3.525  11.511  -2.651  1.00  0.00     0.162 C 
BRANCH  21  22
HETATM   22  C   UNL     1       2.928  12.754  -3.256  1.00  0.00    -0.040 A 
HETATM   23  C   UNL     1       3.729  13.675  -3.947  1.00  0.00     0.021 A 
HETATM   24  C   UNL     1       3.183  14.853  -4.487  1.00  0.00    -0.025 A 
HETATM   25  C   UNL     1       1.802  15.112  -4.334  1.00  0.00    -0.026 A 
HETATM   26  C   UNL     1       3.981  15.784  -5.172  1.00  0.00     0.012 A 
HETATM   27  C   UNL     1       1.004  14.187  -3.644  1.00  0.00     0.013 A 
HETATM   28  C   UNL     1       1.258  16.290  -4.869  1.00  0.00     0.012 A 
HETATM   29  C   UNL     1       1.561  13.025  -3.108  1.00  0.00     0.010 A 
HETATM   30  C   UNL     1       2.065  17.206  -5.545  1.00  0.00     0.001 A 
HETATM   31  C   UNL     1       3.425  16.953  -5.696  1.00  0.00     0.001 A 
ENDBRANCH  21  22
ENDBRANCH   3  21
TORSDOF 6
