REMARK  5 active torsions:
REMARK  status: ('A' for Active; 'I' for Inactive)
REMARK    1  A    between atoms: C_2  and  C_3 
REMARK    2  A    between atoms: C_2  and  C_18 
REMARK       I    between atoms: C_3  and  N_4 
REMARK    3  A    between atoms: N_4  and  C_5 
REMARK    4  A    between atoms: C_7  and  C_8 
REMARK    5  A    between atoms: C_18  and  C_19 
ROOT
HETATM    1  C   UNL     1       2.821   1.534   0.716  1.00  0.00     0.226 C 
HETATM    2  N   UNL     1       3.479   1.433   1.935  1.00  0.00    -0.327 N 
HETATM    3  O   UNL     1       2.497   2.588   0.180  1.00  0.00    -0.273 OA
HETATM    4  H   UNL     1       3.474   0.525   2.382  1.00  0.00     0.169 HD
ENDROOT
BRANCH   2   5
HETATM    5  C   UNL     1       4.058   2.483   2.680  1.00  0.00     0.035 A 
HETATM    6  C   UNL     1       4.294   3.761   2.161  1.00  0.00     0.042 A 
HETATM    7  C   UNL     1       4.908   4.764   2.934  1.00  0.00    -0.021 A 
HETATM    8  C   UNL     1       5.269   4.457   4.254  1.00  0.00     0.012 A 
HETATM    9  C   UNL     1       5.042   3.184   4.779  1.00  0.00     0.003 A 
HETATM   10  C   UNL     1       4.449   2.198   3.991  1.00  0.00     0.029 A 
BRANCH   7  11
HETATM   11  C   UNL     1       5.189   6.087   2.385  1.00  0.00     0.010 A 
HETATM   12  C   UNL     1       5.867   7.200   2.944  1.00  0.00     0.152 A 
HETATM   13  N   UNL     1       5.933   8.246   2.115  1.00  0.00    -0.187 NA
HETATM   14  N   UNL     1       5.298   7.811   1.017  1.00  0.00    -0.289 N 
HETATM   15  H   UNL     1       5.218   8.440   0.225  1.00  0.00     0.188 HD
HETATM   16  C   UNL     1       4.835   6.532   1.127  1.00  0.00     0.123 A 
ENDBRANCH   7  11
ENDBRANCH   2   5
BRANCH   1  17
HETATM   17  C   UNL     1       2.474   0.161   0.125  1.00  0.00     0.078 C 
HETATM   18  C   UNL     1       3.739  -0.654  -0.151  1.00  0.00     0.020 C 
BRANCH  17  19
HETATM   19  C   UNL     1       1.526   0.242  -1.091  1.00  0.00     0.052 C 
BRANCH  19  20
HETATM   20  C   UNL     1       2.123   0.651  -2.419  1.00  0.00    -0.057 A 
HETATM   21  C   UNL     1       2.673  -0.307  -3.283  1.00  0.00     0.007 A 
HETATM   22  C   UNL     1       3.212   0.071  -4.515  1.00  0.00     0.001 A 
HETATM   23  C   UNL     1       3.200   1.409  -4.902  1.00  0.00     0.000 A 
HETATM   24  C   UNL     1       2.649   2.369  -4.058  1.00  0.00     0.001 A 
HETATM   25  C   UNL     1       2.112   1.992  -2.825  1.00  0.00     0.007 A 
ENDBRANCH  19  20
ENDBRANCH  17  19
ENDBRANCH   1  17
TORSDOF 5
