REMARK  3 active torsions:
REMARK  status: ('A' for Active; 'I' for Inactive)
REMARK    1  A    between atoms: C_3  and  C_4 
REMARK    2  A    between atoms: C_10  and  C_11 
REMARK    3  A    between atoms: C_14  and  O_15 
ROOT
HETATM    1  C   UNL     1       2.576   2.703  -0.019  1.00  0.00    -0.007 A 
HETATM    2  C   UNL     1       1.971   2.841  -1.277  1.00  0.00     0.047 A 
HETATM    3  C   UNL     1       1.650   4.128  -1.738  1.00  0.00     0.086 A 
HETATM    4  C   UNL     1       1.932   5.232  -0.949  1.00  0.00     0.063 A 
HETATM    5  N   UNL     1       1.505   6.297  -1.699  1.00  0.00    -0.338 N 
HETATM    6  H   UNL     1       1.584   7.266  -1.435  1.00  0.00     0.167 HD
HETATM    7  C   UNL     1       0.990   5.829  -2.889  1.00  0.00     0.139 A 
HETATM    8  N   UNL     1       1.076   4.509  -2.923  1.00  0.00    -0.228 NA
HETATM    9  C   UNL     1       2.528   5.142   0.306  1.00  0.00     0.033 A 
HETATM   10  C   UNL     1       2.842   3.851   0.754  1.00  0.00     0.016 A 
ENDROOT
BRANCH   1  11
HETATM   11  C   UNL     1       2.977   1.361   0.535  1.00  0.00     0.069 C 
HETATM   12  C   UNL     1       2.986   0.137  -0.374  1.00  0.00     0.045 C 
HETATM   13  C   UNL     1       4.317   0.079  -1.125  1.00  0.00     0.017 C 
HETATM   14  C   UNL     1       2.745  -1.121   0.448  1.00  0.00     0.115 C 
HETATM   15  C   UNL     1       3.558  -1.130   1.708  1.00  0.00     0.238 C 
HETATM   16  N   UNL     1       3.779   0.098   2.273  1.00  0.00    -0.247 N 
HETATM   17  O   UNL     1       3.936  -2.169   2.243  1.00  0.00    -0.272 OA
HETATM   18  N   UNL     1       3.389   1.298   1.770  1.00  0.00    -0.176 NA
HETATM   19  H   UNL     1       4.234   0.112   3.181  1.00  0.00     0.192 HD
ENDBRANCH   1  11
BRANCH   7  20
HETATM   20  C   UNL     1       0.465   6.683  -3.960  1.00  0.00     0.010 A 
HETATM   21  C   UNL     1       0.270   6.136  -5.235  1.00  0.00     0.018 A 
HETATM   22  C   UNL     1      -0.216   6.919  -6.285  1.00  0.00     0.037 A 
HETATM   23  C   UNL     1      -0.525   8.264  -6.085  1.00  0.00     0.068 A 
HETATM   24  C   UNL     1      -0.346   8.818  -4.818  1.00  0.00     0.037 A 
HETATM   25  C   UNL     1       0.144   8.033  -3.764  1.00  0.00     0.018 A 
BRANCH  23  26
HETATM   26  O   UNL     1      -0.988   8.917  -7.193  1.00  0.00    -0.356 OA
HETATM   27  C   UNL     1      -1.328  10.289  -7.039  1.00  0.00     0.210 C 
ENDBRANCH  23  26
ENDBRANCH   7  20
TORSDOF 3
