REMARK  6 active torsions:
REMARK  status: ('A' for Active; 'I' for Inactive)
REMARK    1  A    between atoms: C_2  and  C_3 
REMARK       I    between atoms: C_3  and  N_4 
REMARK    2  A    between atoms: N_4  and  C_5 
REMARK    3  A    between atoms: C_7  and  N_8 
REMARK       I    between atoms: N_8  and  C_9 
REMARK    4  A    between atoms: C_9  and  C_10 
REMARK    5  A    between atoms: C_13  and  C_14 
REMARK    6  A    between atoms: C_14  and  C_15 
ROOT
HETATM    1  N   UNL     1      -1.494  -0.981   1.078  1.00  0.00    -0.322 N 
HETATM    2  C   UNL     1      -0.714  -2.124   1.085  1.00  0.00     0.256 C 
HETATM    3  O   UNL     1       0.425  -2.232   0.648  1.00  0.00    -0.267 OA
HETATM    4  H   UNL     1      -2.443  -1.074   1.401  1.00  0.00     0.169 HD
ENDROOT
BRANCH   1   5
HETATM    5  C   UNL     1      -1.085   0.343   0.767  1.00  0.00     0.043 A 
HETATM    6  C   UNL     1       0.267   0.699   0.624  1.00  0.00     0.059 A 
HETATM    7  C   UNL     1       0.652   2.033   0.447  1.00  0.00     0.036 A 
HETATM    8  C   UNL     1      -0.337   3.018   0.378  1.00  0.00     0.030 A 
HETATM    9  C   UNL     1      -1.685   2.678   0.483  1.00  0.00     0.011 A 
HETATM   10  C   UNL     1      -2.075   1.346   0.681  1.00  0.00    -0.035 A 
HETATM   11  C   UNL     1      -3.545   1.046   0.802  1.00  0.00     0.050 C 
BRANCH   7  12
HETATM   12  N   UNL     1       1.992   2.477   0.395  1.00  0.00    -0.327 N 
HETATM   13  C   UNL     1       3.137   1.707   0.325  1.00  0.00     0.221 C 
HETATM   14  O   UNL     1       3.183   0.488   0.194  1.00  0.00    -0.273 OA
HETATM   15  H   UNL     1       2.113   3.479   0.386  1.00  0.00     0.169 HD
BRANCH  13  16
HETATM   16  C   UNL     1       4.433   2.485   0.516  1.00  0.00     0.098 C 
HETATM   17  C   UNL     1       4.509   3.827  -0.189  1.00  0.00     0.014 C 
ENDBRANCH  13  16
ENDBRANCH   7  12
ENDBRANCH   1   5
BRANCH   2  18
HETATM   18  C   UNL     1      -1.332  -3.325   1.724  1.00  0.00     0.032 A 
HETATM   19  C   UNL     1      -2.711  -3.566   1.732  1.00  0.00     0.017 A 
HETATM   20  C   UNL     1      -3.224  -4.682   2.401  1.00  0.00     0.008 A 
HETATM   21  C   UNL     1      -2.369  -5.578   3.063  1.00  0.00    -0.051 A 
HETATM   22  C   UNL     1      -0.986  -5.354   3.015  1.00  0.00     0.008 A 
HETATM   23  C   UNL     1      -0.473  -4.239   2.351  1.00  0.00     0.017 A 
BRANCH  21  24
HETATM   24  C   UNL     1      -2.925  -6.773   3.804  1.00  0.00     0.120 C 
BRANCH  24  25
HETATM   25  C   UNL     1      -2.996  -7.884   2.820  1.00  0.00     0.151 A 
HETATM   26  N   UNL     1      -4.093  -8.154   2.095  1.00  0.00    -0.158 NA
HETATM   27  N   UNL     1      -3.688  -9.218   1.382  1.00  0.00    -0.270 N 
HETATM   28  H   UNL     1      -4.320  -9.639   0.713  1.00  0.00     0.190 HD
HETATM   29  C   UNL     1      -2.419  -9.575   1.708  1.00  0.00     0.227 A 
HETATM   30  N   UNL     1      -1.956  -8.763   2.626  1.00  0.00    -0.225 NA
ENDBRANCH  24  25
ENDBRANCH  21  24
ENDBRANCH   2  18
TORSDOF 6
