REMARK  6 active torsions:
REMARK  status: ('A' for Active; 'I' for Inactive)
REMARK    1  A    between atoms: C_3  and  C_4 
REMARK    2  A    between atoms: C_4  and  N_5 
REMARK    3  A    between atoms: C_4  and  C_19 
REMARK    4  A    between atoms: N_9  and  C_10 
REMARK    5  A    between atoms: C_25  and  N_26 
REMARK       I    between atoms: N_26  and  C_27 
REMARK    6  A    between atoms: C_27  and  C_28 
ROOT
HETATM    1  C   UNL     1       3.507   3.393   0.316  1.00  0.00     0.259 C 
ENDROOT
BRANCH   1   2
HETATM    2  C   UNL     1       3.893   3.806   1.729  1.00  0.00     0.018 A 
HETATM    3  C   UNL     1       4.235   2.818   2.763  1.00  0.00    -0.038 A 
HETATM    4  C   UNL     1       4.162   1.326   2.586  1.00  0.00     0.050 C 
HETATM    5  C   UNL     1       4.637   3.420   3.945  1.00  0.00    -0.013 A 
HETATM    6  S   UNL     1       4.557   5.112   3.857  1.00  0.00    -0.076 SA
HETATM    7  C   UNL     1       5.075   2.776   5.225  1.00  0.00     0.057 C 
HETATM    8  C   UNL     1       4.048   5.091   2.240  1.00  0.00     0.086 A 
BRANCH   8   9
HETATM    9  N   UNL     1       3.690   6.292   1.666  1.00  0.00    -0.315 N 
HETATM   10  C   UNL     1       4.223   7.557   1.853  1.00  0.00     0.280 C 
HETATM   11  O   UNL     1       3.539   8.492   1.430  1.00  0.00    -0.265 OA
HETATM   12  H   UNL     1       2.801   6.335   1.186  1.00  0.00     0.170 HD
BRANCH  10  13
HETATM   13  C   UNL     1       5.574   7.744   2.337  1.00  0.00     0.142 A 
HETATM   14  O   UNL     1       6.539   6.799   2.083  1.00  0.00    -0.317 OA
HETATM   15  C   UNL     1       7.685   7.235   2.671  1.00  0.00     0.143 A 
HETATM   16  C   UNL     1       7.501   8.479   3.225  1.00  0.00     0.027 A 
HETATM   17  C   UNL     1       6.149   8.819   2.989  1.00  0.00     0.045 A 
ENDBRANCH  10  13
ENDBRANCH   8   9
ENDBRANCH   1   2
BRANCH   1  18
HETATM   18  N   UNL     1       4.311   3.975  -0.863  1.00  0.00    -0.056 N 
HETATM   19  H   UNL     1       4.088   3.341  -1.639  1.00  0.00     0.281 HD
HETATM   20  C   UNL     1       3.924   5.359  -1.359  1.00  0.00     0.256 C 
HETATM   21  C   UNL     1       4.697   5.716  -2.657  1.00  0.00     0.152 C 
HETATM   22  N   UNL     1       6.161   5.567  -2.473  1.00  0.00    -0.364 N 
HETATM   23  C   UNL     1       6.569   4.234  -1.958  1.00  0.00     0.152 C 
HETATM   24  C   UNL     1       5.821   3.855  -0.654  1.00  0.00     0.256 C 
BRANCH  22  25
HETATM   25  C   UNL     1       6.910   6.691  -2.159  1.00  0.00     0.102 A 
HETATM   26  N   UNL     1       6.810   7.773  -2.956  1.00  0.00    -0.352 N 
HETATM   27  H   UNL     1       6.230   7.696  -3.787  1.00  0.00     0.166 HD
HETATM   28  C   UNL     1       7.493   8.914  -2.768  1.00  0.00     0.089 A 
HETATM   29  C   UNL     1       8.379   9.028  -1.711  1.00  0.00     0.017 A 
HETATM   30  C   UNL     1       8.555   7.938  -0.874  1.00  0.00     0.005 A 
HETATM   31  C   UNL     1       7.828   6.769  -1.100  1.00  0.00     0.048 A 
ENDBRANCH  22  25
ENDBRANCH   1  18
BRANCH   1  32
HETATM   32  C   UNL     1       2.002   3.419   0.131  1.00  0.00    -0.005 A 
HETATM   33  C   UNL     1       1.464   2.672  -0.923  1.00  0.00     0.125 A 
HETATM   34  N   UNL     1       0.162   2.640  -1.263  1.00  0.00    -0.273 NA
HETATM   35  C   UNL     1      -0.696   3.330  -0.487  1.00  0.00     0.116 A 
HETATM   36  C   UNL     1      -0.290   4.072   0.604  1.00  0.00     0.020 A 
HETATM   37  C   UNL     1       1.072   4.117   0.914  1.00  0.00     0.012 A 
ENDBRANCH   1  32
TORSDOF 6
