REMARK  6 active torsions:
REMARK  status: ('A' for Active; 'I' for Inactive)
REMARK    1  A    between atoms: O_2  and  C_3 
REMARK    2  A    between atoms: C_6  and  N_7 
REMARK       I    between atoms: N_7  and  C_8 
REMARK    3  A    between atoms: C_8  and  C_9 
REMARK    4  A    between atoms: C_12  and  N_13 
REMARK       I    between atoms: N_13  and  C_14 
REMARK    5  A    between atoms: C_14  and  C_15 
REMARK       I    between atoms: N_18  and  C_19 
REMARK    6  A    between atoms: C_19  and  C_20 
ROOT
HETATM    1  C   UNL     1       3.222  -6.165  -3.029  1.00  0.00     0.032 A 
HETATM    2  C   UNL     1       2.308  -5.319  -2.392  1.00  0.00     0.019 A 
HETATM    3  C   UNL     1       1.873  -5.599  -1.091  1.00  0.00     0.030 A 
HETATM    4  C   UNL     1       2.335  -6.728  -0.413  1.00  0.00     0.034 A 
HETATM    5  C   UNL     1       3.256  -7.569  -1.052  1.00  0.00     0.030 A 
HETATM    6  C   UNL     1       3.692  -7.295  -2.353  1.00  0.00     0.019 A 
ENDROOT
BRANCH   4   7
HETATM    7  N   UNL     1       1.900  -7.107   0.875  1.00  0.00    -0.327 N 
HETATM    8  C   UNL     1       0.977  -6.455   1.676  1.00  0.00     0.226 C 
HETATM    9  O   UNL     1       0.460  -5.369   1.436  1.00  0.00    -0.273 OA
HETATM   10  H   UNL     1       2.310  -7.956   1.244  1.00  0.00     0.169 HD
BRANCH   8  11
HETATM   11  C   UNL     1       0.656  -7.226   2.963  1.00  0.00     0.081 C 
HETATM   12  C   UNL     1      -0.256  -6.420   3.901  1.00  0.00     0.034 C 
HETATM   13  C   UNL     1      -1.703  -6.364   3.410  1.00  0.00     0.127 C 
HETATM   14  N   UNL     1      -2.225  -7.702   3.123  1.00  0.00    -0.347 N 
HETATM   15  C   UNL     1      -3.613  -7.957   3.107  1.00  0.00     0.260 C 
HETATM   16  C   UNL     1      -1.414  -8.487   2.200  1.00  0.00     0.127 C 
HETATM   17  O   UNL     1      -4.089  -8.772   2.316  1.00  0.00    -0.267 OA
HETATM   18  C   UNL     1       0.031  -8.598   2.679  1.00  0.00     0.034 C 
BRANCH  15  19
HETATM   19  C   UNL     1      -4.437  -7.271   4.094  1.00  0.00     0.072 A 
HETATM   20  S   UNL     1      -5.989  -6.704   3.639  1.00  0.00    -0.097 SA
HETATM   21  C   UNL     1      -6.303  -6.100   5.208  1.00  0.00     0.050 A 
HETATM   22  C   UNL     1      -5.262  -6.345   6.074  1.00  0.00     0.009 A 
HETATM   23  C   UNL     1      -4.190  -7.035   5.436  1.00  0.00     0.025 A 
ENDBRANCH  15  19
ENDBRANCH   8  11
ENDBRANCH   4   7
BRANCH   1  24
HETATM   24  C   UNL     1       3.633  -5.946  -4.446  1.00  0.00     0.256 C 
HETATM   25  N   UNL     1       3.676  -4.623  -4.845  1.00  0.00    -0.323 N 
HETATM   26  H   UNL     1       3.646  -3.919  -4.119  1.00  0.00     0.169 HD
HETATM   27  O   UNL     1       3.905  -6.925  -5.129  1.00  0.00    -0.267 OA
BRANCH  25  28
HETATM   28  C   UNL     1       3.755  -4.137  -6.166  1.00  0.00     0.035 A 
HETATM   29  C   UNL     1       3.690  -4.951  -7.298  1.00  0.00     0.032 A 
HETATM   30  C   UNL     1       3.683  -4.392  -8.583  1.00  0.00     0.039 A 
HETATM   31  C   UNL     1       3.741  -3.009  -8.749  1.00  0.00     0.068 A 
HETATM   32  C   UNL     1       3.840  -2.195  -7.621  1.00  0.00     0.039 A 
HETATM   33  C   UNL     1       3.840  -2.752  -6.338  1.00  0.00     0.032 A 
BRANCH  31  34
HETATM   34  O   UNL     1       3.715  -2.344  -9.943  1.00  0.00    -0.356 OA
HETATM   35  C   UNL     1       3.297  -3.098 -11.075  1.00  0.00     0.210 C 
ENDBRANCH  31  34
ENDBRANCH  25  28
ENDBRANCH   1  24
TORSDOF 6
