REMARK  9 active torsions:
REMARK  status: ('A' for Active; 'I' for Inactive)
REMARK    1  A    between atoms: O_2  and  C_3 
REMARK    2  A    between atoms: C_6  and  C_7 
REMARK    3  A    between atoms: C_13  and  C_14 
REMARK       I    between atoms: C_14  and  N_15 
REMARK    4  A    between atoms: N_15  and  N_16 
REMARK    5  A    between atoms: N_16  and  C_17 
REMARK    6  A    between atoms: C_17  and  N_18 
REMARK    7  A    between atoms: N_18  and  C_19 
REMARK    8  A    between atoms: C_19  and  C_20 
REMARK    9  A    between atoms: C_27  and  C_28 
ROOT
HETATM    1  C   UNL     1       5.385  -3.578   3.534  1.00  0.00     0.118 C 
HETATM    2  N   UNL     1       5.128  -4.911   3.010  1.00  0.00    -0.365 N 
HETATM    3  C   UNL     1       5.868  -5.969   3.421  1.00  0.00     0.138 A 
HETATM    4  N   UNL     1       7.033  -5.774   4.118  1.00  0.00    -0.240 N 
HETATM    5  N   UNL     1       7.691  -6.905   4.403  1.00  0.00    -0.181 NA
HETATM    6  C   UNL     1       6.899  -7.854   3.893  1.00  0.00     0.160 A 
HETATM    7  C   UNL     1       5.728  -7.336   3.278  1.00  0.00     0.098 A 
HETATM    8  C   UNL     1       7.563  -4.472   4.486  1.00  0.00     0.221 C 
HETATM    9  C   UNL     1       6.910  -3.371   3.626  1.00  0.00     0.066 C 
HETATM   10  H   UNL     1       4.240  -5.053   2.522  1.00  0.00     0.161 HD
ENDROOT
BRANCH   7  11
HETATM   11  C   UNL     1       4.651  -8.029   2.593  1.00  0.00     0.275 C 
HETATM   12  N   UNL     1       4.372  -9.334   2.962  1.00  0.00    -0.263 N 
HETATM   13  H   UNL     1       3.598  -9.751   2.453  1.00  0.00     0.190 HD
HETATM   14  O   UNL     1       3.973  -7.496   1.715  1.00  0.00    -0.266 OA
BRANCH  12  15
HETATM   15  N   UNL     1       4.514  -9.777   4.291  1.00  0.00    -0.274 N 
HETATM   16  H   UNL     1       4.400  -9.077   5.016  1.00  0.00     0.189 HD
BRANCH  15  17
HETATM   17  C   UNL     1       5.101 -10.981   4.587  1.00  0.00     0.186 C 
HETATM   18  S   UNL     1       5.701 -12.070   3.470  1.00  0.00    -0.040 SA
BRANCH  17  19
HETATM   19  N   UNL     1       5.167 -11.315   5.904  1.00  0.00    -0.360 N 
HETATM   20  H   UNL     1       5.689 -12.162   6.099  1.00  0.00     0.162 HD
BRANCH  19  21
HETATM   21  C   UNL     1       4.590 -10.642   7.054  1.00  0.00     0.187 C 
BRANCH  21  22
HETATM   22  C   UNL     1       5.518  -9.596   7.542  1.00  0.00     0.070 A 
HETATM   23  O   UNL     1       6.685 -10.029   8.102  1.00  0.00    -0.325 OA
HETATM   24  C   UNL     1       7.381  -8.924   8.471  1.00  0.00     0.142 A 
HETATM   25  C   UNL     1       6.672  -7.786   8.171  1.00  0.00     0.027 A 
HETATM   26  C   UNL     1       5.464  -8.217   7.574  1.00  0.00     0.036 A 
ENDBRANCH  21  22
ENDBRANCH  19  21
ENDBRANCH  17  19
ENDBRANCH  15  17
ENDBRANCH  12  15
ENDBRANCH   7  11
BRANCH   1  27
HETATM   27  C   UNL     1       4.663  -2.540   2.697  1.00  0.00    -0.035 A 
HETATM   28  C   UNL     1       3.438  -2.028   3.151  1.00  0.00     0.012 A 
HETATM   29  C   UNL     1       2.757  -1.048   2.424  1.00  0.00     0.037 A 
HETATM   30  C   UNL     1       3.285  -0.555   1.232  1.00  0.00     0.068 A 
HETATM   31  C   UNL     1       4.477  -1.088   0.745  1.00  0.00     0.037 A 
HETATM   32  C   UNL     1       5.155  -2.079   1.467  1.00  0.00     0.012 A 
BRANCH  30  33
HETATM   33  O   UNL     1       2.538   0.421   0.632  1.00  0.00    -0.356 OA
HETATM   34  C   UNL     1       3.200   1.202  -0.355  1.00  0.00     0.210 C 
ENDBRANCH  30  33
ENDBRANCH   1  27
BRANCH   8  35
HETATM   35  C   UNL     1       7.358  -4.239   5.966  1.00  0.00     0.409 C 
HETATM   36  F   UNL     1       6.065  -4.347   6.348  1.00  0.00    -0.169 F 
HETATM   37  F   UNL     1       8.081  -5.077   6.740  1.00  0.00    -0.169 F 
HETATM   38  F   UNL     1       7.753  -2.981   6.296  1.00  0.00    -0.169 F 
ENDBRANCH   8  35
TORSDOF 9
