REMARK  6 active torsions:
REMARK  status: ('A' for Active; 'I' for Inactive)
REMARK    1  A    between atoms: C_2  and  O_3 
REMARK    2  A    between atoms: C_2  and  C_4 
REMARK    3  A    between atoms: C_6  and  N_7 
REMARK       I    between atoms: N_7  and  C_8 
REMARK    4  A    between atoms: C_8  and  C_9 
REMARK    5  A    between atoms: C_12  and  C_13 
REMARK    6  A    between atoms: C_18  and  C_19 
ROOT
HETATM    1  C   UNL     1       3.115   3.744  -1.753  1.00  0.00     0.096 A 
HETATM    2  C   UNL     1       3.019   4.799  -0.866  1.00  0.00     0.138 A 
HETATM    3  N   UNL     1       2.947   4.233   0.386  1.00  0.00    -0.240 N 
HETATM    4  C   UNL     1       2.807   4.984   1.621  1.00  0.00     0.221 C 
HETATM    5  C   UNL     1       3.034   6.490   1.369  1.00  0.00     0.066 C 
HETATM    6  C   UNL     1       2.357   6.951   0.067  1.00  0.00     0.118 C 
HETATM    7  N   UNL     1       2.944   6.152  -1.025  1.00  0.00    -0.365 N 
HETATM    8  N   UNL     1       2.831   2.896   0.360  1.00  0.00    -0.181 NA
HETATM    9  C   UNL     1       2.949   2.600  -0.937  1.00  0.00     0.160 A 
HETATM   10  H   UNL     1       2.709   6.524  -1.947  1.00  0.00     0.161 HD
ENDROOT
BRANCH   1  11
HETATM   11  C   UNL     1       3.279   3.770  -3.195  1.00  0.00     0.261 C 
HETATM   12  N   UNL     1       4.017   4.854  -3.633  1.00  0.00    -0.323 N 
HETATM   13  H   UNL     1       4.445   5.411  -2.900  1.00  0.00     0.169 HD
HETATM   14  O   UNL     1       2.832   2.867  -3.893  1.00  0.00    -0.267 OA
BRANCH  12  15
HETATM   15  C   UNL     1       4.353   5.188  -4.957  1.00  0.00     0.035 A 
HETATM   16  C   UNL     1       3.785   4.579  -6.079  1.00  0.00     0.039 A 
HETATM   17  C   UNL     1       4.155   4.964  -7.382  1.00  0.00    -0.028 A 
HETATM   18  C   UNL     1       5.110   5.976  -7.540  1.00  0.00     0.010 A 
HETATM   19  C   UNL     1       5.682   6.590  -6.427  1.00  0.00     0.003 A 
HETATM   20  C   UNL     1       5.298   6.203  -5.142  1.00  0.00     0.029 A 
BRANCH  17  21
HETATM   21  C   UNL     1       3.482   4.312  -8.570  1.00  0.00     0.147 C 
HETATM   22  C   UNL     1       2.187   5.031  -8.933  1.00  0.00     0.044 C 
BRANCH  21  23
HETATM   23  O   UNL     1       4.350   4.324  -9.702  1.00  0.00    -0.391 OA
HETATM   24  H   UNL     1       3.916   3.800 -10.396  1.00  0.00     0.210 HD
ENDBRANCH  21  23
ENDBRANCH  17  21
ENDBRANCH  12  15
ENDBRANCH   1  11
BRANCH   4  25
HETATM   25  C   UNL     1       3.781   4.501   2.672  1.00  0.00     0.409 C 
HETATM   26  F   UNL     1       3.554   3.240   3.089  1.00  0.00    -0.169 F 
HETATM   27  F   UNL     1       5.067   4.587   2.259  1.00  0.00    -0.169 F 
HETATM   28  F   UNL     1       3.681   5.288   3.779  1.00  0.00    -0.169 F 
ENDBRANCH   4  25
BRANCH   6  29
HETATM   29  C   UNL     1       0.829   6.911   0.096  1.00  0.00    -0.035 A 
HETATM   30  C   UNL     1       0.129   7.433   1.201  1.00  0.00     0.009 A 
HETATM   31  C   UNL     1      -1.268   7.408   1.255  1.00  0.00     0.001 A 
HETATM   32  C   UNL     1      -1.998   6.885   0.194  1.00  0.00     0.000 A 
HETATM   33  C   UNL     1      -1.332   6.394  -0.924  1.00  0.00     0.001 A 
HETATM   34  C   UNL     1       0.065   6.412  -0.974  1.00  0.00     0.009 A 
ENDBRANCH   6  29
TORSDOF 6
