REMARK  6 active torsions:
REMARK  status: ('A' for Active; 'I' for Inactive)
REMARK    1  A    between atoms: C_9  and  C_10 
REMARK    2  A    between atoms: C_10  and  N_11 
REMARK       I    between atoms: N_11  and  C_12 
REMARK    3  A    between atoms: N_11  and  C_22 
REMARK    4  A    between atoms: C_12  and  C_13 
REMARK    5  A    between atoms: C_16  and  O_17 
REMARK    6  A    between atoms: C_22  and  C_23 
ROOT
HETATM    1  N   UNL     1      11.661  -2.344  -1.921  1.00  0.00    -0.341 N 
HETATM    2  C   UNL     1      11.432  -2.303  -3.301  1.00  0.00     0.254 C 
HETATM    3  O   UNL     1      10.962  -1.328  -3.886  1.00  0.00    -0.267 OA
ENDROOT
BRANCH   1   4
HETATM    4  C   UNL     1      11.285  -1.161  -1.146  1.00  0.00     0.170 C 
BRANCH   4   5
HETATM    5  C   UNL     1      12.200   0.003  -1.391  1.00  0.00     0.029 A 
HETATM    6  C   UNL     1      13.618  -0.120  -0.937  1.00  0.00     0.253 A 
HETATM    7  N   UNL     1      14.431   0.968  -1.130  1.00  0.00    -0.322 N 
HETATM    8  O   UNL     1      14.049  -1.137  -0.398  1.00  0.00    -0.268 OA
HETATM    9  C   UNL     1      13.990   2.184  -1.664  1.00  0.00     0.045 A 
HETATM   10  H   UNL     1      15.387   0.865  -0.821  1.00  0.00     0.169 HD
HETATM   11  C   UNL     1      12.655   2.311  -2.058  1.00  0.00    -0.008 A 
HETATM   12  C   UNL     1      14.868   3.260  -1.778  1.00  0.00     0.031 A 
HETATM   13  C   UNL     1      12.194   3.536  -2.550  1.00  0.00     0.020 A 
HETATM   14  C   UNL     1      11.766   1.161  -1.921  1.00  0.00     0.028 A 
HETATM   15  C   UNL     1      13.058   4.637  -2.637  1.00  0.00    -0.061 A 
HETATM   16  C   UNL     1      12.559   5.948  -3.169  1.00  0.00     0.048 C 
HETATM   17  C   UNL     1      14.402   4.482  -2.268  1.00  0.00     0.009 A 
ENDBRANCH   4   5
ENDBRANCH   1   4
BRANCH   1  18
HETATM   18  C   UNL     1      11.700  -3.604  -1.156  1.00  0.00     0.158 C 
BRANCH  18  19
HETATM   19  C   UNL     1      10.296  -4.208  -0.932  1.00  0.00     0.139 C 
HETATM   20  O   UNL     1       9.538  -3.361  -0.041  1.00  0.00    -0.384 OA
HETATM   21  C   UNL     1       9.311  -4.060   1.189  1.00  0.00     0.168 C 
HETATM   22  C   UNL     1      10.263  -5.232   1.204  1.00  0.00     0.029 C 
HETATM   23  C   UNL     1      10.356  -5.575  -0.262  1.00  0.00     0.035 C 
ENDBRANCH  18  19
ENDBRANCH   1  18
BRANCH   2  24
HETATM   24  C   UNL     1      11.738  -3.500  -4.121  1.00  0.00     0.032 A 
HETATM   25  C   UNL     1      10.746  -3.998  -4.969  1.00  0.00     0.020 A 
HETATM   26  C   UNL     1      10.997  -5.139  -5.732  1.00  0.00     0.038 A 
HETATM   27  C   UNL     1      12.234  -5.787  -5.657  1.00  0.00     0.068 A 
HETATM   28  C   UNL     1      13.242  -5.255  -4.849  1.00  0.00     0.038 A 
HETATM   29  C   UNL     1      12.999  -4.103  -4.091  1.00  0.00     0.020 A 
BRANCH  27  30
HETATM   30  O   UNL     1      12.338  -6.909  -6.432  1.00  0.00    -0.356 OA
HETATM   31  C   UNL     1      13.435  -7.773  -6.157  1.00  0.00     0.210 C 
ENDBRANCH  27  30
ENDBRANCH   2  24
TORSDOF 6
