REMARK  12 active torsions:
REMARK  status: ('A' for Active; 'I' for Inactive)
REMARK    1  A    between atoms: C_7  and  N_8 
REMARK    2  A    between atoms: C_12  and  N_13 
REMARK       I    between atoms: N_13  and  C_14 
REMARK    3  A    between atoms: C_14  and  C_15 
REMARK    4  A    between atoms: C_15  and  C_16 
REMARK    5  A    between atoms: C_16  and  C_17 
REMARK    6  A    between atoms: C_17  and  C_18 
REMARK    7  A    between atoms: C_18  and  C_19 
REMARK    8  A    between atoms: C_19  and  C_20 
REMARK    9  A    between atoms: C_20  and  C_21 
REMARK   10  A    between atoms: C_21  and  C_22 
REMARK       I    between atoms: C_22  and  N_23 
REMARK   11  A    between atoms: N_23  and  C_24 
REMARK   12  A    between atoms: C_33  and  N_34 
ROOT
HETATM    1  C   UNL     1       5.300  -5.082  -1.515  1.00  0.00     0.000 C 
ENDROOT
BRANCH   1   2
HETATM    2  C   UNL     1       6.773  -5.301  -1.153  1.00  0.00     0.000 C 
BRANCH   2   3
HETATM    3  C   UNL     1       7.599  -4.010  -1.129  1.00  0.00     0.009 C 
BRANCH   3   4
HETATM    4  C   UNL     1       7.166  -2.968  -0.094  1.00  0.00     0.103 C 
BRANCH   4   5
HETATM    5  C   UNL     1       7.560  -3.313   1.325  1.00  0.00     0.222 C 
HETATM    6  N   UNL     1       7.316  -2.462   2.365  1.00  0.00    -0.327 N 
HETATM    7  H   UNL     1       7.677  -2.888   3.214  1.00  0.00     0.169 HD
HETATM    8  O   UNL     1       8.124  -4.374   1.601  1.00  0.00    -0.273 OA
BRANCH   6   9
HETATM    9  C   UNL     1       6.706  -1.204   2.511  1.00  0.00     0.035 A 
HETATM   10  C   UNL     1       6.122  -0.456   1.495  1.00  0.00     0.032 A 
HETATM   11  C   UNL     1       5.511   0.774   1.774  1.00  0.00     0.033 A 
HETATM   12  C   UNL     1       5.482   1.281   3.079  1.00  0.00     0.044 A 
HETATM   13  N   UNL     1       4.849   2.442   3.333  1.00  0.00    -0.359 N 
HETATM   14  C   UNL     1       6.091   0.571   4.134  1.00  0.00     0.014 A 
HETATM   15  C   UNL     1       4.734   2.968   4.562  1.00  0.00     0.007 A 
HETATM   16  H   UNL     1       4.413   2.932   2.553  1.00  0.00     0.166 HD
HETATM   17  C   UNL     1       3.962   4.235   4.740  1.00  0.00     0.068 C 
HETATM   18  C   UNL     1       5.333   2.315   5.636  1.00  0.00     0.048 A 
HETATM   19  C   UNL     1       6.064   1.142   5.431  1.00  0.00     0.020 A 
HETATM   20  C   UNL     1       6.687  -0.677   3.817  1.00  0.00     0.045 A 
BRANCH  19  21
HETATM   21  N   UNL     1       6.544   0.461   6.556  1.00  0.00    -0.302 NA
HETATM   22  H   UNL     1       7.335  -0.159   6.408  1.00  0.00     0.124 HD
HETATM   23  H   UNL     1       6.691   1.025   7.392  1.00  0.00     0.124 HD
ENDBRANCH  19  21
ENDBRANCH   6   9
ENDBRANCH   4   5
ENDBRANCH   3   4
ENDBRANCH   2   3
ENDBRANCH   1   2
BRANCH   1  24
HETATM   24  C   UNL     1       4.623  -6.403  -1.892  1.00  0.00     0.000 C 
BRANCH  24  25
HETATM   25  C   UNL     1       3.104  -6.301  -2.062  1.00  0.00     0.009 C 
BRANCH  25  26
HETATM   26  C   UNL     1       2.622  -5.255  -3.063  1.00  0.00     0.103 C 
BRANCH  26  27
HETATM   27  C   UNL     1       3.170  -5.421  -4.471  1.00  0.00     0.222 C 
HETATM   28  N   UNL     1       2.745  -6.581  -5.096  1.00  0.00    -0.327 N 
HETATM   29  H   UNL     1       2.235  -7.241  -4.519  1.00  0.00     0.169 HD
HETATM   30  O   UNL     1       3.901  -4.564  -4.960  1.00  0.00    -0.273 OA
BRANCH  28  31
HETATM   31  C   UNL     1       2.975  -6.960  -6.435  1.00  0.00     0.035 A 
HETATM   32  C   UNL     1       3.549  -6.119  -7.396  1.00  0.00     0.045 A 
HETATM   33  C   UNL     1       3.750  -6.528  -8.738  1.00  0.00     0.014 A 
HETATM   34  C   UNL     1       3.334  -7.831  -9.091  1.00  0.00     0.044 A 
HETATM   35  C   UNL     1       4.334  -5.713  -9.740  1.00  0.00     0.020 A 
HETATM   36  N   UNL     1       3.472  -8.251 -10.362  1.00  0.00    -0.359 N 
HETATM   37  C   UNL     1       2.759  -8.679  -8.135  1.00  0.00     0.033 A 
HETATM   38  H   UNL     1       3.162  -9.194 -10.593  1.00  0.00     0.166 HD
HETATM   39  C   UNL     1       3.968  -7.484 -11.347  1.00  0.00     0.007 A 
HETATM   40  C   UNL     1       4.028  -8.033 -12.736  1.00  0.00     0.068 C 
HETATM   41  C   UNL     1       4.388  -6.191 -11.051  1.00  0.00     0.048 A 
HETATM   42  C   UNL     1       2.578  -8.243  -6.819  1.00  0.00     0.032 A 
BRANCH  35  43
HETATM   43  N   UNL     1       4.643  -4.364  -9.521  1.00  0.00    -0.302 NA
HETATM   44  H   UNL     1       5.280  -3.934 -10.187  1.00  0.00     0.124 HD
HETATM   45  H   UNL     1       4.894  -4.107  -8.568  1.00  0.00     0.124 HD
ENDBRANCH  35  43
ENDBRANCH  28  31
ENDBRANCH  26  27
ENDBRANCH  25  26
ENDBRANCH  24  25
ENDBRANCH   1  24
TORSDOF 12
