REMARK  8 active torsions:
REMARK  status: ('A' for Active; 'I' for Inactive)
REMARK    1  A    between atoms: O_2  and  C_3 
REMARK    2  A    between atoms: C_6  and  C_7 
REMARK    3  A    between atoms: C_7  and  C_8 
REMARK    4  A    between atoms: C_8  and  C_9 
REMARK    5  A    between atoms: C_11  and  N_12 
REMARK       I    between atoms: N_12  and  C_13 
REMARK    6  A    between atoms: C_13  and  C_14 
REMARK    7  A    between atoms: C_18  and  C_19 
REMARK    8  A    between atoms: C_22  and  O_23 
ROOT
HETATM    1  N   UNL     1       5.427   7.731  -7.188  1.00  0.00    -0.149 N 
HETATM    2  C   UNL     1       5.566   8.280  -8.437  1.00  0.00     0.290 C 
HETATM    3  O   UNL     1       5.603   7.688  -9.511  1.00  0.00    -0.265 OA
HETATM    4  H   UNL     1       5.430   8.352  -6.392  1.00  0.00     0.188 HD
ENDROOT
BRANCH   1   5
HETATM    5  C   UNL     1       5.316   6.399  -6.929  1.00  0.00     0.747 A 
HETATM    6  N   UNL     1       5.240   5.981  -5.624  1.00  0.00    -0.046 NA
HETATM    7  C   UNL     1       5.145   4.671  -5.721  1.00  0.00     0.140 A 
HETATM    8  N   UNL     1       5.153   4.332  -7.043  1.00  0.00    -0.248 N 
HETATM    9  N   UNL     1       5.275   5.409  -7.819  1.00  0.00     0.020 NA
HETATM   10  H   UNL     1       5.091   3.416  -7.474  1.00  0.00     0.191 HD
BRANCH   7  11
HETATM   11  C   UNL     1       5.021   3.657  -4.640  1.00  0.00     0.085 C 
BRANCH  11  12
HETATM   12  C   UNL     1       6.301   2.827  -4.495  1.00  0.00     0.046 C 
BRANCH  12  13
HETATM   13  C   UNL     1       6.068   1.550  -3.725  1.00  0.00    -0.058 A 
HETATM   14  C   UNL     1       5.548   0.421  -4.372  1.00  0.00     0.010 A 
HETATM   15  C   UNL     1       5.332  -0.771  -3.672  1.00  0.00     0.037 A 
HETATM   16  C   UNL     1       5.636  -0.850  -2.315  1.00  0.00     0.068 A 
HETATM   17  C   UNL     1       6.139   0.279  -1.663  1.00  0.00     0.037 A 
HETATM   18  C   UNL     1       6.354   1.472  -2.359  1.00  0.00     0.010 A 
BRANCH  16  19
HETATM   19  O   UNL     1       5.484  -1.953  -1.521  1.00  0.00    -0.356 OA
HETATM   20  C   UNL     1       5.117  -3.164  -2.170  1.00  0.00     0.210 C 
ENDBRANCH  16  19
ENDBRANCH  12  13
ENDBRANCH  11  12
ENDBRANCH   7  11
ENDBRANCH   1   5
BRANCH   2  21
HETATM   21  C   UNL     1       5.703   9.747  -8.390  1.00  0.00     0.147 A 
HETATM   22  N   UNL     1       5.601  10.462  -7.252  1.00  0.00    -0.169 NA
HETATM   23  N   UNL     1       5.808  11.733  -7.651  1.00  0.00    -0.277 N 
HETATM   24  H   UNL     1       5.798  12.464  -6.947  1.00  0.00     0.189 HD
HETATM   25  C   UNL     1       6.056  11.875  -8.992  1.00  0.00     0.063 A 
HETATM   26  C   UNL     1       5.977  10.593  -9.495  1.00  0.00     0.071 A 
BRANCH  25  27
HETATM   27  C   UNL     1       6.377  13.140  -9.649  1.00  0.00    -0.008 A 
HETATM   28  C   UNL     1       7.281  13.156 -10.718  1.00  0.00     0.016 A 
HETATM   29  C   UNL     1       7.603  14.353 -11.363  1.00  0.00     0.037 A 
HETATM   30  C   UNL     1       7.026  15.556 -10.958  1.00  0.00     0.068 A 
HETATM   31  C   UNL     1       6.121  15.551  -9.897  1.00  0.00     0.037 A 
HETATM   32  C   UNL     1       5.799  14.350  -9.246  1.00  0.00     0.016 A 
BRANCH  30  33
HETATM   33  O   UNL     1       7.427  16.648 -11.675  1.00  0.00    -0.356 OA
HETATM   34  C   UNL     1       6.830  17.895 -11.343  1.00  0.00     0.210 C 
ENDBRANCH  30  33
ENDBRANCH  25  27
ENDBRANCH   2  21
TORSDOF 8
