REMARK  7 active torsions:
REMARK  status: ('A' for Active; 'I' for Inactive)
REMARK    1  A    between atoms: N_2  and  C_4 
REMARK    2  A    between atoms: C_4  and  C_5 
REMARK    3  A    between atoms: C_5  and  O_6 
REMARK    4  A    between atoms: O_6  and  C_7 
REMARK    5  A    between atoms: C_10  and  N_11 
REMARK       I    between atoms: N_11  and  C_12 
REMARK    6  A    between atoms: C_12  and  C_13 
REMARK    7  A    between atoms: C_14  and  C_15 
ROOT
HETATM    1  N   UNL     1       1.940  -7.193   5.224  1.00  0.00    -0.323 N 
HETATM    2  C   UNL     1       2.328  -8.500   5.454  1.00  0.00     0.258 C 
HETATM    3  O   UNL     1       2.999  -9.216   4.722  1.00  0.00    -0.267 OA
HETATM    4  H   UNL     1       1.407  -6.716   5.944  1.00  0.00     0.169 HD
ENDROOT
BRANCH   2   5
HETATM    5  C   UNL     1       1.932  -9.055   6.768  1.00  0.00     0.065 A 
HETATM    6  C   UNL     1       0.623  -9.079   7.279  1.00  0.00     0.077 A 
HETATM    7  C   UNL     1       0.422  -9.553   8.612  1.00  0.00     0.009 A 
HETATM    8  C   UNL     1       1.555 -10.058   9.301  1.00  0.00     0.067 A 
HETATM    9  C   UNL     1      -0.816  -9.551   9.307  1.00  0.00     0.014 A 
HETATM   10  N   UNL     1       2.782 -10.088   8.768  1.00  0.00    -0.259 NA
HETATM   11  C   UNL     1       1.415 -10.548  10.591  1.00  0.00     0.032 A 
HETATM   12  C   UNL     1       2.955  -9.594   7.526  1.00  0.00     0.135 A 
HETATM   13  C   UNL     1       0.188 -10.549  11.251  1.00  0.00     0.002 A 
HETATM   14  C   UNL     1      -0.929 -10.045  10.608  1.00  0.00     0.001 A 
BRANCH   6  15
HETATM   15  C   UNL     1      -0.501  -8.594   6.404  1.00  0.00     0.419 C 
HETATM   16  F   UNL     1      -0.353  -8.944   5.096  1.00  0.00    -0.166 F 
HETATM   17  F   UNL     1      -1.741  -9.035   6.738  1.00  0.00    -0.166 F 
HETATM   18  F   UNL     1      -0.573  -7.231   6.415  1.00  0.00    -0.166 F 
ENDBRANCH   6  15
ENDBRANCH   2   5
BRANCH   1  19
HETATM   19  C   UNL     1       2.217  -6.421   4.074  1.00  0.00     0.035 A 
HETATM   20  C   UNL     1       2.984  -6.871   2.999  1.00  0.00     0.032 A 
HETATM   21  C   UNL     1       3.224  -6.048   1.891  1.00  0.00     0.039 A 
HETATM   22  C   UNL     1       2.692  -4.762   1.840  1.00  0.00     0.069 A 
HETATM   23  C   UNL     1       1.927  -4.305   2.914  1.00  0.00     0.039 A 
HETATM   24  C   UNL     1       1.691  -5.126   4.022  1.00  0.00     0.032 A 
BRANCH  22  25
HETATM   25  O   UNL     1       2.847  -3.868   0.816  1.00  0.00    -0.349 OA
BRANCH  25  26
HETATM   26  C   UNL     1       3.539  -4.335  -0.340  1.00  0.00     0.203 C 
BRANCH  26  27
HETATM   27  C   UNL     1       3.500  -3.218  -1.388  1.00  0.00     0.260 C 
BRANCH  27  28
HETATM   28  N   UNL     1       3.993  -3.679  -2.750  1.00  0.00    -0.077 N 
HETATM   29  C   UNL     1       5.460  -4.011  -2.776  1.00  0.00     0.269 C 
HETATM   30  H   UNL     1       3.478  -4.537  -2.992  1.00  0.00     0.279 HD
HETATM   31  C   UNL     1       3.648  -2.672  -3.818  1.00  0.00     0.269 C 
ENDBRANCH  27  28
ENDBRANCH  26  27
ENDBRANCH  25  26
ENDBRANCH  22  25
ENDBRANCH   1  19
TORSDOF 7
