REMARK  7 active torsions:
REMARK  status: ('A' for Active; 'I' for Inactive)
REMARK    1  A    between atoms: C_11  and  N_12 
REMARK       I    between atoms: N_12  and  C_13 
REMARK    2  A    between atoms: C_13  and  C_14 
REMARK    3  A    between atoms: C_14  and  S_15 
REMARK    4  A    between atoms: S_15  and  C_16 
REMARK    5  A    between atoms: N_17  and  C_18 
REMARK    6  A    between atoms: C_18  and  C_19 
REMARK    7  A    between atoms: C_25  and  C_26 
ROOT
HETATM    1  N   UNL     1       9.702   0.369  -0.645  1.00  0.00    -0.326 N 
HETATM    2  C   UNL     1       9.463   0.158   0.701  1.00  0.00     0.231 C 
HETATM    3  O   UNL     1       9.969   0.810   1.616  1.00  0.00    -0.272 OA
HETATM    4  H   UNL     1       9.114  -0.153  -1.286  1.00  0.00     0.169 HD
ENDROOT
BRANCH   2   5
HETATM    5  C   UNL     1       8.567  -1.016   1.059  1.00  0.00     0.185 C 
BRANCH   5   6
HETATM    6  S   UNL     1       7.370  -1.504  -0.224  1.00  0.00    -0.081 SA
BRANCH   6   7
HETATM    7  C   UNL     1       6.327  -2.501   0.747  1.00  0.00     0.192 A 
HETATM    8  N   UNL     1       5.242  -3.213   0.289  1.00  0.00    -0.307 N 
HETATM    9  C   UNL     1       4.653  -3.730   1.426  1.00  0.00     0.135 A 
HETATM   10  N   UNL     1       5.413  -3.440   2.464  1.00  0.00    -0.134 NA
HETATM   11  N   UNL     1       6.451  -2.662   2.041  1.00  0.00    -0.123 NA
BRANCH   8  12
HETATM   12  C   UNL     1       4.975  -3.557  -1.095  1.00  0.00     0.171 C 
BRANCH  12  13
HETATM   13  C   UNL     1       3.850  -2.791  -1.744  1.00  0.00    -0.040 A 
HETATM   14  C   UNL     1       3.615  -1.430  -1.497  1.00  0.00     0.009 A 
HETATM   15  C   UNL     1       2.583  -0.755  -2.155  1.00  0.00     0.001 A 
HETATM   16  C   UNL     1       1.785  -1.424  -3.080  1.00  0.00     0.000 A 
HETATM   17  C   UNL     1       2.018  -2.768  -3.354  1.00  0.00     0.001 A 
HETATM   18  C   UNL     1       3.048  -3.444  -2.697  1.00  0.00     0.009 A 
ENDBRANCH  12  13
ENDBRANCH   8  12
BRANCH   9  19
HETATM   19  C   UNL     1       3.360  -4.495   1.682  1.00  0.00     0.057 A 
HETATM   20  C   UNL     1       2.073  -3.989   1.069  1.00  0.00     0.013 A 
HETATM   21  C   UNL     1       2.620  -5.314   0.658  1.00  0.00     0.013 A 
ENDBRANCH   9  19
ENDBRANCH   6   7
ENDBRANCH   5   6
ENDBRANCH   2   5
BRANCH   1  22
HETATM   22  C   UNL     1      10.610   1.297  -1.208  1.00  0.00     0.037 A 
HETATM   23  C   UNL     1      11.538   2.021  -0.450  1.00  0.00     0.032 A 
HETATM   24  C   UNL     1      12.426   2.913  -1.058  1.00  0.00     0.041 A 
HETATM   25  C   UNL     1      12.407   3.078  -2.436  1.00  0.00     0.096 A 
HETATM   26  O   UNL     1      13.277   3.996  -2.956  1.00  0.00    -0.335 OA
HETATM   27  C   UNL     1      11.481   2.370  -3.205  1.00  0.00     0.070 A 
HETATM   28  C   UNL     1      13.530   3.811  -4.346  1.00  0.00     0.217 C 
HETATM   29  C   UNL     1      14.171   5.091  -4.868  1.00  0.00     0.050 C 
HETATM   30  C   UNL     1      12.329   3.405  -5.217  1.00  0.00     0.251 C 
HETATM   31  N   UNL     1      11.422   2.591  -4.584  1.00  0.00    -0.323 N 
HETATM   32  O   UNL     1      12.210   3.674  -6.410  1.00  0.00    -0.270 OA
HETATM   33  H   UNL     1      10.671   2.216  -5.147  1.00  0.00     0.169 HD
HETATM   34  C   UNL     1      10.586   1.481  -2.598  1.00  0.00     0.062 A 
ENDBRANCH   1  22
TORSDOF 7
