REMARK  5 active torsions:
REMARK  status: ('A' for Active; 'I' for Inactive)
REMARK    1  A    between atoms: C_6  and  N_7 
REMARK       I    between atoms: N_7  and  C_8 
REMARK    2  A    between atoms: C_8  and  C_9 
REMARK    3  A    between atoms: C_9  and  O_10 
REMARK    4  A    between atoms: O_10  and  C_11 
REMARK    5  A    between atoms: C_20  and  C_21 
ROOT
HETATM    1  C   UNL     1       1.042   0.158  -0.035  1.00  0.00     0.073 C 
HETATM    2  C   UNL     1       2.446  -0.170  -0.387  1.00  0.00     0.065 A 
HETATM    3  N   UNL     1       3.243   0.772  -0.907  1.00  0.00    -0.177 NA
HETATM    4  N   UNL     1       4.403   0.133  -1.126  1.00  0.00    -0.262 N 
HETATM    5  H   UNL     1       5.182   0.669  -1.498  1.00  0.00     0.191 HD
HETATM    6  C   UNL     1       4.387  -1.190  -0.769  1.00  0.00     0.137 A 
HETATM    7  C   UNL     1       3.118  -1.417  -0.271  1.00  0.00     0.046 A 
ENDROOT
BRANCH   6   8
HETATM    8  N   UNL     1       5.465  -2.049  -0.842  1.00  0.00    -0.309 N 
HETATM    9  C   UNL     1       6.540  -1.988  -1.690  1.00  0.00     0.247 C 
HETATM   10  O   UNL     1       7.533  -2.679  -1.450  1.00  0.00    -0.271 OA
HETATM   11  H   UNL     1       5.487  -2.836  -0.202  1.00  0.00     0.170 HD
BRANCH   9  12
HETATM   12  C   UNL     1       6.413  -1.214  -3.001  1.00  0.00     0.278 C 
BRANCH  12  13
HETATM   13  O   UNL     1       6.619   0.183  -2.852  1.00  0.00    -0.342 OA
BRANCH  13  14
HETATM   14  C   UNL     1       6.622   0.904  -4.020  1.00  0.00     0.072 A 
HETATM   15  C   UNL     1       7.149   2.194  -3.918  1.00  0.00     0.082 A 
HETATM   16  C   UNL     1       7.199   3.013  -5.044  1.00  0.00     0.157 A 
HETATM   17  F   UNL     1       7.720   4.243  -4.936  1.00  0.00    -0.203 F 
HETATM   18  C   UNL     1       6.721   2.562  -6.266  1.00  0.00     0.155 A 
HETATM   19  F   UNL     1       6.773   3.351  -7.347  1.00  0.00    -0.203 F 
HETATM   20  C   UNL     1       6.182   1.287  -6.379  1.00  0.00     0.048 A 
HETATM   21  C   UNL     1       6.130   0.456  -5.255  1.00  0.00     0.040 A 
ENDBRANCH  13  14
ENDBRANCH  12  13
ENDBRANCH   9  12
ENDBRANCH   6   8
BRANCH   7  22
HETATM   22  C   UNL     1       2.602  -2.730   0.064  1.00  0.00    -0.020 A 
HETATM   23  C   UNL     1       3.094  -3.446   1.161  1.00  0.00     0.014 A 
HETATM   24  C   UNL     1       2.629  -4.739   1.417  1.00  0.00     0.020 A 
HETATM   25  C   UNL     1       1.668  -5.310   0.581  1.00  0.00     0.011 A 
HETATM   26 BR   UNL     1       1.057  -7.067   0.914  1.00  0.00    -0.051 Br
HETATM   27  C   UNL     1       1.160  -4.598  -0.503  1.00  0.00     0.020 A 
HETATM   28  C   UNL     1       1.627  -3.308  -0.760  1.00  0.00     0.014 A 
ENDBRANCH   7  22
TORSDOF 5
