REMARK  7 active torsions:
REMARK  status: ('A' for Active; 'I' for Inactive)
REMARK    1  A    between atoms: C_8  and  C_9 
REMARK    2  A    between atoms: C_9  and  N_10 
REMARK    3  A    between atoms: C_9  and  C_14 
REMARK       I    between atoms: C_14  and  N_15 
REMARK    4  A    between atoms: N_15  and  C_16 
REMARK    5  A    between atoms: C_16  and  C_17 
REMARK    6  A    between atoms: C_17  and  C_18 
REMARK    7  A    between atoms: C_17  and  C_24 
ROOT
HETATM    1  C   UNL     1       0.072  -2.673  -1.329  1.00  0.00     0.253 C 
HETATM    2  N   UNL     1       0.698  -1.663  -0.632  1.00  0.00    -0.358 N 
HETATM    3  O   UNL     1      -0.447  -2.513  -2.432  1.00  0.00    -0.271 OA
HETATM    4  H   UNL     1       1.308  -1.906   0.142  1.00  0.00     0.162 HD
ENDROOT
BRANCH   2   5
HETATM    5  C   UNL     1       0.893  -0.309  -1.171  1.00  0.00     0.141 C 
BRANCH   5   6
HETATM    6  C   UNL     1       0.048   0.824  -0.453  1.00  0.00     0.026 C 
HETATM    7  C   UNL     1       0.253   0.589   1.078  1.00  0.00     0.027 C 
BRANCH   6   8
HETATM    8  C   UNL     1       0.635   2.183  -0.919  1.00  0.00    -0.044 A 
HETATM    9  C   UNL     1       0.573   2.543  -2.281  1.00  0.00     0.008 A 
HETATM   10  C   UNL     1       1.111   3.748  -2.742  1.00  0.00     0.001 A 
HETATM   11  C   UNL     1       1.721   4.625  -1.853  1.00  0.00     0.000 A 
HETATM   12  C   UNL     1       1.790   4.298  -0.503  1.00  0.00     0.001 A 
HETATM   13  C   UNL     1       1.255   3.091  -0.041  1.00  0.00     0.008 A 
ENDBRANCH   6   8
BRANCH   6  14
HETATM   14  C   UNL     1      -1.477   0.780  -0.751  1.00  0.00    -0.044 A 
HETATM   15  C   UNL     1      -2.392   1.444   0.092  1.00  0.00     0.008 A 
HETATM   16  C   UNL     1      -3.767   1.447  -0.171  1.00  0.00     0.001 A 
HETATM   17  C   UNL     1      -4.263   0.806  -1.298  1.00  0.00     0.000 A 
HETATM   18  C   UNL     1      -3.382   0.177  -2.170  1.00  0.00     0.001 A 
HETATM   19  C   UNL     1      -2.008   0.174  -1.903  1.00  0.00     0.008 A 
ENDBRANCH   6  14
ENDBRANCH   5   6
ENDBRANCH   2   5
BRANCH   1  20
HETATM   20  C   UNL     1      -0.189  -3.994  -0.570  1.00  0.00     0.311 C 
BRANCH  20  21
HETATM   21  C   UNL     1       0.924  -4.426   0.330  1.00  0.00     0.031 A 
HETATM   22  C   UNL     1       1.188  -4.141   1.666  1.00  0.00     0.035 A 
HETATM   23  C   UNL     1       0.513  -3.322   2.702  1.00  0.00     0.070 C 
HETATM   24  N   UNL     1       2.341  -4.820   1.975  1.00  0.00    -0.282 N 
HETATM   25  H   UNL     1       2.844  -4.853   2.859  1.00  0.00     0.189 HD
HETATM   26  N   UNL     1       2.834  -5.512   0.949  1.00  0.00    -0.179 NA
HETATM   27  C   UNL     1       1.992  -5.292  -0.058  1.00  0.00     0.061 A 
HETATM   28  C   UNL     1       2.238  -5.943  -1.374  1.00  0.00     0.073 C 
ENDBRANCH  20  21
BRANCH  20  29
HETATM   29  N   UNL     1      -1.508  -3.898   0.125  1.00  0.00    -0.062 N 
HETATM   30  H   UNL     1      -1.522  -3.103   0.771  1.00  0.00     0.275 HD
HETATM   31  H   UNL     1      -2.242  -3.724  -0.576  1.00  0.00     0.275 HD
HETATM   32  H   UNL     1      -1.723  -4.761   0.634  1.00  0.00     0.275 HD
ENDBRANCH  20  29
ENDBRANCH   1  20
TORSDOF 7
