REMARK  13 active torsions:
REMARK  status: ('A' for Active; 'I' for Inactive)
REMARK    1  A    between atoms: C_2  and  N_3 
REMARK    2  A    between atoms: N_3  and  C_5 
REMARK    3  A    between atoms: N_3  and  C_34 
REMARK    4  A    between atoms: C_5  and  C_6 
REMARK    5  A    between atoms: C_6  and  O_7 
REMARK    6  A    between atoms: O_7  and  C_8 
REMARK    7  A    between atoms: N_15  and  N_16 
REMARK    8  A    between atoms: C_20  and  O_21 
REMARK    9  A    between atoms: O_21  and  C_22 
REMARK   10  A    between atoms: C_22  and  C_23 
REMARK   11  A    between atoms: C_23  and  N_24 
REMARK   12  A    between atoms: N_24  and  C_26 
REMARK   13  A    between atoms: N_24  and  C_28 
ROOT
HETATM    1  C   UNL     1      -0.979   2.855   2.382  1.00  0.00     0.087 A 
HETATM    2  C   UNL     1      -1.566   4.133   2.529  1.00  0.00     0.045 A 
HETATM    3 BR   UNL     1      -0.515   5.708   2.343  1.00  0.00    -0.048 Br
HETATM    4  C   UNL     1      -2.935   4.287   2.794  1.00  0.00     0.035 A 
HETATM    5  C   UNL     1      -3.709   3.146   2.931  1.00  0.00    -0.011 A 
HETATM    6  C   UNL     1      -3.114   1.873   2.823  1.00  0.00     0.009 A 
HETATM    7  C   UNL     1      -4.190   0.867   3.037  1.00  0.00     0.093 A 
HETATM    8  N   UNL     1      -4.194  -0.429   3.064  1.00  0.00    -0.203 NA
HETATM    9  C   UNL     1      -5.439   1.635   3.250  1.00  0.00     0.009 A 
HETATM   10  C   UNL     1      -5.128   2.997   3.182  1.00  0.00    -0.011 A 
HETATM   11  C   UNL     1      -6.717   1.147   3.478  1.00  0.00     0.053 A 
HETATM   12  C   UNL     1      -7.742   2.078   3.654  1.00  0.00     0.087 A 
HETATM   13  C   UNL     1      -7.446   3.462   3.566  1.00  0.00     0.045 A 
HETATM   14 BR   UNL     1      -8.824   4.758   3.771  1.00  0.00    -0.048 Br
HETATM   15  C   UNL     1      -6.140   3.929   3.336  1.00  0.00     0.035 A 
HETATM   16  C   UNL     1      -1.764   1.710   2.552  1.00  0.00     0.053 A 
ENDROOT
BRANCH   1  17
HETATM   17  O   UNL     1       0.368   2.810   2.110  1.00  0.00    -0.348 OA
BRANCH  17  18
HETATM   18  C   UNL     1       0.825   1.660   1.388  1.00  0.00     0.203 C 
BRANCH  18  19
HETATM   19  C   UNL     1       2.205   1.990   0.805  1.00  0.00     0.261 C 
BRANCH  19  20
HETATM   20  N   UNL     1       3.149   2.560   1.862  1.00  0.00    -0.070 N 
HETATM   21  H   UNL     1       2.627   3.355   2.267  1.00  0.00     0.279 HD
BRANCH  20  22
HETATM   22  C   UNL     1       4.425   3.133   1.271  1.00  0.00     0.230 C 
HETATM   23  C   UNL     1       4.163   4.472   0.606  1.00  0.00     0.034 C 
ENDBRANCH  20  22
BRANCH  20  24
HETATM   24  C   UNL     1       3.424   1.649   3.045  1.00  0.00     0.230 C 
HETATM   25  C   UNL     1       4.086   0.347   2.634  1.00  0.00     0.034 C 
ENDBRANCH  20  24
ENDBRANCH  19  20
ENDBRANCH  18  19
ENDBRANCH  17  18
ENDBRANCH   1  17
BRANCH   8  26
HETATM   26  N   UNL     1      -3.013  -1.054   2.893  1.00  0.00    -0.226 NA
HETATM   27  H   UNL     1      -3.173  -1.893   2.322  1.00  0.00     0.145 HD
HETATM   28  H   UNL     1      -2.729  -1.464   3.790  1.00  0.00     0.145 HD
ENDBRANCH   8  26
BRANCH  12  29
HETATM   29  O   UNL     1      -9.052   1.729   3.882  1.00  0.00    -0.348 OA
BRANCH  29  30
HETATM   30  C   UNL     1      -9.276   0.432   4.445  1.00  0.00     0.203 C 
BRANCH  30  31
HETATM   31  C   UNL     1     -10.717   0.388   4.966  1.00  0.00     0.261 C 
BRANCH  31  32
HETATM   32  N   UNL     1     -11.729   0.837   3.908  1.00  0.00    -0.070 N 
HETATM   33  H   UNL     1     -11.369   1.755   3.599  1.00  0.00     0.279 HD
BRANCH  32  34
HETATM   34  C   UNL     1     -11.766  -0.015   2.655  1.00  0.00     0.230 C 
HETATM   35  C   UNL     1     -12.230  -1.435   2.921  1.00  0.00     0.034 C 
ENDBRANCH  32  34
BRANCH  32  36
HETATM   36  C   UNL     1     -13.078   1.111   4.549  1.00  0.00     0.230 C 
HETATM   37  C   UNL     1     -14.042   1.774   3.583  1.00  0.00     0.034 C 
ENDBRANCH  32  36
ENDBRANCH  31  32
ENDBRANCH  30  31
ENDBRANCH  29  30
ENDBRANCH  12  29
TORSDOF 13
