REMARK  9 active torsions:
REMARK  status: ('A' for Active; 'I' for Inactive)
REMARK    1  A    between atoms: C_2  and  O_3 
REMARK    2  A    between atoms: O_3  and  C_4 
REMARK    3  A    between atoms: C_7  and  C_8 
REMARK       I    between atoms: C_8  and  N_9 
REMARK    4  A    between atoms: N_9  and  C_10 
REMARK    5  A    between atoms: C_10  and  N_11 
REMARK    6  A    between atoms: N_11  and  C_12 
REMARK    7  A    between atoms: C_15  and  N_16 
REMARK    8  A    between atoms: N_19  and  C_21 
REMARK    9  A    between atoms: C_21  and  C_22 
ROOT
HETATM    1  C   UNL     1       7.402   0.263   1.232  1.00  0.00     0.034 A 
HETATM    2  C   UNL     1       7.703  -1.093   1.253  1.00  0.00     0.032 A 
HETATM    3  C   UNL     1       6.700  -2.042   1.465  1.00  0.00     0.031 A 
HETATM    4  C   UNL     1       5.363  -1.680   1.673  1.00  0.00     0.030 A 
HETATM    5  C   UNL     1       5.095  -0.306   1.750  1.00  0.00     0.031 A 
HETATM    6  C   UNL     1       6.102   0.655   1.545  1.00  0.00     0.032 A 
ENDROOT
BRANCH   1   7
HETATM    7  N   UNL     1       8.360   1.253   0.933  1.00  0.00    -0.333 N 
HETATM    8  H   UNL     1       8.139   2.205   1.232  1.00  0.00     0.168 HD
BRANCH   7   9
HETATM    9  C   UNL     1       9.435   1.178   0.076  1.00  0.00     0.179 C 
HETATM   10  S   UNL     1       9.843  -0.031  -1.011  1.00  0.00    -0.040 SA
BRANCH   9  11
HETATM   11  N   UNL     1      10.281   2.267   0.081  1.00  0.00    -0.299 N 
HETATM   12  C   UNL     1      10.229   3.446   0.813  1.00  0.00     0.257 C 
HETATM   13  O   UNL     1       9.273   3.784   1.501  1.00  0.00    -0.267 OA
HETATM   14  H   UNL     1      11.031   2.165  -0.589  1.00  0.00     0.171 HD
BRANCH  12  15
HETATM   15  C   UNL     1      11.405   4.339   0.607  1.00  0.00     0.032 A 
HETATM   16  C   UNL     1      11.215   5.722   0.588  1.00  0.00     0.020 A 
HETATM   17  C   UNL     1      12.286   6.564   0.267  1.00  0.00     0.038 A 
HETATM   18  C   UNL     1      13.543   6.033  -0.039  1.00  0.00     0.068 A 
HETATM   19  C   UNL     1      13.749   4.657   0.056  1.00  0.00     0.038 A 
HETATM   20  C   UNL     1      12.685   3.811   0.381  1.00  0.00     0.020 A 
BRANCH  18  21
HETATM   21  O   UNL     1      14.494   6.946  -0.403  1.00  0.00    -0.352 OA
BRANCH  21  22
HETATM   22  C   UNL     1      15.584   6.438  -1.176  1.00  0.00     0.171 C 
HETATM   23  C   UNL     1      16.315   7.611  -1.801  1.00  0.00     0.034 C 
ENDBRANCH  21  22
ENDBRANCH  18  21
ENDBRANCH  12  15
ENDBRANCH   9  11
ENDBRANCH   7   9
ENDBRANCH   1   7
BRANCH   4  24
HETATM   24  N   UNL     1       4.392  -2.651   1.813  1.00  0.00    -0.378 N 
HETATM   25  C   UNL     1       3.155  -2.454   2.571  1.00  0.00     0.150 C 
HETATM   26  C   UNL     1       2.919  -3.685   3.482  1.00  0.00     0.255 C 
HETATM   27  N   UNL     1       3.007  -5.003   2.702  1.00  0.00    -0.064 N 
HETATM   28  H   UNL     1       2.220  -5.024   2.039  1.00  0.00     0.280 HD
HETATM   29  C   UNL     1       4.285  -5.091   1.866  1.00  0.00     0.255 C 
HETATM   30  C   UNL     1       4.425  -3.853   0.968  1.00  0.00     0.150 C 
BRANCH  27  31
HETATM   31  C   UNL     1       2.867  -6.213   3.592  1.00  0.00     0.276 C 
BRANCH  31  32
HETATM   32  C   UNL     1       1.486  -6.400   4.142  1.00  0.00     0.006 A 
HETATM   33  C   UNL     1       0.423  -6.634   3.265  1.00  0.00     0.124 A 
HETATM   34  F   UNL     1       0.662  -6.632   1.945  1.00  0.00    -0.206 F 
HETATM   35  C   UNL     1      -0.870  -6.841   3.726  1.00  0.00     0.043 A 
HETATM   36  C   UNL     1      -1.117  -6.810   5.096  1.00  0.00     0.003 A 
HETATM   37  C   UNL     1      -0.070  -6.573   5.989  1.00  0.00     0.001 A 
HETATM   38  C   UNL     1       1.228  -6.371   5.518  1.00  0.00     0.012 A 
ENDBRANCH  31  32
ENDBRANCH  27  31
ENDBRANCH   4  24
TORSDOF 9
