REMARK  4 active torsions:
REMARK  status: ('A' for Active; 'I' for Inactive)
REMARK    1  A    between atoms: C_5  and  C_6 
REMARK    2  A    between atoms: C_6  and  N_7 
REMARK    3  A    between atoms: C_6  and  C_18 
REMARK    4  A    between atoms: N_7  and  C_8 
ROOT
HETATM    1  C   UNL     1      -1.151  -2.276  -0.364  1.00  0.00     0.288 C 
ENDROOT
BRANCH   1   2
HETATM    2  C   UNL     1      -0.891  -3.113  -1.608  1.00  0.00    -0.003 A 
HETATM    3  C   UNL     1      -1.966  -3.703  -2.274  1.00  0.00     0.126 A 
HETATM    4  N   UNL     1      -1.852  -4.488  -3.368  1.00  0.00    -0.272 NA
HETATM    5  C   UNL     1      -0.610  -4.694  -3.848  1.00  0.00     0.116 A 
HETATM    6  C   UNL     1       0.528  -4.162  -3.270  1.00  0.00     0.020 A 
HETATM    7  C   UNL     1       0.383  -3.368  -2.133  1.00  0.00     0.012 A 
ENDBRANCH   1   2
BRANCH   1   8
HETATM    8  N   UNL     1      -0.963  -3.052   0.890  1.00  0.00     0.101 NA
HETATM    9  H   UNL     1      -1.659  -3.801   0.865  1.00  0.00     0.317 HD
BRANCH   8  10
HETATM   10  C   UNL     1       0.354  -3.621   1.201  1.00  0.00     0.225 C 
HETATM   11  C   UNL     1       1.449  -2.562   1.451  1.00  0.00     0.069 C 
HETATM   12  C   UNL     1       2.727  -3.225   1.926  1.00  0.00     0.190 C 
HETATM   13  N   UNL     1       2.433  -3.977   3.193  1.00  0.00    -0.067 N 
HETATM   14  C   UNL     1       3.849  -2.312   2.377  1.00  0.00     0.035 C 
HETATM   15  H   UNL     1       1.984  -3.322   3.852  1.00  0.00     0.280 HD
HETATM   16  C   UNL     1       1.480  -5.103   2.971  1.00  0.00     0.237 C 
HETATM   17  C   UNL     1       3.776  -4.310   3.789  1.00  0.00     0.235 C 
HETATM   18  C   UNL     1       0.169  -4.514   2.455  1.00  0.00     0.063 C 
HETATM   19  C   UNL     1       4.711  -3.232   3.239  1.00  0.00     0.030 C 
ENDBRANCH   8  10
ENDBRANCH   1   8
BRANCH   1  20
HETATM   20  C   UNL     1      -0.593  -0.849  -0.307  1.00  0.00    -0.021 A 
HETATM   21  C   UNL     1      -0.005  -0.204  -1.411  1.00  0.00     0.012 A 
HETATM   22  C   UNL     1       0.465   1.110  -1.311  1.00  0.00     0.043 A 
HETATM   23  C   UNL     1       0.321   1.805  -0.119  1.00  0.00     0.116 A 
HETATM   24  F   UNL     1       0.776   3.060  -0.025  1.00  0.00    -0.206 F 
HETATM   25  C   UNL     1      -0.300   1.219   0.973  1.00  0.00     0.043 A 
HETATM   26  C   UNL     1      -0.765  -0.093   0.875  1.00  0.00     0.012 A 
ENDBRANCH   1  20
TORSDOF 4
