REMARK  5 active torsions:
REMARK  status: ('A' for Active; 'I' for Inactive)
REMARK       I    between atoms: C_2  and  N_3 
REMARK    1  A    between atoms: N_3  and  C_4 
REMARK    2  A    between atoms: C_7  and  C_8 
REMARK    3  A    between atoms: C_8  and  N_9 
REMARK    4  A    between atoms: C_12  and  C_13 
REMARK    5  A    between atoms: C_14  and  O_15 
ROOT
HETATM    1  N   UNL     1       1.466   7.416   0.096  1.00  0.00    -0.060 N 
HETATM    2  H   UNL     1       1.204   7.881  -0.779  1.00  0.00     0.280 HD
HETATM    3  C   UNL     1       2.961   7.085   0.042  1.00  0.00     0.272 C 
HETATM    4  C   UNL     1       3.906   8.282  -0.241  1.00  0.00     0.190 C 
HETATM    5  O   UNL     1       3.843   9.234   0.848  1.00  0.00    -0.339 OA
HETATM    6  C   UNL     1       2.846  10.161   0.741  1.00  0.00     0.077 A 
HETATM    7  C   UNL     1       1.506   9.802   0.872  1.00  0.00     0.001 A 
HETATM    8  C   UNL     1       1.133   8.393   1.197  1.00  0.00     0.276 C 
HETATM    9  C   UNL     1       3.216  11.496   0.592  1.00  0.00     0.037 A 
HETATM   10  C   UNL     1       2.239  12.483   0.492  1.00  0.00     0.003 A 
HETATM   11  C   UNL     1       0.894  12.135   0.568  1.00  0.00     0.001 A 
HETATM   12  C   UNL     1       0.526  10.802   0.766  1.00  0.00     0.012 A 
ENDROOT
BRANCH   1  13
HETATM   13  C   UNL     1       0.602   6.180   0.231  1.00  0.00     0.273 C 
BRANCH  13  14
HETATM   14  C   UNL     1       0.751   5.178  -0.881  1.00  0.00    -0.032 A 
HETATM   15  C   UNL     1       1.476   3.998  -0.667  1.00  0.00     0.011 A 
HETATM   16  C   UNL     1       1.618   3.050  -1.686  1.00  0.00     0.030 A 
HETATM   17  C   UNL     1       1.034   3.253  -2.935  1.00  0.00     0.034 A 
HETATM   18  C   UNL     1       0.311   4.433  -3.152  1.00  0.00     0.030 A 
HETATM   19  C   UNL     1       0.173   5.390  -2.138  1.00  0.00     0.011 A 
BRANCH  17  20
HETATM   20  N   UNL     1       1.109   2.328  -3.997  1.00  0.00    -0.328 N 
HETATM   21  C   UNL     1       1.781   1.116  -4.004  1.00  0.00     0.218 C 
HETATM   22  C   UNL     1       1.590   0.345  -5.287  1.00  0.00     0.117 C 
HETATM   23  O   UNL     1       2.454   0.651  -3.091  1.00  0.00    -0.274 OA
HETATM   24  H   UNL     1       0.607   2.570  -4.842  1.00  0.00     0.169 HD
ENDBRANCH  17  20
ENDBRANCH  13  14
ENDBRANCH   1  13
BRANCH   4  25
HETATM   25  C   UNL     1       3.943   8.878  -1.655  1.00  0.00     0.006 A 
HETATM   26  C   UNL     1       4.940   9.832  -1.976  1.00  0.00     0.077 A 
HETATM   27  C   UNL     1       4.978  10.413  -3.248  1.00  0.00     0.037 A 
HETATM   28  C   UNL     1       4.059  10.035  -4.224  1.00  0.00     0.003 A 
HETATM   29  C   UNL     1       3.112   9.059  -3.943  1.00  0.00     0.001 A 
HETATM   30  C   UNL     1       3.061   8.476  -2.675  1.00  0.00     0.012 A 
BRANCH  26  31
HETATM   31  O   UNL     1       5.846  10.104  -0.982  1.00  0.00    -0.355 OA
HETATM   32  C   UNL     1       6.842  11.087  -1.243  1.00  0.00     0.210 C 
ENDBRANCH  26  31
ENDBRANCH   4  25
TORSDOF 5
