REMARK  8 active torsions:
REMARK  status: ('A' for Active; 'I' for Inactive)
REMARK    1  A    between atoms: C_2  and  C_3 
REMARK    2  A    between atoms: C_3  and  C_4 
REMARK       I    between atoms: C_4  and  N_5 
REMARK    3  A    between atoms: N_8  and  C_9 
REMARK    4  A    between atoms: C_12  and  N_13 
REMARK    5  A    between atoms: N_13  and  C_14 
REMARK    6  A    between atoms: C_14  and  N_15 
REMARK       I    between atoms: N_15  and  C_16 
REMARK    7  A    between atoms: C_16  and  C_17 
REMARK    8  A    between atoms: C_18  and  O_19 
ROOT
HETATM    1  C   UNL     1       8.360  -1.759   2.242  1.00  0.00     0.030 A 
HETATM    2  C   UNL     1       9.145  -0.987   3.110  1.00  0.00     0.031 A 
HETATM    3  C   UNL     1       9.942  -1.566   4.105  1.00  0.00     0.032 A 
HETATM    4  C   UNL     1       9.979  -2.948   4.267  1.00  0.00     0.034 A 
HETATM    5  C   UNL     1       9.275  -3.745   3.370  1.00  0.00     0.032 A 
HETATM    6  C   UNL     1       8.461  -3.153   2.390  1.00  0.00     0.031 A 
ENDROOT
BRANCH   4   7
HETATM    7  N   UNL     1      10.751  -3.559   5.279  1.00  0.00    -0.333 N 
HETATM    8  H   UNL     1      10.897  -4.556   5.181  1.00  0.00     0.168 HD
BRANCH   7   9
HETATM    9  C   UNL     1      11.010  -3.031   6.547  1.00  0.00     0.179 C 
HETATM   10  S   UNL     1       9.930  -2.096   7.424  1.00  0.00    -0.040 SA
BRANCH   9  11
HETATM   11  N   UNL     1      12.287  -3.426   6.982  1.00  0.00    -0.299 N 
HETATM   12  C   UNL     1      13.084  -3.069   8.071  1.00  0.00     0.260 C 
HETATM   13  O   UNL     1      13.925  -3.854   8.500  1.00  0.00    -0.267 OA
HETATM   14  H   UNL     1      12.622  -4.287   6.575  1.00  0.00     0.171 HD
BRANCH  12  15
HETATM   15  C   UNL     1      12.976  -1.702   8.624  1.00  0.00     0.067 A 
HETATM   16  C   UNL     1      12.757  -1.491   9.993  1.00  0.00     0.084 A 
HETATM   17  C   UNL     1      12.634  -0.180  10.468  1.00  0.00     0.039 A 
HETATM   18  C   UNL     1      12.770   0.903   9.594  1.00  0.00     0.026 A 
HETATM   19  C   UNL     1      13.029   0.680   8.243  1.00  0.00     0.035 A 
HETATM   20 CL   UNL     1      13.194   2.016   7.172  1.00  0.00    -0.084 Cl
HETATM   21  C   UNL     1      13.142  -0.616   7.751  1.00  0.00     0.043 A 
BRANCH  16  22
HETATM   22  O   UNL     1      12.572  -2.583  10.797  1.00  0.00    -0.355 OA
HETATM   23  C   UNL     1      13.190  -2.482  12.077  1.00  0.00     0.210 C 
ENDBRANCH  16  22
ENDBRANCH  12  15
ENDBRANCH   9  11
ENDBRANCH   7   9
ENDBRANCH   4   7
BRANCH   1  24
HETATM   24  N   UNL     1       7.456  -1.193   1.336  1.00  0.00    -0.378 N 
HETATM   25  C   UNL     1       7.443  -1.724  -0.043  1.00  0.00     0.143 C 
HETATM   26  C   UNL     1       6.116  -1.369  -0.748  1.00  0.00     0.145 C 
HETATM   27  N   UNL     1       5.761   0.054  -0.653  1.00  0.00    -0.349 N 
HETATM   28  C   UNL     1       4.845   0.677  -1.498  1.00  0.00     0.219 C 
HETATM   29  C   UNL     1       5.917   0.643   0.680  1.00  0.00     0.145 C 
HETATM   30  O   UNL     1       4.388   1.794  -1.250  1.00  0.00    -0.273 OA
HETATM   31  C   UNL     1       7.231   0.268   1.378  1.00  0.00     0.143 C 
BRANCH  28  32
HETATM   32  C   UNL     1       4.436  -0.081  -2.751  1.00  0.00     0.103 C 
BRANCH  32  33
HETATM   33  C   UNL     1       3.395   0.686  -3.569  1.00  0.00     0.005 C 
HETATM   34  C   UNL     1       2.935  -0.109  -4.779  1.00  0.00     0.005 C 
ENDBRANCH  32  33
ENDBRANCH  28  32
ENDBRANCH   1  24
TORSDOF 8
