REMARK  7 active torsions:
REMARK  status: ('A' for Active; 'I' for Inactive)
REMARK    1  A    between atoms: N_3  and  C_4 
REMARK    2  A    between atoms: C_12  and  C_13 
REMARK       I    between atoms: C_13  and  N_14 
REMARK    3  A    between atoms: N_14  and  C_15 
REMARK    4  A    between atoms: C_15  and  C_16 
REMARK    5  A    between atoms: C_16  and  O_17 
REMARK    6  A    between atoms: C_16  and  C_18 
REMARK    7  A    between atoms: C_21  and  O_22 
ROOT
HETATM    1  C   UNL     1      -0.754   0.060  -5.214  1.00  0.00     0.255 C 
HETATM    2  N   UNL     1      -0.102  -0.114  -4.017  1.00  0.00    -0.350 N 
HETATM    3  O   UNL     1      -1.145  -0.891  -5.885  1.00  0.00    -0.268 OA
HETATM    4  H   UNL     1       0.229   0.682  -3.493  1.00  0.00     0.163 HD
ENDROOT
BRANCH   2   5
HETATM    5  C   UNL     1       0.251  -1.448  -3.514  1.00  0.00     0.114 C 
HETATM    6  C   UNL     1       1.507  -1.945  -4.235  1.00  0.00     0.035 C 
BRANCH   5   7
HETATM    7  C   UNL     1       0.400  -1.413  -1.967  1.00  0.00     0.173 C 
BRANCH   7   8
HETATM    8  O   UNL     1       1.614  -0.758  -1.584  1.00  0.00    -0.389 OA
HETATM    9  H   UNL     1       1.796  -1.017  -0.664  1.00  0.00     0.210 HD
ENDBRANCH   7   8
BRANCH   7  10
HETATM   10  C   UNL     1       0.274  -2.777  -1.315  1.00  0.00    -0.028 A 
HETATM   11  C   UNL     1      -0.978  -3.204  -0.852  1.00  0.00     0.012 A 
HETATM   12  C   UNL     1      -1.131  -4.466  -0.274  1.00  0.00     0.037 A 
HETATM   13  C   UNL     1      -0.043  -5.331  -0.154  1.00  0.00     0.068 A 
HETATM   14  C   UNL     1       1.209  -4.915  -0.607  1.00  0.00     0.037 A 
HETATM   15  C   UNL     1       1.366  -3.647  -1.182  1.00  0.00     0.012 A 
BRANCH  13  16
HETATM   16  O   UNL     1      -0.335  -6.537   0.420  1.00  0.00    -0.356 OA
HETATM   17  C   UNL     1       0.702  -7.508   0.439  1.00  0.00     0.210 C 
ENDBRANCH  13  16
ENDBRANCH   7  10
ENDBRANCH   5   7
ENDBRANCH   2   5
BRANCH   1  18
HETATM   18  C   UNL     1      -1.020   1.429  -5.633  1.00  0.00     0.075 C 
HETATM   19  C   UNL     1      -0.489   2.660  -5.250  1.00  0.00     0.051 C 
HETATM   20  C   UNL     1       0.633   3.006  -4.336  1.00  0.00     0.071 C 
HETATM   21  N   UNL     1      -1.217   3.633  -5.947  1.00  0.00    -0.220 N 
HETATM   22  N   UNL     1      -2.045   3.065  -6.867  1.00  0.00    -0.177 NA
HETATM   23  C   UNL     1      -1.938   1.759  -6.653  1.00  0.00     0.158 C 
BRANCH  21  24
HETATM   24  C   UNL     1      -1.193   5.063  -5.795  1.00  0.00     0.150 A 
HETATM   25  N   UNL     1      -0.475   5.617  -4.780  1.00  0.00    -0.241 NA
HETATM   26  C   UNL     1      -0.498   6.963  -4.663  1.00  0.00     0.119 A 
HETATM   27  C   UNL     1      -1.201   7.802  -5.510  1.00  0.00     0.019 A 
HETATM   28  C   UNL     1      -1.933   7.228  -6.540  1.00  0.00     0.005 A 
HETATM   29  C   UNL     1      -1.935   5.842  -6.686  1.00  0.00     0.052 A 
ENDBRANCH  21  24
ENDBRANCH   1  18
TORSDOF 7
