REMARK  8 active torsions:
REMARK  status: ('A' for Active; 'I' for Inactive)
REMARK    1  A    between atoms: C_6  and  N_7 
REMARK       I    between atoms: N_7  and  C_8 
REMARK    2  A    between atoms: C_8  and  C_9 
REMARK    3  A    between atoms: C_9  and  N_10 
REMARK    4  A    between atoms: C_13  and  C_14 
REMARK       I    between atoms: C_14  and  N_15 
REMARK    5  A    between atoms: N_15  and  C_16 
REMARK    6  A    between atoms: C_16  and  C_17 
REMARK    7  A    between atoms: C_20  and  O_21 
REMARK    8  A    between atoms: C_26  and  N_27 
ROOT
HETATM    1  N   UNL     1       5.007  -1.793   0.172  1.00  0.00    -0.248 N 
HETATM    2  N   UNL     1       4.229  -2.833  -0.198  1.00  0.00     0.007 NA
HETATM    3  N   UNL     1       3.107  -2.331  -0.688  1.00  0.00    -0.150 NA
HETATM    4  C   UNL     1       3.175  -0.954  -0.612  1.00  0.00     0.186 A 
HETATM    5  C   UNL     1       4.396  -0.589  -0.069  1.00  0.00     0.151 A 
ENDROOT
BRANCH   1   6
HETATM    6  C   UNL     1       6.287  -2.063   0.780  1.00  0.00     0.251 C 
BRANCH   6   7
HETATM    7  C   UNL     1       7.358  -2.329  -0.254  1.00  0.00     0.241 C 
HETATM    8  N   UNL     1       7.023  -3.309  -1.177  1.00  0.00    -0.325 N 
HETATM    9  H   UNL     1       6.190  -3.846  -0.956  1.00  0.00     0.169 HD
HETATM   10  O   UNL     1       8.451  -1.778  -0.147  1.00  0.00    -0.271 OA
BRANCH   8  11
HETATM   11  C   UNL     1       7.863  -3.858  -2.177  1.00  0.00     0.046 A 
HETATM   12  C   UNL     1       7.731  -5.245  -2.437  1.00  0.00    -0.034 A 
HETATM   13  C   UNL     1       8.590  -5.869  -3.360  1.00  0.00     0.015 A 
HETATM   14  C   UNL     1       6.722  -6.109  -1.722  1.00  0.00     0.050 C 
HETATM   15  C   UNL     1       9.562  -5.142  -4.044  1.00  0.00    -0.061 A 
HETATM   16  C   UNL     1      10.506  -5.811  -4.997  1.00  0.00     0.048 C 
HETATM   17  C   UNL     1       9.642  -3.764  -3.831  1.00  0.00     0.015 A 
HETATM   18  C   UNL     1       8.779  -3.102  -2.935  1.00  0.00    -0.034 A 
HETATM   19  C   UNL     1       8.870  -1.599  -2.911  1.00  0.00     0.050 C 
ENDBRANCH   8  11
ENDBRANCH   6   7
ENDBRANCH   1   6
BRANCH   5  20
HETATM   20  N   UNL     1       4.945   0.612   0.219  1.00  0.00    -0.382 N 
HETATM   21  H   UNL     1       4.455   1.460  -0.081  1.00  0.00     0.157 HD
HETATM   22  H   UNL     1       5.940   0.764   0.363  1.00  0.00     0.157 HD
ENDBRANCH   5  20
BRANCH   4  23
HETATM   23  C   UNL     1       2.085  -0.092  -1.048  1.00  0.00     0.275 C 
HETATM   24  N   UNL     1       0.992  -0.796  -1.488  1.00  0.00    -0.351 N 
HETATM   25  H   UNL     1       1.066  -1.808  -1.525  1.00  0.00     0.163 HD
HETATM   26  O   UNL     1       2.133   1.134  -1.016  1.00  0.00    -0.266 OA
BRANCH  24  27
HETATM   27  C   UNL     1      -0.231  -0.166  -1.912  1.00  0.00     0.161 C 
BRANCH  27  28
HETATM   28  C   UNL     1      -1.359  -1.161  -1.855  1.00  0.00    -0.040 A 
HETATM   29  C   UNL     1      -1.841  -1.601  -0.615  1.00  0.00     0.011 A 
HETATM   30  C   UNL     1      -2.830  -2.584  -0.549  1.00  0.00     0.037 A 
HETATM   31  C   UNL     1      -3.351  -3.147  -1.715  1.00  0.00     0.068 A 
HETATM   32  C   UNL     1      -2.888  -2.702  -2.953  1.00  0.00     0.037 A 
HETATM   33  C   UNL     1      -1.894  -1.718  -3.023  1.00  0.00     0.011 A 
BRANCH  31  34
HETATM   34  O   UNL     1      -4.297  -4.113  -1.508  1.00  0.00    -0.356 OA
HETATM   35  C   UNL     1      -4.754  -4.818  -2.655  1.00  0.00     0.210 C 
ENDBRANCH  31  34
ENDBRANCH  27  28
ENDBRANCH  24  27
ENDBRANCH   4  23
TORSDOF 8
