REMARK  4 active torsions:
REMARK  status: ('A' for Active; 'I' for Inactive)
REMARK    1  A    between atoms: C_5  and  C_6 
REMARK    2  A    between atoms: C_12  and  C_13 
REMARK    3  A    between atoms: C_13  and  N_14 
REMARK       I    between atoms: N_14  and  C_15 
REMARK       I    between atoms: C_15  and  N_16 
REMARK    4  A    between atoms: N_16  and  C_17 
ROOT
HETATM    1  C   UNL     1       2.685  -2.431   0.219  1.00  0.00     0.168 C 
ENDROOT
BRANCH   1   2
HETATM    2  C   UNL     1       3.172  -1.025   0.268  1.00  0.00     0.023 A 
HETATM    3  C   UNL     1       2.486   0.169   0.138  1.00  0.00     0.085 A 
HETATM    4  C   UNL     1       1.075   0.550  -0.078  1.00  0.00     0.079 C 
HETATM    5  O   UNL     1       3.357   1.205   0.222  1.00  0.00    -0.217 OA
HETATM    6  N   UNL     1       4.633   0.729   0.396  1.00  0.00    -0.127 NA
HETATM    7  C   UNL     1       4.537  -0.607   0.436  1.00  0.00     0.105 A 
BRANCH   7   8
HETATM    8  C   UNL     1       5.736  -1.426   0.595  1.00  0.00    -0.004 A 
HETATM    9  C   UNL     1       5.789  -2.465   1.533  1.00  0.00     0.014 A 
HETATM   10  C   UNL     1       6.941  -3.245   1.660  1.00  0.00     0.001 A 
HETATM   11  C   UNL     1       8.053  -2.987   0.859  1.00  0.00     0.000 A 
HETATM   12  C   UNL     1       8.018  -1.944  -0.064  1.00  0.00     0.001 A 
HETATM   13  C   UNL     1       6.866  -1.165  -0.195  1.00  0.00     0.014 A 
ENDBRANCH   7   8
ENDBRANCH   1   2
BRANCH   1  14
HETATM   14  N   UNL     1       1.252  -2.493   0.042  1.00  0.00    -0.338 N 
HETATM   15  C   UNL     1       0.507  -3.116  -0.911  1.00  0.00     0.320 C 
HETATM   16  N   UNL     1       1.177  -3.527  -2.028  1.00  0.00    -0.309 N 
HETATM   17  O   UNL     1      -0.690  -3.251  -0.683  1.00  0.00    -0.247 OA
HETATM   18  H   UNL     1       2.072  -3.099  -2.196  1.00  0.00     0.170 HD
HETATM   19  H   UNL     1       0.686  -2.253   0.846  1.00  0.00     0.164 HD
BRANCH  16  20
HETATM   20  C   UNL     1       0.680  -4.330  -3.078  1.00  0.00     0.036 A 
HETATM   21  C   UNL     1      -0.572  -4.949  -3.061  1.00  0.00     0.029 A 
HETATM   22  C   UNL     1      -0.986  -5.744  -4.135  1.00  0.00     0.002 A 
HETATM   23  C   UNL     1      -0.149  -5.934  -5.231  1.00  0.00     0.000 A 
HETATM   24  C   UNL     1       1.104  -5.329  -5.256  1.00  0.00     0.002 A 
HETATM   25  C   UNL     1       1.516  -4.531  -4.185  1.00  0.00     0.029 A 
ENDBRANCH  16  20
ENDBRANCH   1  14
TORSDOF 4
