REMARK  3 active torsions:
REMARK  status: ('A' for Active; 'I' for Inactive)
REMARK    1  A    between atoms: C_2  and  C_3 
REMARK    2  A    between atoms: C_7  and  N_8 
REMARK       I    between atoms: N_8  and  C_9 
REMARK    3  A    between atoms: C_9  and  C_10 
ROOT
HETATM    1  N   UNL     1       4.679   3.353   2.468  1.00  0.00    -0.311 N 
HETATM    2  C   UNL     1       4.694   4.626   3.014  1.00  0.00     0.234 C 
HETATM    3  O   UNL     1       5.328   4.930   4.027  1.00  0.00    -0.272 OA
HETATM    4  H   UNL     1       4.140   3.163   1.629  1.00  0.00     0.170 HD
ENDROOT
BRANCH   2   5
HETATM    5  C   UNL     1       3.908   5.680   2.251  1.00  0.00     0.138 C 
HETATM    6  C   UNL     1       2.569   5.243   1.775  1.00  0.00    -0.008 A 
HETATM    7  C   UNL     1       2.611   5.054   0.402  1.00  0.00     0.076 A 
HETATM    8  C   UNL     1       1.414   4.981   2.494  1.00  0.00     0.030 A 
HETATM    9  C   UNL     1       1.521   4.594  -0.308  1.00  0.00     0.039 A 
HETATM   10  O   UNL     1       3.835   5.314  -0.152  1.00  0.00    -0.349 OA
HETATM   11  C   UNL     1       0.345   4.331   0.399  1.00  0.00     0.022 A 
HETATM   12  C   UNL     1       0.297   4.524   1.789  1.00  0.00     0.011 A 
HETATM   13 BR   UNL     1      -1.302   4.146   2.725  1.00  0.00    -0.051 Br
HETATM   14  C   UNL     1       4.566   5.991   0.903  1.00  0.00     0.194 C 
ENDBRANCH   2   5
BRANCH   1  15
HETATM   15  C   UNL     1       5.339   2.295   3.060  1.00  0.00     0.126 A 
HETATM   16  N   UNL     1       6.101   2.389   4.196  1.00  0.00    -0.262 N 
HETATM   17  N   UNL     1       6.638   1.218   4.582  1.00  0.00    -0.178 NA
HETATM   18  H   UNL     1       6.279   3.230   4.739  1.00  0.00     0.191 HD
HETATM   19  C   UNL     1       6.197   0.346   3.667  1.00  0.00     0.058 A 
HETATM   20  C   UNL     1       5.388   0.974   2.688  1.00  0.00     0.079 A 
BRANCH  19  21
HETATM   21  C   UNL     1       6.568  -1.096   3.760  1.00  0.00     0.056 C 
HETATM   22  C   UNL     1       5.658  -1.866   4.706  1.00  0.00     0.011 C 
ENDBRANCH  19  21
ENDBRANCH   1  15
TORSDOF 3
