REMARK  7 active torsions:
REMARK  status: ('A' for Active; 'I' for Inactive)
REMARK    1  A    between atoms: C_2  and  O_3 
REMARK    2  A    between atoms: O_3  and  C_4 
REMARK    3  A    between atoms: C_4  and  C_5 
REMARK    4  A    between atoms: C_8  and  N_9 
REMARK       I    between atoms: N_9  and  C_10 
REMARK    5  A    between atoms: C_10  and  C_11 
REMARK    6  A    between atoms: C_11  and  N_12 
REMARK    7  A    between atoms: C_18  and  C_19 
ROOT
HETATM    1  N   UNL     1       6.542  -3.107  -1.119  1.00  0.00    -0.063 N 
HETATM    2  H   UNL     1       5.798  -3.817  -1.260  1.00  0.00     0.280 HD
HETATM    3  C   UNL     1       7.210  -3.505   0.183  1.00  0.00     0.240 C 
HETATM    4  C   UNL     1       6.900  -2.516   1.290  1.00  0.00     0.083 C 
HETATM    5  C   UNL     1       7.263  -1.082   0.883  1.00  0.00     0.131 A 
HETATM    6  N   UNL     1       6.573  -0.176   1.836  1.00  0.00    -0.251 NA
HETATM    7  C   UNL     1       7.502   0.501   2.461  1.00  0.00     0.132 A 
HETATM    8  C   UNL     1       8.883   0.152   1.957  1.00  0.00     0.272 A 
HETATM    9  O   UNL     1       9.940   0.652   2.254  1.00  0.00    -0.266 OA
HETATM   10  N   UNL     1       8.663  -0.834   1.047  1.00  0.00    -0.327 N 
HETATM   11  C   UNL     1       6.808  -0.720  -0.540  1.00  0.00     0.083 C 
HETATM   12  C   UNL     1       5.864  -1.764  -1.104  1.00  0.00     0.240 C 
HETATM   13  H   UNL     1       9.437  -1.182   0.495  1.00  0.00     0.165 HD
ENDROOT
BRANCH   1  14
HETATM   14  C   UNL     1       7.461  -3.337  -2.343  1.00  0.00     0.337 C 
BRANCH  14  15
HETATM   15  C   UNL     1       7.630  -4.830  -2.608  1.00  0.00     0.248 C 
HETATM   16  N   UNL     1       8.675  -5.341  -3.310  1.00  0.00    -0.326 N 
HETATM   17  H   UNL     1       8.682  -6.359  -3.274  1.00  0.00     0.169 HD
HETATM   18  O   UNL     1       6.805  -5.602  -2.103  1.00  0.00    -0.271 OA
BRANCH  16  19
HETATM   19  C   UNL     1       9.726  -4.759  -4.042  1.00  0.00     0.034 A 
HETATM   20  C   UNL     1       9.791  -3.425  -4.443  1.00  0.00     0.030 A 
HETATM   21  C   UNL     1      10.900  -2.954  -5.163  1.00  0.00     0.020 A 
HETATM   22  C   UNL     1      11.953  -3.810  -5.507  1.00  0.00     0.039 A 
HETATM   23  C   UNL     1      11.877  -5.153  -5.133  1.00  0.00     0.020 A 
HETATM   24  C   UNL     1      10.770  -5.620  -4.414  1.00  0.00     0.030 A 
BRANCH  22  25
HETATM   25  C   UNL     1      13.101  -3.247  -6.268  1.00  0.00     0.293 C 
HETATM   26  O   UNL     1      13.154  -2.079  -6.616  1.00  0.00    -0.259 OA
BRANCH  25  27
HETATM   27  O   UNL     1      14.038  -4.199  -6.490  1.00  0.00    -0.318 OA
BRANCH  27  28
HETATM   28  C   UNL     1      15.206  -3.774  -7.212  1.00  0.00     0.174 C 
HETATM   29  C   UNL     1      14.975  -3.918  -8.704  1.00  0.00     0.034 C 
ENDBRANCH  27  28
ENDBRANCH  25  27
ENDBRANCH  22  25
ENDBRANCH  16  19
ENDBRANCH  14  15
ENDBRANCH   1  14
BRANCH   7  30
HETATM   30  C   UNL     1       7.226   1.483   3.529  1.00  0.00    -0.002 A 
HETATM   31  C   UNL     1       8.242   2.026   4.326  1.00  0.00     0.016 A 
HETATM   32  C   UNL     1       7.932   2.939   5.340  1.00  0.00     0.024 A 
HETATM   33  C   UNL     1       6.609   3.311   5.563  1.00  0.00     0.034 A 
HETATM   34 CL   UNL     1       6.233   4.428   6.813  1.00  0.00    -0.084 Cl
HETATM   35  C   UNL     1       5.589   2.776   4.780  1.00  0.00     0.024 A 
HETATM   36  C   UNL     1       5.896   1.862   3.767  1.00  0.00     0.016 A 
ENDBRANCH   7  30
TORSDOF 7
