REMARK  6 active torsions:
REMARK  status: ('A' for Active; 'I' for Inactive)
REMARK    1  A    between atoms: C_2  and  O_3 
REMARK    2  A    between atoms: O_3  and  C_4 
REMARK    3  A    between atoms: C_4  and  C_5 
REMARK    4  A    between atoms: C_6  and  O_7 
REMARK    5  A    between atoms: C_12  and  O_13 
REMARK    6  A    between atoms: C_17  and  C_18 
ROOT
HETATM    1  C   UNL     1       5.360   0.890  -0.200  1.00  0.00     0.133 C 
HETATM    2  C   UNL     1       5.119  -0.453  -0.966  1.00  0.00     0.073 C 
HETATM    3  C   UNL     1       6.422  -0.969  -1.603  1.00  0.00     0.047 C 
HETATM    4  C   UNL     1       4.497  -1.564  -0.077  1.00  0.00     0.097 C 
HETATM    5  C   UNL     1       5.180  -1.596   1.235  1.00  0.00     0.042 A 
HETATM    6  C   UNL     1       5.852  -0.555   1.842  1.00  0.00     0.030 A 
HETATM    7  C   UNL     1       6.259  -1.113   3.065  1.00  0.00     0.190 A 
HETATM    8  N   UNL     1       5.912  -2.385   3.215  1.00  0.00    -0.149 NA
HETATM    9  N   UNL     1       5.242  -2.662   2.083  1.00  0.00    -0.279 N 
HETATM   10  H   UNL     1       4.853  -3.593   1.968  1.00  0.00     0.189 HD
HETATM   11  C   UNL     1       5.955   0.806   1.241  1.00  0.00     0.074 C 
ENDROOT
BRANCH  11  12
HETATM   12  C   UNL     1       7.402   1.278   1.321  1.00  0.00    -0.048 A 
HETATM   13  C   UNL     1       8.513   0.464   1.048  1.00  0.00     0.009 A 
HETATM   14  C   UNL     1       9.814   0.972   1.132  1.00  0.00     0.024 A 
HETATM   15  C   UNL     1      10.020   2.302   1.484  1.00  0.00     0.034 A 
HETATM   16 CL   UNL     1      11.620   2.924   1.592  1.00  0.00    -0.084 Cl
HETATM   17  C   UNL     1       8.937   3.132   1.750  1.00  0.00     0.024 A 
HETATM   18  C   UNL     1       7.638   2.624   1.664  1.00  0.00     0.009 A 
ENDBRANCH  11  12
BRANCH   1  19
HETATM   19  C   UNL     1       4.080   1.704  -0.158  1.00  0.00     0.267 C 
HETATM   20  O   UNL     1       3.872   2.642  -0.919  1.00  0.00    -0.265 OA
BRANCH  19  21
HETATM   21  O   UNL     1       3.220   1.271   0.799  1.00  0.00    -0.321 OA
BRANCH  21  22
HETATM   22  C   UNL     1       1.991   2.004   0.922  1.00  0.00     0.174 C 
HETATM   23  C   UNL     1       0.919   1.352   0.072  1.00  0.00     0.034 C 
ENDBRANCH  21  22
ENDBRANCH  19  21
ENDBRANCH   1  19
BRANCH   2  24
HETATM   24  O   UNL     1       4.222  -0.245  -2.072  1.00  0.00    -0.389 OA
HETATM   25  H   UNL     1       4.575   0.468  -2.636  1.00  0.00     0.210 HD
ENDBRANCH   2  24
BRANCH   7  26
HETATM   26  O   UNL     1       6.943  -0.563   4.071  1.00  0.00    -0.343 OA
HETATM   27  H   UNL     1       7.236   0.326   3.820  1.00  0.00     0.219 HD
ENDBRANCH   7  26
TORSDOF 6
