REMARK  6 active torsions:
REMARK  status: ('A' for Active; 'I' for Inactive)
REMARK    1  A    between atoms: C_4  and  C_5 
REMARK    2  A    between atoms: C_5  and  N_6 
REMARK    3  A    between atoms: C_14  and  C_15 
REMARK    4  A    between atoms: C_18  and  O_19 
REMARK    5  A    between atoms: O_19  and  C_20 
REMARK    6  A    between atoms: C_20  and  C_21 
ROOT
HETATM    1  N   UNL     1       3.351  -1.321  -0.237  1.00  0.00    -0.063 N 
HETATM    2  H   UNL     1       4.002  -1.471   0.543  1.00  0.00     0.280 HD
HETATM    3  C   UNL     1       2.388  -2.498  -0.177  1.00  0.00     0.282 C 
HETATM    4  C   UNL     1       3.136  -3.764  -0.427  1.00  0.00     0.018 A 
HETATM    5  C   UNL     1       4.379  -3.840  -1.030  1.00  0.00    -0.023 A 
HETATM    6  C   UNL     1       4.839  -5.195  -1.091  1.00  0.00     0.073 A 
HETATM    7  C   UNL     1       3.917  -6.072  -0.571  1.00  0.00     0.088 A 
HETATM    8  N   UNL     1       4.112  -7.402  -0.507  1.00  0.00    -0.358 N 
HETATM    9  C   UNL     1       5.216  -8.014  -1.215  1.00  0.00     0.219 C 
HETATM   10  N   UNL     1       6.257  -7.062  -1.511  1.00  0.00    -0.332 N 
HETATM   11  C   UNL     1       6.096  -5.710  -1.596  1.00  0.00     0.256 C 
HETATM   12  O   UNL     1       6.972  -4.981  -2.049  1.00  0.00    -0.267 OA
HETATM   13  S   UNL     1       2.515  -5.290  -0.007  1.00  0.00    -0.074 SA
HETATM   14  C   UNL     1       5.113  -2.613  -1.486  1.00  0.00     0.068 C 
HETATM   15  C   UNL     1       4.197  -1.372  -1.504  1.00  0.00     0.240 C 
HETATM   16  H   UNL     1       3.334  -8.025  -0.307  1.00  0.00     0.162 HD
HETATM   17  H   UNL     1       7.110  -7.416  -1.919  1.00  0.00     0.165 HD
ENDROOT
BRANCH   9  18
HETATM   18  C   UNL     1       4.736  -8.734  -2.459  1.00  0.00    -0.016 A 
HETATM   19  C   UNL     1       4.192  -8.046  -3.557  1.00  0.00     0.014 A 
HETATM   20  C   UNL     1       3.782  -8.729  -4.709  1.00  0.00     0.037 A 
HETATM   21  C   UNL     1       3.910 -10.115  -4.783  1.00  0.00     0.069 A 
HETATM   22  C   UNL     1       4.423 -10.811  -3.689  1.00  0.00     0.037 A 
HETATM   23  C   UNL     1       4.834 -10.132  -2.538  1.00  0.00     0.014 A 
BRANCH  21  24
HETATM   24  O   UNL     1       3.569 -10.900  -5.848  1.00  0.00    -0.347 OA
BRANCH  24  25
HETATM   25  C   UNL     1       3.260 -10.237  -7.072  1.00  0.00     0.214 C 
BRANCH  25  26
HETATM   26  C   UNL     1       3.143 -11.278  -8.158  1.00  0.00    -0.034 A 
HETATM   27  C   UNL     1       2.028 -12.127  -8.209  1.00  0.00     0.009 A 
HETATM   28  C   UNL     1       1.921 -13.096  -9.208  1.00  0.00     0.001 A 
HETATM   29  C   UNL     1       2.929 -13.229 -10.162  1.00  0.00     0.000 A 
HETATM   30  C   UNL     1       4.046 -12.398 -10.115  1.00  0.00     0.001 A 
HETATM   31  C   UNL     1       4.155 -11.428  -9.117  1.00  0.00     0.009 A 
ENDBRANCH  25  26
ENDBRANCH  24  25
ENDBRANCH  21  24
ENDBRANCH   9  18
BRANCH   1  32
HETATM   32  C   UNL     1       2.703   0.011   0.034  1.00  0.00     0.273 C 
BRANCH  32  33
HETATM   33  C   UNL     1       1.603   0.410  -0.910  1.00  0.00    -0.033 A 
HETATM   34  C   UNL     1       0.261   0.141  -0.591  1.00  0.00     0.009 A 
HETATM   35  C   UNL     1      -0.761   0.491  -1.473  1.00  0.00     0.001 A 
HETATM   36  C   UNL     1      -0.458   1.118  -2.679  1.00  0.00     0.000 A 
HETATM   37  C   UNL     1       0.866   1.402  -3.002  1.00  0.00     0.001 A 
HETATM   38  C   UNL     1       1.893   1.053  -2.123  1.00  0.00     0.009 A 
ENDBRANCH  32  33
ENDBRANCH   1  32
TORSDOF 6
