REMARK  7 active torsions:
REMARK  status: ('A' for Active; 'I' for Inactive)
REMARK    1  A    between atoms: C_4  and  N_5 
REMARK       I    between atoms: N_5  and  C_6 
REMARK       I    between atoms: C_6  and  N_7 
REMARK    2  A    between atoms: N_7  and  N_8 
REMARK       I    between atoms: N_8  and  C_9 
REMARK    3  A    between atoms: C_9  and  C_10 
REMARK    4  A    between atoms: C_10  and  N_11 
REMARK    5  A    between atoms: C_10  and  C_19 
REMARK       I    between atoms: N_11  and  C_12 
REMARK    6  A    between atoms: C_12  and  C_13 
REMARK    7  A    between atoms: C_19  and  C_20 
ROOT
HETATM    1  C   UNL     1       1.975  -4.889   0.120  1.00  0.00     0.183 C 
ENDROOT
BRANCH   1   2
HETATM    2  C   UNL     1       1.550  -3.439   0.419  1.00  0.00     0.259 C 
HETATM    3  N   UNL     1       1.701  -2.540  -0.613  1.00  0.00    -0.264 N 
HETATM    4  H   UNL     1       1.949  -2.830  -1.568  1.00  0.00     0.190 HD
HETATM    5  O   UNL     1       1.186  -3.085   1.544  1.00  0.00    -0.269 OA
BRANCH   3   6
HETATM    6  N   UNL     1       1.183  -1.246  -0.460  1.00  0.00    -0.249 N 
HETATM    7  C   UNL     1       1.364  -0.354  -1.508  1.00  0.00     0.339 C 
HETATM    8  N   UNL     1       0.852   0.889  -1.200  1.00  0.00    -0.308 N 
HETATM    9  O   UNL     1       1.881  -0.697  -2.566  1.00  0.00    -0.245 OA
HETATM   10  H   UNL     1       0.317   0.940  -0.347  1.00  0.00     0.170 HD
HETATM   11  H   UNL     1       1.150  -0.912   0.499  1.00  0.00     0.192 HD
BRANCH   8  12
HETATM   12  C   UNL     1       0.861   2.044  -2.008  1.00  0.00     0.036 A 
HETATM   13  C   UNL     1       1.527   2.134  -3.232  1.00  0.00     0.029 A 
HETATM   14  C   UNL     1       1.484   3.317  -3.978  1.00  0.00     0.002 A 
HETATM   15  C   UNL     1       0.778   4.419  -3.506  1.00  0.00     0.000 A 
HETATM   16  C   UNL     1       0.115   4.343  -2.284  1.00  0.00     0.002 A 
HETATM   17  C   UNL     1       0.159   3.162  -1.538  1.00  0.00     0.029 A 
ENDBRANCH   8  12
ENDBRANCH   3   6
ENDBRANCH   1   2
BRANCH   1  18
HETATM   18  N   UNL     1       1.237  -5.476  -1.005  1.00  0.00    -0.343 N 
HETATM   19  C   UNL     1       1.438  -5.161  -2.328  1.00  0.00     0.259 C 
HETATM   20  O   UNL     1       2.181  -4.235  -2.647  1.00  0.00    -0.267 OA
HETATM   21  H   UNL     1       0.705  -6.318  -0.817  1.00  0.00     0.163 HD
BRANCH  19  22
HETATM   22  C   UNL     1       0.699  -5.952  -3.301  1.00  0.00     0.072 A 
HETATM   23  S   UNL     1      -0.279  -7.287  -2.851  1.00  0.00    -0.097 SA
HETATM   24  C   UNL     1      -0.750  -7.578  -4.469  1.00  0.00     0.050 A 
HETATM   25  C   UNL     1      -0.171  -6.686  -5.343  1.00  0.00     0.009 A 
HETATM   26  C   UNL     1       0.668  -5.753  -4.670  1.00  0.00     0.025 A 
ENDBRANCH  19  22
ENDBRANCH   1  18
BRANCH   1  27
HETATM   27  C   UNL     1       3.507  -4.982   0.018  1.00  0.00     0.076 C 
BRANCH  27  28
HETATM   28  C   UNL     1       4.007  -6.376  -0.219  1.00  0.00    -0.028 A 
HETATM   29  C   UNL     1       4.001  -7.472   0.703  1.00  0.00    -0.002 A 
HETATM   30  C   UNL     1       4.554  -8.572   0.047  1.00  0.00     0.042 A 
HETATM   31  C   UNL     1       3.575  -7.633   2.038  1.00  0.00     0.014 A 
HETATM   32  C   UNL     1       4.697  -9.826   0.653  1.00  0.00     0.030 A 
HETATM   33  N   UNL     1       4.896  -8.160  -1.219  1.00  0.00    -0.365 N 
HETATM   34  C   UNL     1       4.260  -9.960   1.974  1.00  0.00     0.002 A 
HETATM   35  C   UNL     1       3.708  -8.881   2.659  1.00  0.00     0.001 A 
HETATM   36  H   UNL     1       5.329  -8.749  -1.917  1.00  0.00     0.165 HD
HETATM   37  C   UNL     1       4.570  -6.843  -1.391  1.00  0.00     0.096 A 
ENDBRANCH  27  28
ENDBRANCH   1  27
TORSDOF 7
