REMARK  1 active torsions:
REMARK  status: ('A' for Active; 'I' for Inactive)
REMARK    1  A    between atoms: C_8  and  C_9 
ROOT
HETATM    1  C   UNL     1       1.057  -0.756   0.099  1.00  0.00     0.073 C 
HETATM    2  C   UNL     1       2.491  -0.424   0.316  1.00  0.00     0.062 A 
HETATM    3  N   UNL     1       3.315  -1.362   0.789  1.00  0.00    -0.178 NA
HETATM    4  N   UNL     1       4.504  -0.759   0.814  1.00  0.00    -0.262 N 
HETATM    5  H   UNL     1       5.302  -1.301   1.124  1.00  0.00     0.191 HD
HETATM    6  C   UNL     1       4.482   0.558   0.434  1.00  0.00     0.134 A 
HETATM    7  C   UNL     1       3.170   0.824   0.074  1.00  0.00     0.032 A 
HETATM    8  C   UNL     1       2.525   2.027  -0.553  1.00  0.00     0.120 C 
HETATM    9  S   UNL     1       3.629   3.332  -1.143  1.00  0.00    -0.141 SA
HETATM   10  C   UNL     1       4.670   3.571   0.325  1.00  0.00     0.136 C 
HETATM   11  C   UNL     1       5.146   5.025   0.334  1.00  0.00     0.031 C 
HETATM   12  C   UNL     1       5.853   2.612   0.304  1.00  0.00     0.236 C 
HETATM   13  O   UNL     1       7.023   3.009   0.266  1.00  0.00    -0.272 OA
HETATM   14  N   UNL     1       5.662   1.267   0.441  1.00  0.00    -0.311 N 
HETATM   15  H   UNL     1       6.539   0.769   0.555  1.00  0.00     0.170 HD
ENDROOT
BRANCH   8  16
HETATM   16  C   UNL     1       1.396   2.536   0.350  1.00  0.00    -0.029 A 
HETATM   17  C   UNL     1       0.141   2.961  -0.208  1.00  0.00    -0.018 A 
HETATM   18  C   UNL     1      -0.897   3.371   0.671  1.00  0.00    -0.025 A 
HETATM   19  C   UNL     1      -0.156   2.996  -1.596  1.00  0.00     0.013 A 
HETATM   20  C   UNL     1      -2.152   3.753   0.168  1.00  0.00     0.012 A 
HETATM   21  C   UNL     1      -0.682   3.396   2.054  1.00  0.00     0.012 A 
HETATM   22  C   UNL     1      -2.411   3.750  -1.199  1.00  0.00     0.001 A 
HETATM   23  C   UNL     1      -1.410   3.378  -2.082  1.00  0.00     0.001 A 
HETATM   24  C   UNL     1       0.540   3.016   2.592  1.00  0.00     0.002 A 
HETATM   25  C   UNL     1       1.562   2.589   1.752  1.00  0.00     0.009 A 
ENDBRANCH   8  16
TORSDOF 1
