REMARK  8 active torsions:
REMARK  status: ('A' for Active; 'I' for Inactive)
REMARK    1  A    between atoms: C_5  and  C_6 
REMARK    2  A    between atoms: C_11  and  C_12 
REMARK    3  A    between atoms: N_13  and  N_14 
REMARK    4  A    between atoms: C_20  and  C_21 
REMARK    5  A    between atoms: C_21  and  O_22 
REMARK    6  A    between atoms: O_22  and  N_23 
REMARK    7  A    between atoms: N_23  and  C_24 
REMARK    8  A    between atoms: C_24  and  C_25 
ROOT
HETATM    1  N   UNL     1       5.486  -4.088  -0.249  1.00  0.00    -0.180 N 
HETATM    2  C   UNL     1       6.258  -5.182   0.169  1.00  0.00     0.282 C 
HETATM    3  O   UNL     1       7.271  -5.124   0.866  1.00  0.00    -0.265 OA
HETATM    4  C   UNL     1       5.760  -6.508  -0.237  1.00  0.00     0.063 A 
HETATM    5  C   UNL     1       4.531  -6.574  -0.891  1.00  0.00     0.074 A 
HETATM    6  N   UNL     1       3.769  -5.437  -1.177  1.00  0.00    -0.230 NA
HETATM    7  C   UNL     1       4.253  -4.272  -0.859  1.00  0.00     0.157 C 
HETATM    8  C   UNL     1       6.488  -7.671   0.050  1.00  0.00     0.019 A 
HETATM    9  C   UNL     1       5.979  -8.914  -0.323  1.00  0.00     0.001 A 
HETATM   10  C   UNL     1       4.750  -8.992  -0.976  1.00  0.00     0.002 A 
HETATM   11  C   UNL     1       4.032  -7.826  -1.258  1.00  0.00     0.032 A 
ENDROOT
BRANCH   1  12
HETATM   12  N   UNL     1       5.819  -2.793   0.125  1.00  0.00    -0.174 NA
HETATM   13  C   UNL     1       7.074  -2.480   0.154  1.00  0.00     0.154 C 
BRANCH  13  14
HETATM   14  C   UNL     1       7.454  -1.159   0.597  1.00  0.00     0.031 A 
HETATM   15  C   UNL     1       8.731  -0.689   1.038  1.00  0.00     0.100 A 
HETATM   16  N   UNL     1       8.685   0.631   1.294  1.00  0.00    -0.174 NA
HETATM   17  N   UNL     1       7.409   0.976   1.080  1.00  0.00    -0.288 N 
HETATM   18  H   UNL     1       7.142   1.942   1.233  1.00  0.00     0.188 HD
HETATM   19  C   UNL     1       6.629  -0.054   0.663  1.00  0.00     0.124 A 
BRANCH  15  20
HETATM   20  C   UNL     1       9.974  -1.441   1.235  1.00  0.00    -0.005 A 
HETATM   21  C   UNL     1       9.964  -2.745   1.747  1.00  0.00     0.014 A 
HETATM   22  C   UNL     1      11.159  -3.448   1.936  1.00  0.00     0.007 A 
HETATM   23  C   UNL     1      12.388  -2.853   1.636  1.00  0.00    -0.062 A 
HETATM   24  C   UNL     1      13.674  -3.598   1.835  1.00  0.00     0.048 C 
HETATM   25  C   UNL     1      12.404  -1.547   1.133  1.00  0.00     0.007 A 
HETATM   26  C   UNL     1      11.209  -0.848   0.939  1.00  0.00     0.014 A 
ENDBRANCH  15  20
ENDBRANCH  13  14
ENDBRANCH   1  12
BRANCH   7  27
HETATM   27  C   UNL     1       3.404  -3.029  -1.162  1.00  0.00     0.274 C 
BRANCH  27  28
HETATM   28  O   UNL     1       3.957  -2.027  -2.003  1.00  0.00    -0.293 OA
BRANCH  28  29
HETATM   29  N   UNL     1       4.396  -2.632  -3.186  1.00  0.00    -0.171 NA
HETATM   30  H   UNL     1       3.640  -3.006  -3.764  1.00  0.00     0.160 HD
BRANCH  29  31
HETATM   31  C   UNL     1       5.349  -1.974  -3.942  1.00  0.00     0.035 C 
HETATM   32  C   UNL     1       6.122  -0.964  -3.515  1.00  0.00     0.039 C 
BRANCH  31  33
HETATM   33  C   UNL     1       5.536  -2.466  -5.322  1.00  0.00    -0.014 A 
HETATM   34  C   UNL     1       5.968  -3.781  -5.540  1.00  0.00     0.013 A 
HETATM   35  C   UNL     1       6.153  -4.259  -6.839  1.00  0.00     0.001 A 
HETATM   36  C   UNL     1       5.901  -3.427  -7.930  1.00  0.00     0.000 A 
HETATM   37  C   UNL     1       5.462  -2.120  -7.724  1.00  0.00     0.001 A 
HETATM   38  C   UNL     1       5.280  -1.640  -6.425  1.00  0.00     0.013 A 
ENDBRANCH  31  33
ENDBRANCH  29  31
ENDBRANCH  28  29
ENDBRANCH  27  28
ENDBRANCH   7  27
TORSDOF 8
