REMARK  4 active torsions:
REMARK  status: ('A' for Active; 'I' for Inactive)
REMARK    1  A    between atoms: N_4  and  C_5 
REMARK    2  A    between atoms: C_14  and  C_15 
REMARK       I    between atoms: C_15  and  N_16 
REMARK    3  A    between atoms: N_16  and  N_17 
REMARK       I    between atoms: N_17  and  C_18 
REMARK       I    between atoms: C_18  and  N_19 
REMARK    4  A    between atoms: N_19  and  C_20 
ROOT
HETATM    1  C   UNL     1       5.454   4.423   0.352  1.00  0.00     0.277 C 
HETATM    2  N   UNL     1       6.749   4.733  -0.014  1.00  0.00    -0.261 N 
HETATM    3  O   UNL     1       4.674   5.297   0.731  1.00  0.00    -0.265 OA
HETATM    4  H   UNL     1       7.437   4.008  -0.221  1.00  0.00     0.190 HD
ENDROOT
BRANCH   1   5
HETATM    5  C   UNL     1       5.100   3.014   0.253  1.00  0.00     0.077 A 
HETATM    6  S   UNL     1       6.333   1.783   0.110  1.00  0.00    -0.064 SA
HETATM    7  C   UNL     1       5.178   0.585   0.099  1.00  0.00     0.113 A 
HETATM    8  N   UNL     1       5.077  -0.783   0.043  1.00  0.00    -0.226 N 
HETATM    9  C   UNL     1       3.936   1.073   0.185  1.00  0.00     0.027 A 
HETATM   10  N   UNL     1       3.737  -1.141   0.061  1.00  0.00    -0.171 NA
HETATM   11  C   UNL     1       3.049   0.014   0.151  1.00  0.00     0.064 A 
HETATM   12  C   UNL     1       1.570   0.017   0.192  1.00  0.00     0.073 C 
HETATM   13  C   UNL     1       3.821   2.456   0.286  1.00  0.00     0.041 A 
BRANCH   8  14
HETATM   14  C   UNL     1       6.084  -1.791  -0.009  1.00  0.00     0.059 A 
HETATM   15  C   UNL     1       5.694  -3.142  -0.021  1.00  0.00     0.031 A 
HETATM   16  C   UNL     1       6.651  -4.159  -0.055  1.00  0.00     0.002 A 
HETATM   17  C   UNL     1       8.006  -3.841  -0.081  1.00  0.00     0.000 A 
HETATM   18  C   UNL     1       8.404  -2.507  -0.074  1.00  0.00     0.002 A 
HETATM   19  C   UNL     1       7.450  -1.484  -0.038  1.00  0.00     0.031 A 
ENDBRANCH   8  14
ENDBRANCH   1   5
BRANCH   2  20
HETATM   20  N   UNL     1       7.263   6.020   0.221  1.00  0.00    -0.249 N 
HETATM   21  C   UNL     1       8.646   6.103   0.313  1.00  0.00     0.339 C 
HETATM   22  N   UNL     1       9.068   7.366   0.658  1.00  0.00    -0.308 N 
HETATM   23  O   UNL     1       9.350   5.127   0.068  1.00  0.00    -0.245 OA
HETATM   24  H   UNL     1       8.342   8.058   0.773  1.00  0.00     0.170 HD
HETATM   25  H   UNL     1       6.673   6.615   0.796  1.00  0.00     0.192 HD
BRANCH  22  26
HETATM   26  C   UNL     1      10.398   7.815   0.796  1.00  0.00     0.038 A 
HETATM   27  C   UNL     1      11.520   7.005   0.603  1.00  0.00     0.053 A 
HETATM   28  C   UNL     1      12.803   7.539   0.745  1.00  0.00     0.036 A 
HETATM   29 CL   UNL     1      14.180   6.534   0.494  1.00  0.00    -0.084 Cl
HETATM   30  C   UNL     1      12.984   8.877   1.085  1.00  0.00     0.024 A 
HETATM   31  C   UNL     1      11.872   9.690   1.285  1.00  0.00     0.004 A 
HETATM   32  C   UNL     1      10.586   9.161   1.140  1.00  0.00     0.029 A 
ENDBRANCH  22  26
ENDBRANCH   2  20
TORSDOF 4
