REMARK  6 active torsions:
REMARK  status: ('A' for Active; 'I' for Inactive)
REMARK    1  A    between atoms: C_2  and  N_3 
REMARK    2  A    between atoms: C_11  and  C_12 
REMARK    3  A    between atoms: C_14  and  C_15 
REMARK    4  A    between atoms: C_15  and  O_16 
REMARK    5  A    between atoms: O_16  and  C_17 
REMARK    6  A    between atoms: C_19  and  C_20 
ROOT
HETATM    1  N   UNL     1       2.964  -1.551   0.463  1.00  0.00    -0.067 N 
HETATM    2  H   UNL     1       2.888  -1.608   1.487  1.00  0.00     0.280 HD
HETATM    3  C   UNL     1       2.157  -2.726  -0.090  1.00  0.00     0.281 C 
HETATM    4  C   UNL     1       2.858  -4.020   0.149  1.00  0.00     0.018 A 
HETATM    5  C   UNL     1       4.179  -4.153   0.533  1.00  0.00    -0.023 A 
HETATM    6  C   UNL     1       4.557  -5.531   0.622  1.00  0.00     0.073 A 
HETATM    7  C   UNL     1       3.519  -6.368   0.288  1.00  0.00     0.088 A 
HETATM    8  N   UNL     1       3.636  -7.710   0.249  1.00  0.00    -0.357 N 
HETATM    9  C   UNL     1       4.774  -8.346   0.890  1.00  0.00     0.243 C 
HETATM   10  N   UNL     1       5.919  -7.469   0.861  1.00  0.00    -0.330 N 
HETATM   11  C   UNL     1       5.845  -6.109   0.961  1.00  0.00     0.256 C 
HETATM   12  O   UNL     1       6.813  -5.425   1.275  1.00  0.00    -0.267 OA
HETATM   13  S   UNL     1       2.094  -5.522  -0.093  1.00  0.00    -0.074 SA
HETATM   14  C   UNL     1       5.042  -2.956   0.787  1.00  0.00     0.068 C 
HETATM   15  C   UNL     1       4.454  -1.695   0.132  1.00  0.00     0.240 C 
HETATM   16  H   UNL     1       2.812  -8.297   0.164  1.00  0.00     0.162 HD
HETATM   17  H   UNL     1       6.789  -7.863   1.191  1.00  0.00     0.165 HD
ENDROOT
BRANCH   9  18
HETATM   18  C   UNL     1       4.564  -8.807   2.297  1.00  0.00     0.095 A 
HETATM   19  O   UNL     1       5.604  -9.493   2.863  1.00  0.00    -0.313 OA
HETATM   20  C   UNL     1       5.215  -9.864   4.117  1.00  0.00     0.077 A 
HETATM   21  C   UNL     1       3.937  -9.410   4.364  1.00  0.00     0.037 A 
HETATM   22  C   UNL     1       3.519  -8.726   3.196  1.00  0.00     0.039 A 
BRANCH  20  23
HETATM   23  C   UNL     1       6.197 -10.645   4.916  1.00  0.00     0.240 C 
BRANCH  23  24
HETATM   24  O   UNL     1       5.960 -12.018   4.616  1.00  0.00    -0.345 OA
BRANCH  24  25
HETATM   25  C   UNL     1       6.810 -12.934   5.172  1.00  0.00     0.070 A 
HETATM   26  C   UNL     1       7.840 -12.660   6.075  1.00  0.00     0.052 A 
HETATM   27  C   UNL     1       8.651 -13.697   6.573  1.00  0.00     0.050 A 
HETATM   28  C   UNL     1       8.410 -15.015   6.155  1.00  0.00     0.016 A 
HETATM   29  C   UNL     1       7.381 -15.291   5.258  1.00  0.00     0.004 A 
HETATM   30  C   UNL     1       6.586 -14.253   4.772  1.00  0.00     0.037 A 
BRANCH  27  31
HETATM   31  C   UNL     1       9.767 -13.412   7.548  1.00  0.00     0.417 C 
HETATM   32  F   UNL     1       9.904 -12.087   7.839  1.00  0.00    -0.166 F 
HETATM   33  F   UNL     1       9.590 -14.039   8.742  1.00  0.00    -0.166 F 
HETATM   34  F   UNL     1      10.981 -13.818   7.084  1.00  0.00    -0.166 F 
ENDBRANCH  27  31
ENDBRANCH  24  25
ENDBRANCH  23  24
ENDBRANCH  20  23
ENDBRANCH   9  18
BRANCH   1  35
HETATM   35  C   UNL     1       2.436  -0.206   0.027  1.00  0.00     0.231 C 
HETATM   36  C   UNL     1       1.061   0.058   0.611  1.00  0.00     0.034 C 
ENDBRANCH   1  35
TORSDOF 6
