REMARK  6 active torsions:
REMARK  status: ('A' for Active; 'I' for Inactive)
REMARK    1  A    between atoms: C_2  and  N_3 
REMARK    2  A    between atoms: C_10  and  N_11 
REMARK       I    between atoms: N_11  and  C_12 
REMARK       I    between atoms: C_12  and  N_13 
REMARK    3  A    between atoms: N_13  and  C_14 
REMARK    4  A    between atoms: C_14  and  C_15 
REMARK    5  A    between atoms: C_15  and  C_16 
REMARK    6  A    between atoms: C_19  and  O_20 
ROOT
HETATM    1  N   UNL     1       2.595   4.636   0.026  1.00  0.00    -0.307 N 
HETATM    2  C   UNL     1       1.324   5.127  -0.053  1.00  0.00     0.320 C 
HETATM    3  N   UNL     1       0.364   4.223  -0.410  1.00  0.00    -0.343 N 
HETATM    4  O   UNL     1       0.949   6.264   0.208  1.00  0.00    -0.247 OA
HETATM    5  H   UNL     1       2.699   3.640  -0.036  1.00  0.00     0.170 HD
HETATM    6  H   UNL     1      -0.563   4.629  -0.363  1.00  0.00     0.164 HD
ENDROOT
BRANCH   1   7
HETATM    7  C   UNL     1       3.721   5.308   0.475  1.00  0.00     0.064 A 
HETATM    8  C   UNL     1       4.058   6.697   0.577  1.00  0.00     0.019 A 
HETATM    9  C   UNL     1       5.330   6.771   1.169  1.00  0.00     0.046 A 
HETATM   10  C   UNL     1       3.441   7.913   0.207  1.00  0.00     0.016 A 
HETATM   11  N   UNL     1       5.741   5.477   1.404  1.00  0.00    -0.354 N 
HETATM   12  C   UNL     1       5.971   7.996   1.425  1.00  0.00     0.030 A 
HETATM   13  C   UNL     1       4.807   4.593   0.936  1.00  0.00     0.121 A 
HETATM   14  C   UNL     1       5.321   9.176   1.061  1.00  0.00     0.002 A 
HETATM   15  C   UNL     1       4.073   9.137   0.455  1.00  0.00     0.001 A 
BRANCH  11  16
HETATM   16  C   UNL     1       6.966   5.082   2.079  1.00  0.00     0.124 C 
HETATM   17  C   UNL     1       8.132   4.927   1.121  1.00  0.00     0.027 C 
ENDBRANCH  11  16
ENDBRANCH   1   7
BRANCH   3  18
HETATM   18  C   UNL     1       0.454   2.801  -0.698  1.00  0.00     0.129 C 
BRANCH  18  19
HETATM   19  C   UNL     1       0.709   1.913   0.527  1.00  0.00     0.058 C 
BRANCH  19  20
HETATM   20  C   UNL     1      -0.350   1.997   1.597  1.00  0.00    -0.057 A 
HETATM   21  C   UNL     1      -1.394   1.068   1.647  1.00  0.00     0.010 A 
HETATM   22  C   UNL     1      -2.343   1.130   2.671  1.00  0.00     0.037 A 
HETATM   23  C   UNL     1      -2.266   2.116   3.658  1.00  0.00     0.068 A 
HETATM   24  C   UNL     1      -1.244   3.061   3.596  1.00  0.00     0.037 A 
HETATM   25  C   UNL     1      -0.292   3.000   2.574  1.00  0.00     0.010 A 
BRANCH  23  26
HETATM   26  O   UNL     1      -3.242   2.051   4.614  1.00  0.00    -0.356 OA
HETATM   27  C   UNL     1      -3.083   2.904   5.742  1.00  0.00     0.210 C 
ENDBRANCH  23  26
ENDBRANCH  19  20
ENDBRANCH  18  19
ENDBRANCH   3  18
TORSDOF 6
