REMARK  5 active torsions:
REMARK  status: ('A' for Active; 'I' for Inactive)
REMARK    1  A    between atoms: C_2  and  C_3 
REMARK    2  A    between atoms: C_3  and  N_4 
REMARK       I    between atoms: N_4  and  C_5 
REMARK    3  A    between atoms: C_5  and  C_6 
REMARK    4  A    between atoms: C_10  and  N_11 
REMARK       I    between atoms: N_11  and  C_12 
REMARK       I    between atoms: C_12  and  N_13 
REMARK    5  A    between atoms: N_13  and  C_14 
ROOT
HETATM    1  C   UNL     1       4.161  -3.540   1.787  1.00  0.00     0.053 A 
HETATM    2  C   UNL     1       4.216  -4.676   0.971  1.00  0.00     0.051 A 
HETATM    3 CL   UNL     1       4.974  -4.694  -0.584  1.00  0.00    -0.083 Cl
HETATM    4  C   UNL     1       3.626  -5.876   1.396  1.00  0.00     0.054 A 
HETATM    5  C   UNL     1       2.977  -5.960   2.631  1.00  0.00     0.038 A 
HETATM    6  C   UNL     1       2.852  -4.804   3.406  1.00  0.00     0.030 A 
HETATM    7  C   UNL     1       3.440  -3.606   2.990  1.00  0.00     0.021 A 
ENDROOT
BRANCH   5   8
HETATM    8  N   UNL     1       2.460  -7.157   3.171  1.00  0.00    -0.309 N 
HETATM    9  C   UNL     1       2.729  -8.448   2.734  1.00  0.00     0.325 C 
HETATM   10  N   UNL     1       2.147  -9.374   3.579  1.00  0.00    -0.305 N 
HETATM   11  O   UNL     1       3.411  -8.723   1.757  1.00  0.00    -0.247 OA
HETATM   12  H   UNL     1       1.328  -9.080   4.086  1.00  0.00     0.171 HD
HETATM   13  H   UNL     1       2.050  -7.088   4.091  1.00  0.00     0.170 HD
BRANCH  10  14
HETATM   14  C   UNL     1       2.435 -10.729   3.629  1.00  0.00     0.086 A 
HETATM   15  C   UNL     1       3.495 -11.526   3.100  1.00  0.00     0.079 A 
HETATM   16  C   UNL     1       4.690 -11.142   2.306  1.00  0.00     0.075 C 
HETATM   17  N   UNL     1       3.356 -12.815   3.446  1.00  0.00    -0.177 NA
HETATM   18  N   UNL     1       2.245 -12.842   4.185  1.00  0.00    -0.280 N 
HETATM   19  H   UNL     1       1.949 -13.736   4.563  1.00  0.00     0.189 HD
HETATM   20  C   UNL     1       1.658 -11.619   4.348  1.00  0.00     0.052 A 
HETATM   21  C   UNL     1       0.436 -11.454   5.168  1.00  0.00     0.072 C 
ENDBRANCH  10  14
ENDBRANCH   5   8
BRANCH   1  22
HETATM   22  C   UNL     1       4.861  -2.254   1.517  1.00  0.00     0.253 C 
HETATM   23  N   UNL     1       6.081  -2.334   0.888  1.00  0.00    -0.357 N 
HETATM   24  H   UNL     1       6.430  -3.239   0.596  1.00  0.00     0.162 HD
HETATM   25  O   UNL     1       4.386  -1.203   1.936  1.00  0.00    -0.268 OA
BRANCH  23  26
HETATM   26  C   UNL     1       6.972  -1.199   0.772  1.00  0.00     0.122 C 
BRANCH  26  27
HETATM   27  C   UNL     1       7.813  -0.999   2.033  1.00  0.00     0.015 C 
HETATM   28  C   UNL     1       8.736  -2.176   2.319  1.00  0.00     0.006 C 
ENDBRANCH  26  27
ENDBRANCH  23  26
ENDBRANCH   1  22
TORSDOF 5
