REMARK  7 active torsions:
REMARK  status: ('A' for Active; 'I' for Inactive)
REMARK    1  A    between atoms: C_2  and  N_3 
REMARK    2  A    between atoms: C_2  and  C_10 
REMARK    3  A    between atoms: N_11  and  C_12 
REMARK    4  A    between atoms: C_19  and  S_20 
REMARK    5  A    between atoms: S_20  and  C_21 
REMARK    6  A    between atoms: C_21  and  C_22 
REMARK    7  A    between atoms: C_21  and  C_28 
REMARK       I    between atoms: C_22  and  N_23 
REMARK       I    between atoms: N_23  and  C_24 
REMARK       I    between atoms: C_24  and  N_25 
ROOT
HETATM    1  C   UNL     1      -0.414   3.252   3.800  1.00  0.00     0.166 A 
HETATM    2  N   UNL     1       0.854   3.824   3.853  1.00  0.00    -0.274 N 
HETATM    3  C   UNL     1       1.365   3.396   5.065  1.00  0.00     0.197 A 
HETATM    4  N   UNL     1       0.464   2.689   5.707  1.00  0.00    -0.122 NA
HETATM    5  N   UNL     1      -0.651   2.607   4.925  1.00  0.00    -0.131 NA
ENDROOT
BRANCH   3   6
HETATM    6  S   UNL     1       2.900   3.873   5.698  1.00  0.00    -0.070 SA
BRANCH   6   7
HETATM    7  C   UNL     1       3.585   2.322   6.408  1.00  0.00     0.180 C 
BRANCH   7   8
HETATM    8  C   UNL     1       3.460   1.110   5.454  1.00  0.00     0.244 C 
HETATM    9  N   UNL     1       4.018  -0.094   5.841  1.00  0.00    -0.278 N 
HETATM   10  C   UNL     1       5.204  -0.235   6.511  1.00  0.00     0.320 C 
HETATM   11  H   UNL     1       3.838  -0.827   5.175  1.00  0.00     0.173 HD
HETATM   12  N   UNL     1       5.603  -1.529   6.629  1.00  0.00    -0.352 N 
HETATM   13  O   UNL     1       5.856   0.662   7.021  1.00  0.00    -0.247 OA
HETATM   14  H   UNL     1       5.302  -2.263   6.007  1.00  0.00     0.160 HD
HETATM   15  H   UNL     1       6.495  -1.668   7.092  1.00  0.00     0.160 HD
HETATM   16  O   UNL     1       2.940   1.151   4.330  1.00  0.00    -0.271 OA
ENDBRANCH   7   8
BRANCH   7  17
HETATM   17  C   UNL     1       3.087   2.095   7.829  1.00  0.00    -0.035 A 
HETATM   18  C   UNL     1       3.757   2.725   8.894  1.00  0.00     0.009 A 
HETATM   19  C   UNL     1       3.332   2.556  10.213  1.00  0.00     0.001 A 
HETATM   20  C   UNL     1       2.228   1.756  10.489  1.00  0.00     0.000 A 
HETATM   21  C   UNL     1       1.547   1.129   9.448  1.00  0.00     0.001 A 
HETATM   22  C   UNL     1       1.970   1.300   8.127  1.00  0.00     0.009 A 
ENDBRANCH   7  17
ENDBRANCH   6   7
ENDBRANCH   3   6
BRANCH   2  23
HETATM   23  C   UNL     1       1.479   4.596   2.840  1.00  0.00     0.043 A 
HETATM   24  C   UNL     1       0.788   5.670   2.257  1.00  0.00     0.033 A 
HETATM   25  C   UNL     1       1.397   6.416   1.246  1.00  0.00     0.044 A 
HETATM   26  C   UNL     1       2.682   6.092   0.826  1.00  0.00     0.116 A 
HETATM   27  F   UNL     1       3.257   6.808  -0.147  1.00  0.00    -0.206 F 
HETATM   28  C   UNL     1       3.377   5.035   1.402  1.00  0.00     0.044 A 
HETATM   29  C   UNL     1       2.778   4.282   2.414  1.00  0.00     0.033 A 
ENDBRANCH   2  23
BRANCH   1  30
HETATM   30  C   UNL     1      -1.311   3.213   2.603  1.00  0.00     0.255 C 
HETATM   31  C   UNL     1      -2.613   3.976   2.862  1.00  0.00     0.049 C 
BRANCH  30  32
HETATM   32  N   UNL     1      -1.645   1.793   2.099  1.00  0.00    -0.060 N 
HETATM   33  H   UNL     1      -2.296   1.929   1.317  1.00  0.00     0.280 HD
HETATM   34  C   UNL     1      -0.420   1.100   1.534  1.00  0.00     0.236 C 
HETATM   35  C   UNL     1      -0.853  -0.169   0.812  1.00  0.00     0.028 C 
HETATM   36  C   UNL     1      -1.649  -1.097   1.723  1.00  0.00     0.003 C 
HETATM   37  C   UNL     1      -2.817  -0.366   2.379  1.00  0.00     0.028 C 
HETATM   38  C   UNL     1      -2.352   0.896   3.099  1.00  0.00     0.236 C 
ENDBRANCH  30  32
ENDBRANCH   1  30
TORSDOF 7
