REMARK  7 active torsions:
REMARK  status: ('A' for Active; 'I' for Inactive)
REMARK    1  A    between atoms: C_4  and  N_5 
REMARK    2  A    between atoms: C_6  and  S_7 
REMARK    3  A    between atoms: S_7  and  C_8 
REMARK    4  A    between atoms: C_8  and  C_9 
REMARK       I    between atoms: C_9  and  N_10 
REMARK    5  A    between atoms: C_12  and  C_13 
REMARK    6  A    between atoms: C_13  and  N_14 
REMARK       I    between atoms: N_14  and  C_15 
REMARK       I    between atoms: C_15  and  N_16 
REMARK    7  A    between atoms: N_16  and  C_17 
ROOT
HETATM    1  C   UNL     1       0.863   5.497   0.346  1.00  0.00     0.229 C 
HETATM    2  N   UNL     1       0.302   4.502  -0.479  1.00  0.00    -0.351 N 
HETATM    3  C   UNL     1      -1.043   4.810  -0.979  1.00  0.00     0.132 C 
HETATM    4  C   UNL     1      -1.460   3.907  -2.146  1.00  0.00     0.021 C 
HETATM    5  C   UNL     1      -1.394   2.449  -1.677  1.00  0.00     0.009 C 
HETATM    6  C   UNL     1       0.041   2.128  -1.285  1.00  0.00     0.020 C 
HETATM    7  C   UNL     1       0.587   3.091  -0.237  1.00  0.00     0.126 C 
HETATM    8  O   UNL     1       0.211   6.514   0.620  1.00  0.00    -0.273 OA
ENDROOT
BRANCH   1   9
HETATM    9  C   UNL     1       2.351   5.466   0.685  1.00  0.00     0.185 C 
BRANCH   9  10
HETATM   10  S   UNL     1       3.013   4.165   1.738  1.00  0.00    -0.082 SA
BRANCH  10  11
HETATM   11  C   UNL     1       1.790   3.933   2.936  1.00  0.00     0.173 A 
HETATM   12  N   UNL     1       1.415   2.718   3.527  1.00  0.00    -0.300 N 
HETATM   13  C   UNL     1       0.476   3.097   4.482  1.00  0.00     0.118 A 
HETATM   14  C   UNL     1       0.329   4.457   4.393  1.00  0.00     0.137 A 
HETATM   15  N   UNL     1       1.143   4.962   3.434  1.00  0.00    -0.235 NA
BRANCH  12  16
HETATM   16  C   UNL     1       1.794   1.347   3.262  1.00  0.00     0.042 A 
HETATM   17  C   UNL     1       2.575   0.969   2.161  1.00  0.00     0.037 A 
HETATM   18  C   UNL     1       2.893  -0.377   1.903  1.00  0.00    -0.059 A 
HETATM   19  C   UNL     1       3.768  -0.739   0.736  1.00  0.00     0.048 C 
HETATM   20  C   UNL     1       2.439  -1.368   2.771  1.00  0.00     0.013 A 
HETATM   21  C   UNL     1       1.653  -1.031   3.873  1.00  0.00    -0.059 A 
HETATM   22  C   UNL     1       1.347   0.319   4.118  1.00  0.00     0.037 A 
HETATM   23  C   UNL     1       1.184  -2.108   4.809  1.00  0.00     0.048 C 
ENDBRANCH  12  16
ENDBRANCH  10  11
ENDBRANCH   9  10
ENDBRANCH   1   9
BRANCH   4  24
HETATM   24  C   UNL     1      -2.845   4.297  -2.675  1.00  0.00     0.130 C 
BRANCH  24  25
HETATM   25  N   UNL     1      -3.177   3.577  -3.896  1.00  0.00    -0.342 N 
HETATM   26  C   UNL     1      -4.219   3.733  -4.758  1.00  0.00     0.320 C 
HETATM   27  N   UNL     1      -5.013   4.825  -4.550  1.00  0.00    -0.309 N 
HETATM   28  O   UNL     1      -4.346   2.890  -5.640  1.00  0.00    -0.247 OA
HETATM   29  H   UNL     1      -4.731   5.448  -3.812  1.00  0.00     0.170 HD
HETATM   30  H   UNL     1      -2.677   2.720  -4.104  1.00  0.00     0.164 HD
BRANCH  27  31
HETATM   31  C   UNL     1      -6.141   5.221  -5.302  1.00  0.00     0.039 A 
HETATM   32  C   UNL     1      -6.672   4.483  -6.362  1.00  0.00     0.071 A 
HETATM   33  C   UNL     1      -7.785   4.961  -7.049  1.00  0.00     0.118 A 
HETATM   34  F   UNL     1      -8.289   4.247  -8.065  1.00  0.00    -0.206 F 
HETATM   35  C   UNL     1      -8.385   6.165  -6.704  1.00  0.00     0.042 A 
HETATM   36  C   UNL     1      -7.866   6.907  -5.648  1.00  0.00     0.005 A 
HETATM   37  C   UNL     1      -6.750   6.435  -4.950  1.00  0.00     0.030 A 
ENDBRANCH  27  31
ENDBRANCH  24  25
ENDBRANCH   4  24
TORSDOF 7
