REMARK  5 active torsions:
REMARK  status: ('A' for Active; 'I' for Inactive)
REMARK    1  A    between atoms: N_3  and  C_4 
REMARK    2  A    between atoms: C_5  and  C_6 
REMARK    3  A    between atoms: C_15  and  C_16 
REMARK       I    between atoms: C_16  and  N_17 
REMARK    4  A    between atoms: N_17  and  N_18 
REMARK       I    between atoms: N_18  and  C_19 
REMARK    5  A    between atoms: C_19  and  C_20 
ROOT
HETATM    1  C   UNL     1       0.991  -0.027   0.523  1.00  0.00     0.070 C 
HETATM    2  C   UNL     1       2.454   0.116   0.173  1.00  0.00     0.036 A 
HETATM    3  N   UNL     1       3.213  -1.014  -0.156  1.00  0.00    -0.237 N 
HETATM    4  N   UNL     1       4.574  -0.995  -0.318  1.00  0.00    -0.158 NA
HETATM    5  C   UNL     1       5.201   0.147  -0.245  1.00  0.00     0.196 A 
HETATM    6  C   UNL     1       4.442   1.429  -0.023  1.00  0.00     0.209 A 
HETATM    7  O   UNL     1       5.019   2.507  -0.070  1.00  0.00    -0.286 OA
HETATM    8  C   UNL     1       3.006   1.335   0.251  1.00  0.00     0.084 A 
ENDROOT
BRANCH   5   9
HETATM    9  C   UNL     1       6.720   0.114  -0.384  1.00  0.00     0.294 C 
HETATM   10  N   UNL     1       7.335   1.330  -0.611  1.00  0.00    -0.261 N 
HETATM   11  H   UNL     1       6.838   2.225  -0.525  1.00  0.00     0.190 HD
HETATM   12  O   UNL     1       7.341  -0.938  -0.284  1.00  0.00    -0.264 OA
BRANCH  10  13
HETATM   13  N   UNL     1       8.736   1.374  -0.560  1.00  0.00    -0.262 N 
HETATM   14  C   UNL     1       9.365   2.586  -0.371  1.00  0.00     0.286 C 
HETATM   15  O   UNL     1       8.744   3.648  -0.356  1.00  0.00    -0.264 OA
HETATM   16  H   UNL     1       9.217   0.482  -0.480  1.00  0.00     0.190 HD
BRANCH  14  17
HETATM   17  C   UNL     1      10.799   2.523  -0.185  1.00  0.00     0.102 A 
HETATM   18  N   UNL     1      11.550   3.669  -0.023  1.00  0.00    -0.361 N 
HETATM   19  H   UNL     1      11.155   4.602  -0.025  1.00  0.00     0.165 HD
HETATM   20  C   UNL     1      12.872   3.354   0.134  1.00  0.00     0.088 A 
HETATM   21  C   UNL     1      12.988   1.985   0.079  1.00  0.00     0.019 A 
HETATM   22  C   UNL     1      11.687   1.460  -0.122  1.00  0.00     0.036 A 
ENDBRANCH  14  17
ENDBRANCH  10  13
ENDBRANCH   5   9
BRANCH   3  23
HETATM   23  C   UNL     1       2.662  -2.324  -0.304  1.00  0.00     0.073 A 
HETATM   24  C   UNL     1       3.095  -3.409   0.488  1.00  0.00     0.076 A 
HETATM   25  C   UNL     1       2.541  -4.688   0.264  1.00  0.00     0.018 A 
HETATM   26  C   UNL     1       1.568  -4.891  -0.712  1.00  0.00     0.001 A 
HETATM   27  C   UNL     1       1.140  -3.825  -1.493  1.00  0.00     0.002 A 
HETATM   28  C   UNL     1       1.688  -2.557  -1.295  1.00  0.00     0.032 A 
BRANCH  24  29
HETATM   29  C   UNL     1       4.131  -3.246   1.574  1.00  0.00     0.419 C 
HETATM   30  F   UNL     1       4.040  -2.079   2.276  1.00  0.00    -0.166 F 
HETATM   31  F   UNL     1       4.027  -4.224   2.529  1.00  0.00    -0.166 F 
HETATM   32  F   UNL     1       5.412  -3.336   1.124  1.00  0.00    -0.166 F 
ENDBRANCH  24  29
ENDBRANCH   3  23
TORSDOF 5
