REMARK  4 active torsions:
REMARK  status: ('A' for Active; 'I' for Inactive)
REMARK    1  A    between atoms: C_2  and  O_3 
REMARK    2  A    between atoms: O_3  and  C_4 
REMARK    3  A    between atoms: C_10  and  N_11 
REMARK       I    between atoms: N_11  and  C_12 
REMARK    4  A    between atoms: C_12  and  C_13 
ROOT
HETATM    1  N   UNL     1       5.290  -1.685   1.355  1.00  0.00    -0.320 N 
HETATM    2  C   UNL     1       4.236  -2.245   0.661  1.00  0.00     0.257 C 
HETATM    3  O   UNL     1       3.105  -1.785   0.562  1.00  0.00    -0.267 OA
HETATM    4  H   UNL     1       6.214  -2.090   1.253  1.00  0.00     0.169 HD
ENDROOT
BRANCH   2   5
HETATM    5  C   UNL     1       4.541  -3.507  -0.061  1.00  0.00     0.052 A 
HETATM    6  C   UNL     1       3.823  -3.785  -1.226  1.00  0.00     0.136 A 
HETATM    7  N   UNL     1       3.966  -4.885  -2.004  1.00  0.00    -0.238 NA
HETATM    8  C   UNL     1       4.877  -5.772  -1.549  1.00  0.00     0.177 A 
HETATM    9  C   UNL     1       5.616  -5.579  -0.388  1.00  0.00     0.083 A 
HETATM   10  N   UNL     1       5.190  -6.960  -2.144  1.00  0.00    -0.214 NA
HETATM   11  N   UNL     1       6.382  -6.712  -0.290  1.00  0.00    -0.342 N 
HETATM   12  C   UNL     1       5.479  -4.437   0.403  1.00  0.00     0.052 A 
HETATM   13  H   UNL     1       7.040  -6.928   0.446  1.00  0.00     0.167 HD
HETATM   14  C   UNL     1       6.098  -7.515  -1.368  1.00  0.00     0.103 A 
HETATM   15  C   UNL     1       6.744  -8.833  -1.573  1.00  0.00     0.091 C 
ENDBRANCH   2   5
BRANCH   1  16
HETATM   16  C   UNL     1       5.262  -0.537   2.182  1.00  0.00     0.070 A 
HETATM   17  C   UNL     1       6.487  -0.081   2.704  1.00  0.00     0.117 A 
HETATM   18  C   UNL     1       6.521   0.999   3.599  1.00  0.00     0.069 A 
HETATM   19 CL   UNL     1       7.993   1.530   4.329  1.00  0.00    -0.081 Cl
HETATM   20  C   UNL     1       5.342   1.667   3.929  1.00  0.00     0.027 A 
HETATM   21  C   UNL     1       4.131   1.243   3.385  1.00  0.00     0.004 A 
HETATM   22  C   UNL     1       4.090   0.143   2.522  1.00  0.00     0.032 A 
BRANCH  17  23
HETATM   23  O   UNL     1       7.636  -0.761   2.365  1.00  0.00    -0.347 OA
BRANCH  23  24
HETATM   24  C   UNL     1       8.338  -0.076   1.315  1.00  0.00     0.171 C 
HETATM   25  C   UNL     1       9.817  -0.382   1.459  1.00  0.00     0.034 C 
ENDBRANCH  23  24
ENDBRANCH  17  23
ENDBRANCH   1  16
TORSDOF 4
