REMARK  6 active torsions:
REMARK  status: ('A' for Active; 'I' for Inactive)
REMARK    1  A    between atoms: C_2  and  C_4 
REMARK    2  A    between atoms: C_2  and  C_11 
REMARK    3  A    between atoms: C_2  and  O_3 
REMARK    4  A    between atoms: C_11  and  N_12 
REMARK       I    between atoms: N_12  and  C_13 
REMARK    5  A    between atoms: C_13  and  C_14 
REMARK    6  A    between atoms: C_15  and  C_16 
ROOT
HETATM    1  N   UNL     1       4.615   0.845   1.426  1.00  0.00    -0.354 N 
HETATM    2  C   UNL     1       5.383   1.646   2.240  1.00  0.00     0.255 C 
HETATM    3  O   UNL     1       4.880   2.414   3.055  1.00  0.00    -0.268 OA
HETATM    4  H   UNL     1       5.070   0.422   0.628  1.00  0.00     0.162 HD
ENDROOT
BRANCH   2   5
HETATM    5  C   UNL     1       6.817   1.512   2.048  1.00  0.00     0.080 A 
HETATM    6  C   UNL     1       7.845   2.483   2.270  1.00  0.00     0.107 A 
HETATM    7  N   UNL     1       9.063   1.945   2.069  1.00  0.00    -0.173 NA
HETATM    8  N   UNL     1       8.820   0.687   1.689  1.00  0.00    -0.288 N 
HETATM    9  H   UNL     1       9.613   0.090   1.479  1.00  0.00     0.188 HD
HETATM   10  C   UNL     1       7.496   0.374   1.652  1.00  0.00     0.128 A 
BRANCH   6  11
HETATM   11  C   UNL     1       7.717   3.886   2.650  1.00  0.00     0.034 A 
HETATM   12  C   UNL     1       6.807   4.729   2.007  1.00  0.00     0.129 A 
HETATM   13  F   UNL     1       6.041   4.271   1.005  1.00  0.00    -0.205 F 
HETATM   14  C   UNL     1       6.690   6.072   2.363  1.00  0.00     0.043 A 
HETATM   15  C   UNL     1       7.500   6.594   3.369  1.00  0.00     0.003 A 
HETATM   16  C   UNL     1       8.427   5.772   4.010  1.00  0.00     0.001 A 
HETATM   17  C   UNL     1       8.538   4.425   3.651  1.00  0.00     0.017 A 
ENDBRANCH   6  11
ENDBRANCH   2   5
BRANCH   1  18
HETATM   18  C   UNL     1       3.158   0.855   1.465  1.00  0.00     0.165 C 
BRANCH  18  19
HETATM   19  C   UNL     1       2.479   2.147   0.910  1.00  0.00     0.097 C 
HETATM   20  C   UNL     1       0.970   1.890   0.762  1.00  0.00     0.053 C 
BRANCH  19  21
HETATM   21  C   UNL     1       3.037   2.604  -0.441  1.00  0.00    -0.023 A 
HETATM   22  C   UNL     1       3.182   1.701  -1.512  1.00  0.00     0.013 A 
HETATM   23  C   UNL     1       3.690   2.124  -2.743  1.00  0.00     0.043 A 
HETATM   24  C   UNL     1       4.048   3.453  -2.919  1.00  0.00     0.116 A 
HETATM   25  F   UNL     1       4.533   3.856  -4.101  1.00  0.00    -0.206 F 
HETATM   26  C   UNL     1       3.905   4.370  -1.888  1.00  0.00     0.043 A 
HETATM   27  C   UNL     1       3.399   3.947  -0.657  1.00  0.00     0.013 A 
ENDBRANCH  19  21
BRANCH  19  28
HETATM   28  O   UNL     1       2.578   3.205   1.876  1.00  0.00    -0.384 OA
HETATM   29  H   UNL     1       3.411   3.077   2.379  1.00  0.00     0.211 HD
ENDBRANCH  19  28
ENDBRANCH  18  19
ENDBRANCH   1  18
TORSDOF 6
