REMARK  7 active torsions:
REMARK  status: ('A' for Active; 'I' for Inactive)
REMARK    1  A    between atoms: N_2  and  C_4 
REMARK    2  A    between atoms: C_4  and  C_5 
REMARK    3  A    between atoms: C_5  and  C_6 
REMARK    4  A    between atoms: C_6  and  N_7 
REMARK    5  A    between atoms: N_7  and  C_8 
REMARK    6  A    between atoms: C_23  and  N_24 
REMARK    7  A    between atoms: N_27  and  C_29 
ROOT
HETATM    1  C   UNL     1       3.118  -0.425  -6.132  1.00  0.00     0.025 A 
HETATM    2  C   UNL     1       3.034   0.924  -6.531  1.00  0.00     0.052 A 
HETATM    3  C   UNL     1       3.217   1.057  -7.884  1.00  0.00     0.050 A 
HETATM    4  C   UNL     1       3.175   2.277  -8.464  1.00  0.00     0.126 A 
HETATM    5  C   UNL     1       2.927   3.537  -7.811  1.00  0.00     0.015 A 
HETATM    6  C   UNL     1       2.739   3.471  -6.404  1.00  0.00     0.028 A 
HETATM    7  C   UNL     1       2.824   2.136  -5.701  1.00  0.00     0.196 A 
HETATM    8  O   UNL     1       2.750   2.021  -4.482  1.00  0.00    -0.287 OA
HETATM    9  C   UNL     1       2.850   4.762  -8.469  1.00  0.00     0.015 A 
HETATM   10  C   UNL     1       2.584   5.919  -7.730  1.00  0.00     0.001 A 
HETATM   11  C   UNL     1       2.399   5.854  -6.344  1.00  0.00     0.001 A 
HETATM   12  C   UNL     1       2.477   4.630  -5.675  1.00  0.00     0.016 A 
HETATM   13  C   UNL     1       3.446   0.089  -8.889  1.00  0.00     0.125 A 
HETATM   14  N   UNL     1       3.594   0.756 -10.061  1.00  0.00    -0.125 NA
HETATM   15  O   UNL     1       3.404   2.123  -9.789  1.00  0.00    -0.211 OA
HETATM   16  C   UNL     1       3.501  -1.297  -8.551  1.00  0.00     0.064 A 
HETATM   17  C   UNL     1       3.306  -1.472  -7.125  1.00  0.00     0.056 A 
ENDROOT
BRANCH  16  18
HETATM   18  N   UNL     1       3.630  -2.388  -9.417  1.00  0.00    -0.376 N 
HETATM   19  C   UNL     1       4.512  -3.502  -9.039  1.00  0.00     0.150 C 
HETATM   20  C   UNL     1       5.937  -3.301  -9.602  1.00  0.00     0.255 C 
HETATM   21  N   UNL     1       5.926  -3.092 -11.128  1.00  0.00    -0.064 N 
HETATM   22  H   UNL     1       5.506  -3.930 -11.547  1.00  0.00     0.280 HD
HETATM   23  C   UNL     1       4.973  -1.916 -11.471  1.00  0.00     0.255 C 
HETATM   24  C   UNL     1       3.568  -2.163 -10.875  1.00  0.00     0.150 C 
BRANCH  21  25
HETATM   25  C   UNL     1       7.340  -2.916 -11.713  1.00  0.00     0.188 C 
HETATM   26  C   UNL     1       8.224  -4.142 -11.409  1.00  0.00     0.033 C 
HETATM   27  C   UNL     1       7.734  -5.412 -12.106  1.00  0.00     0.002 C 
HETATM   28  C   UNL     1       7.616  -5.211 -13.615  1.00  0.00     0.000 C 
HETATM   29  C   UNL     1       6.801  -3.971 -13.978  1.00  0.00     0.002 C 
HETATM   30  C   UNL     1       7.303  -2.729 -13.240  1.00  0.00     0.033 C 
ENDBRANCH  21  25
ENDBRANCH  16  18
BRANCH   1  31
HETATM   31  N   UNL     1       2.908  -0.745  -4.762  1.00  0.00    -0.292 NA
HETATM   32  H   UNL     1       2.912   0.152  -4.244  1.00  0.00     0.127 HD
BRANCH  31  33
HETATM   33  C   UNL     1       3.798  -1.740  -4.176  1.00  0.00     0.094 C 
BRANCH  33  34
HETATM   34  C   UNL     1       3.800  -1.612  -2.650  1.00  0.00     0.042 C 
BRANCH  34  35
HETATM   35  C   UNL     1       2.425  -1.885  -2.044  1.00  0.00     0.235 C 
BRANCH  35  36
HETATM   36  N   UNL     1       2.448  -1.664  -0.539  1.00  0.00    -0.079 N 
HETATM   37  C   UNL     1       3.212  -2.714   0.222  1.00  0.00     0.269 C 
HETATM   38  H   UNL     1       2.910  -0.761  -0.365  1.00  0.00     0.278 HD
HETATM   39  C   UNL     1       1.051  -1.518   0.012  1.00  0.00     0.269 C 
ENDBRANCH  35  36
ENDBRANCH  34  35
ENDBRANCH  33  34
ENDBRANCH  31  33
ENDBRANCH   1  31
TORSDOF 7
