REMARK  6 active torsions:
REMARK  status: ('A' for Active; 'I' for Inactive)
REMARK    1  A    between atoms: C_2  and  O_3 
REMARK    2  A    between atoms: O_3  and  C_4 
REMARK    3  A    between atoms: C_7  and  N_8 
REMARK    4  A    between atoms: C_9  and  O_10 
REMARK    5  A    between atoms: C_9  and  C_11 
REMARK       I    between atoms: C_11  and  N_12 
REMARK    6  A    between atoms: N_12  and  C_13 
ROOT
HETATM    1  N   UNL     1       8.156   2.631  -1.560  1.00  0.00    -0.254 N 
HETATM    2  C   UNL     1       8.906   3.893  -1.507  1.00  0.00     0.256 C 
HETATM    3  C   UNL     1       9.558   4.162  -2.845  1.00  0.00     0.035 A 
HETATM    4  C   UNL     1      10.115   3.055  -3.482  1.00  0.00     0.048 A 
HETATM    5  N   UNL     1       9.874   1.796  -2.935  1.00  0.00    -0.308 N 
HETATM    6  C   UNL     1       8.845   1.522  -2.059  1.00  0.00     0.330 C 
HETATM    7  O   UNL     1       8.562   0.339  -1.876  1.00  0.00    -0.246 OA
HETATM    8  C   UNL     1       9.719   5.434  -3.412  1.00  0.00     0.034 A 
HETATM    9  C   UNL     1      10.449   5.575  -4.593  1.00  0.00     0.011 A 
HETATM   10 BR   UNL     1      10.667   7.289  -5.359  1.00  0.00    -0.051 Br
HETATM   11  C   UNL     1      11.032   4.464  -5.205  1.00  0.00     0.021 A 
HETATM   12  C   UNL     1      10.869   3.196  -4.644  1.00  0.00     0.031 A 
HETATM   13  H   UNL     1      10.261   0.969  -3.373  1.00  0.00     0.170 HD
ENDROOT
BRANCH   1  14
HETATM   14  C   UNL     1       6.904   2.472  -0.892  1.00  0.00     0.043 A 
HETATM   15  C   UNL     1       6.670   1.418  -0.005  1.00  0.00     0.032 A 
HETATM   16  C   UNL     1       5.419   1.258   0.602  1.00  0.00     0.039 A 
HETATM   17  C   UNL     1       4.371   2.137   0.323  1.00  0.00     0.068 A 
HETATM   18  C   UNL     1       4.588   3.181  -0.572  1.00  0.00     0.039 A 
HETATM   19  C   UNL     1       5.842   3.341  -1.177  1.00  0.00     0.032 A 
BRANCH  17  20
HETATM   20  O   UNL     1       3.200   1.863   0.972  1.00  0.00    -0.352 OA
BRANCH  20  21
HETATM   21  C   UNL     1       2.099   2.733   0.717  1.00  0.00     0.171 C 
HETATM   22  C   UNL     1       0.912   2.239   1.525  1.00  0.00     0.034 C 
ENDBRANCH  20  21
ENDBRANCH  17  20
ENDBRANCH   1  14
BRANCH   2  23
HETATM   23  O   UNL     1       8.079   5.009  -1.167  1.00  0.00    -0.359 OA
HETATM   24  H   UNL     1       7.778   4.817  -0.258  1.00  0.00     0.213 HD
ENDBRANCH   2  23
BRANCH   2  25
HETATM   25  C   UNL     1       9.959   3.785  -0.318  1.00  0.00     0.279 C 
HETATM   26  N   UNL     1      11.217   4.330  -0.531  1.00  0.00    -0.352 N 
HETATM   27  H   UNL     1      11.440   4.753  -1.424  1.00  0.00     0.163 HD
HETATM   28  O   UNL     1       9.638   3.326   0.784  1.00  0.00    -0.268 OA
BRANCH  26  29
HETATM   29  C   UNL     1      12.244   4.297   0.461  1.00  0.00     0.084 A 
HETATM   30  C   UNL     1      13.270   3.198   0.458  1.00  0.00     0.027 A 
HETATM   31  C   UNL     1      13.672   4.596   0.092  1.00  0.00     0.027 A 
ENDBRANCH  26  29
ENDBRANCH   2  25
TORSDOF 6
