REMARK  6 active torsions:
REMARK  status: ('A' for Active; 'I' for Inactive)
REMARK    1  A    between atoms: O_2  and  C_3 
REMARK    2  A    between atoms: C_6  and  N_7 
REMARK    3  A    between atoms: C_14  and  C_15 
REMARK       I    between atoms: C_15  and  N_16 
REMARK    4  A    between atoms: N_16  and  C_17 
REMARK    5  A    between atoms: C_20  and  C_21 
REMARK    6  A    between atoms: C_34  and  O_35 
ROOT
HETATM    1  N   UNL     1       5.283   4.761   0.862  1.00  0.00    -0.336 N 
HETATM    2  H   UNL     1       4.759   5.648   0.804  1.00  0.00     0.168 HD
HETATM    3  C   UNL     1       6.520   4.861   1.198  1.00  0.00     0.164 A 
HETATM    4  O   UNL     1       7.183   3.684   1.428  1.00  0.00    -0.289 OA
HETATM    5  C   UNL     1       8.506   3.664   1.912  1.00  0.00     0.121 A 
HETATM    6  C   UNL     1       9.159   4.862   2.186  1.00  0.00     0.002 A 
HETATM    7  C   UNL     1       8.473   6.124   1.929  1.00  0.00     0.035 A 
HETATM    8  C   UNL     1       7.230   6.154   1.418  1.00  0.00     0.084 A 
HETATM    9  C   UNL     1       9.110   2.416   2.111  1.00  0.00     0.102 A 
HETATM   10  C   UNL     1      10.412   2.387   2.609  1.00  0.00     0.040 A 
HETATM   11  C   UNL     1      11.082   3.582   2.897  1.00  0.00     0.004 A 
HETATM   12  C   UNL     1      10.460   4.816   2.685  1.00  0.00     0.014 A 
ENDROOT
BRANCH   8  13
HETATM   13  C   UNL     1       6.493   7.438   1.128  1.00  0.00     0.260 C 
HETATM   14  N   UNL     1       7.235   8.591   1.097  1.00  0.00    -0.323 N 
HETATM   15  H   UNL     1       8.232   8.538   1.255  1.00  0.00     0.169 HD
HETATM   16  O   UNL     1       5.285   7.330   0.911  1.00  0.00    -0.267 OA
BRANCH  14  17
HETATM   17  C   UNL     1       6.780   9.911   0.879  1.00  0.00     0.035 A 
HETATM   18  C   UNL     1       5.469  10.258   0.555  1.00  0.00     0.030 A 
HETATM   19  C   UNL     1       5.113  11.606   0.371  1.00  0.00     0.017 A 
HETATM   20  C   UNL     1       6.062  12.624   0.522  1.00  0.00     0.010 A 
HETATM   21  C   UNL     1       7.373  12.268   0.851  1.00  0.00     0.017 A 
HETATM   22  C   UNL     1       7.732  10.928   1.016  1.00  0.00     0.030 A 
BRANCH  20  23
HETATM   23  C   UNL     1       5.732  14.042   0.379  1.00  0.00     0.139 A 
HETATM   24  N   UNL     1       6.329  15.032   1.018  1.00  0.00    -0.228 NA
HETATM   25  C   UNL     1       5.739  16.187   0.570  1.00  0.00     0.086 A 
HETATM   26  C   UNL     1       4.771  15.908  -0.386  1.00  0.00     0.062 A 
HETATM   27  C   UNL     1       5.987  17.519   0.929  1.00  0.00     0.034 A 
HETATM   28  N   UNL     1       4.781  14.540  -0.483  1.00  0.00    -0.338 N 
HETATM   29  C   UNL     1       4.026  16.896  -1.033  1.00  0.00     0.032 A 
HETATM   30  H   UNL     1       4.214  13.993  -1.112  1.00  0.00     0.167 HD
HETATM   31  C   UNL     1       4.290  18.221  -0.666  1.00  0.00     0.002 A 
HETATM   32  C   UNL     1       5.251  18.531   0.301  1.00  0.00     0.002 A 
ENDBRANCH  20  23
ENDBRANCH  14  17
ENDBRANCH   8  13
BRANCH   1  33
HETATM   33  C   UNL     1       4.503   3.608   0.641  1.00  0.00     0.034 A 
HETATM   34  C   UNL     1       3.110   3.771   0.712  1.00  0.00     0.032 A 
HETATM   35  C   UNL     1       2.249   2.677   0.532  1.00  0.00     0.039 A 
HETATM   36  C   UNL     1       2.770   1.415   0.259  1.00  0.00     0.068 A 
HETATM   37  C   UNL     1       4.152   1.262   0.146  1.00  0.00     0.039 A 
HETATM   38  C   UNL     1       5.017   2.347   0.331  1.00  0.00     0.032 A 
BRANCH  36  39
HETATM   39  O   UNL     1       2.055   0.269   0.069  1.00  0.00    -0.356 OA
HETATM   40  C   UNL     1       0.655   0.322   0.322  1.00  0.00     0.210 C 
ENDBRANCH  36  39
ENDBRANCH   1  33
BRANCH   9  41
HETATM   41  O   UNL     1       8.350   1.325   1.789  1.00  0.00    -0.353 OA
HETATM   42  C   UNL     1       8.946   0.045   1.976  1.00  0.00     0.210 C 
ENDBRANCH   9  41
TORSDOF 6
