REMARK  8 active torsions:
REMARK  status: ('A' for Active; 'I' for Inactive)
REMARK    1  A    between atoms: C_4  and  O_5 
REMARK    2  A    between atoms: O_5  and  C_6 
REMARK    3  A    between atoms: C_6  and  C_7 
REMARK    4  A    between atoms: C_7  and  N_8 
REMARK       I    between atoms: N_8  and  C_9 
REMARK    5  A    between atoms: C_9  and  C_10 
REMARK    6  A    between atoms: C_10  and  S_11 
REMARK    7  A    between atoms: S_11  and  C_12 
REMARK    8  A    between atoms: C_15  and  C_16 
ROOT
HETATM    1  C   UNL     1       7.023   7.140  -1.303  1.00  0.00     0.185 C 
ENDROOT
BRANCH   1   2
HETATM    2  C   UNL     1       5.588   6.824  -0.895  1.00  0.00     0.227 C 
HETATM    3  N   UNL     1       4.747   7.922  -1.009  1.00  0.00    -0.358 N 
HETATM    4  H   UNL     1       5.058   8.693  -1.587  1.00  0.00     0.162 HD
HETATM    5  O   UNL     1       5.206   5.739  -0.465  1.00  0.00    -0.273 OA
BRANCH   3   6
HETATM    6  C   UNL     1       3.322   7.820  -0.739  1.00  0.00     0.149 C 
BRANCH   6   7
HETATM    7  C   UNL     1       2.769   9.064  -0.041  1.00  0.00     0.195 C 
BRANCH   7   8
HETATM    8  O   UNL     1       1.356   8.917   0.084  1.00  0.00    -0.350 OA
BRANCH   8   9
HETATM    9  C   UNL     1       0.672   9.914   0.725  1.00  0.00     0.069 A 
HETATM   10  C   UNL     1       1.222  11.081   1.258  1.00  0.00     0.043 A 
HETATM   11  C   UNL     1       0.404  12.026   1.901  1.00  0.00    -0.059 A 
HETATM   12  C   UNL     1       0.982  13.290   2.466  1.00  0.00     0.048 C 
HETATM   13  C   UNL     1      -0.974  11.794   1.989  1.00  0.00     0.007 A 
HETATM   14  C   UNL     1      -1.526  10.632   1.456  1.00  0.00     0.003 A 
HETATM   15  C   UNL     1      -0.704   9.697   0.828  1.00  0.00     0.037 A 
ENDBRANCH   8   9
ENDBRANCH   7   8
ENDBRANCH   6   7
ENDBRANCH   3   6
ENDBRANCH   1   2
BRANCH   1  16
HETATM   16  S   UNL     1       8.121   5.707  -1.140  1.00  0.00    -0.081 SA
BRANCH  16  17
HETATM   17  C   UNL     1       7.660   4.811  -2.542  1.00  0.00     0.191 A 
HETATM   18  N   UNL     1       7.567   3.449  -2.582  1.00  0.00    -0.312 N 
HETATM   19  C   UNL     1       7.638   2.540  -1.467  1.00  0.00     0.160 C 
HETATM   20  C   UNL     1       7.334   3.128  -3.904  1.00  0.00     0.164 A 
HETATM   21  N   UNL     1       7.193   4.256  -4.581  1.00  0.00    -0.128 NA
HETATM   22  N   UNL     1       7.407   5.311  -3.727  1.00  0.00    -0.122 NA
BRANCH  20  23
HETATM   23  C   UNL     1       7.257   1.775  -4.460  1.00  0.00     0.018 A 
HETATM   24  C   UNL     1       6.143   1.344  -5.211  1.00  0.00    -0.048 A 
HETATM   25  C   UNL     1       4.977   2.253  -5.496  1.00  0.00     0.049 C 
HETATM   26  C   UNL     1       6.133   0.040  -5.737  1.00  0.00     0.007 A 
HETATM   27  C   UNL     1       7.202  -0.829  -5.521  1.00  0.00     0.001 A 
HETATM   28  C   UNL     1       8.304  -0.404  -4.788  1.00  0.00     0.001 A 
HETATM   29  C   UNL     1       8.334   0.891  -4.267  1.00  0.00     0.016 A 
ENDBRANCH  20  23
ENDBRANCH  16  17
ENDBRANCH   1  16
TORSDOF 8
