REMARK  6 active torsions:
REMARK  status: ('A' for Active; 'I' for Inactive)
REMARK    1  A    between atoms: C_8  and  C_9 
REMARK    2  A    between atoms: C_9  and  C_10 
REMARK    3  A    between atoms: C_10  and  N_11 
REMARK    4  A    between atoms: C_10  and  C_19 
REMARK       I    between atoms: N_11  and  C_12 
REMARK    5  A    between atoms: C_12  and  C_13 
REMARK       I    between atoms: C_19  and  N_20 
REMARK    6  A    between atoms: N_20  and  C_21 
ROOT
HETATM    1  C   UNL     1      -1.411  -3.530   0.179  1.00  0.00     0.181 C 
ENDROOT
BRANCH   1   2
HETATM    2  C   UNL     1      -2.493  -2.430   0.171  1.00  0.00     0.075 C 
BRANCH   2   3
HETATM    3  C   UNL     1      -2.835  -1.952  -1.210  1.00  0.00    -0.028 A 
HETATM    4  C   UNL     1      -3.671  -2.599  -2.179  1.00  0.00    -0.002 A 
HETATM    5  C   UNL     1      -4.411  -3.799  -2.204  1.00  0.00     0.014 A 
HETATM    6  C   UNL     1      -3.693  -1.790  -3.316  1.00  0.00     0.042 A 
HETATM    7  C   UNL     1      -5.120  -4.154  -3.358  1.00  0.00     0.001 A 
HETATM    8  C   UNL     1      -5.114  -3.327  -4.477  1.00  0.00     0.002 A 
HETATM    9  C   UNL     1      -4.404  -2.124  -4.475  1.00  0.00     0.030 A 
HETATM   10  N   UNL     1      -2.919  -0.687  -3.045  1.00  0.00    -0.365 N 
HETATM   11  H   UNL     1      -2.765   0.075  -3.691  1.00  0.00     0.165 HD
HETATM   12  C   UNL     1      -2.397  -0.773  -1.784  1.00  0.00     0.096 A 
ENDBRANCH   2   3
ENDBRANCH   1   2
BRANCH   1  13
HETATM   13  N   UNL     1      -0.501  -3.456   1.329  1.00  0.00    -0.343 N 
HETATM   14  C   UNL     1      -0.901  -3.396   2.644  1.00  0.00     0.259 C 
HETATM   15  O   UNL     1      -2.096  -3.454   2.935  1.00  0.00    -0.267 OA
HETATM   16  H   UNL     1       0.494  -3.495   1.142  1.00  0.00     0.163 HD
BRANCH  14  17
HETATM   17  C   UNL     1       0.159  -3.281   3.635  1.00  0.00     0.072 A 
HETATM   18  S   UNL     1       1.819  -3.238   3.202  1.00  0.00    -0.097 SA
HETATM   19  C   UNL     1       2.316  -3.096   4.830  1.00  0.00     0.050 A 
HETATM   20  C   UNL     1       1.246  -3.080   5.696  1.00  0.00     0.009 A 
HETATM   21  C   UNL     1       0.003  -3.188   5.006  1.00  0.00     0.025 A 
ENDBRANCH  14  17
ENDBRANCH   1  13
BRANCH   1  22
HETATM   22  C   UNL     1      -1.999  -4.954   0.059  1.00  0.00     0.245 C 
HETATM   23  N   UNL     1      -2.904  -5.281   1.053  1.00  0.00    -0.324 N 
HETATM   24  H   UNL     1      -2.966  -4.631   1.839  1.00  0.00     0.169 HD
HETATM   25  O   UNL     1      -1.646  -5.704  -0.849  1.00  0.00    -0.271 OA
BRANCH  23  26
HETATM   26  C   UNL     1      -3.720  -6.426   1.120  1.00  0.00     0.052 A 
HETATM   27  C   UNL     1      -3.785  -7.425   0.153  1.00  0.00     0.145 A 
HETATM   28  N   UNL     1      -4.617  -8.498   0.222  1.00  0.00    -0.271 NA
HETATM   29  C   UNL     1      -5.416  -8.581   1.305  1.00  0.00     0.116 A 
HETATM   30  C   UNL     1      -5.425  -7.644   2.324  1.00  0.00     0.021 A 
HETATM   31  C   UNL     1      -4.563  -6.553   2.226  1.00  0.00     0.032 A 
ENDBRANCH  23  26
ENDBRANCH   1  22
TORSDOF 6
