REMARK  3 active torsions:
REMARK  status: ('A' for Active; 'I' for Inactive)
REMARK    1  A    between atoms: C_2  and  C_3 
REMARK    2  A    between atoms: C_6  and  N_7 
REMARK    3  A    between atoms: C_14  and  C_15 
REMARK       I    between atoms: C_15  and  N_16 
ROOT
HETATM    1  N   UNL     1       5.207   4.441   2.068  1.00  0.00    -0.252 N 
HETATM    2  C   UNL     1       6.244   4.992   1.342  1.00  0.00     0.238 C 
HETATM    3  O   UNL     1       6.742   4.648   0.280  1.00  0.00    -0.272 OA
HETATM    4  C   UNL     1       6.635   6.302   1.961  1.00  0.00     0.135 C 
HETATM    5  C   UNL     1       6.036   6.203   3.340  1.00  0.00     0.130 C 
HETATM    6  C   UNL     1       4.902   5.245   3.148  1.00  0.00     0.238 C 
HETATM    7  O   UNL     1       3.929   5.264   3.883  1.00  0.00    -0.272 OA
HETATM    8  C   UNL     1       5.996   7.506   1.282  1.00  0.00     0.298 C 
HETATM    9  N   UNL     1       5.267   8.260   2.420  1.00  0.00    -0.028 N 
HETATM   10  H   UNL     1       4.253   8.096   2.233  1.00  0.00     0.287 HD
HETATM   11  C   UNL     1       5.569   7.594   3.754  1.00  0.00     0.242 C 
HETATM   12  C   UNL     1       5.476   9.673   2.336  1.00  0.00     0.203 C 
HETATM   13  C   UNL     1       6.288  10.303   3.189  1.00  0.00     0.037 C 
HETATM   14  C   UNL     1       6.939   9.632   4.307  1.00  0.00    -0.026 A 
HETATM   15  C   UNL     1       6.589   8.310   4.611  1.00  0.00    -0.016 A 
HETATM   16  C   UNL     1       7.847  10.325   5.116  1.00  0.00     0.012 A 
HETATM   17  C   UNL     1       8.397   9.711   6.240  1.00  0.00     0.001 A 
HETATM   18  C   UNL     1       8.028   8.412   6.572  1.00  0.00     0.001 A 
HETATM   19  C   UNL     1       7.121   7.718   5.770  1.00  0.00     0.010 A 
ENDROOT
BRANCH   1  20
HETATM   20  C   UNL     1       4.488   3.257   1.701  1.00  0.00     0.045 A 
HETATM   21  C   UNL     1       4.963   2.383   0.706  1.00  0.00     0.031 A 
HETATM   22  C   UNL     1       4.280   1.201   0.369  1.00  0.00     0.017 A 
HETATM   23  C   UNL     1       3.096   0.864   1.022  1.00  0.00     0.009 A 
HETATM   24  C   UNL     1       2.597   1.726   1.998  1.00  0.00     0.017 A 
HETATM   25  C   UNL     1       3.289   2.897   2.337  1.00  0.00     0.031 A 
BRANCH  23  26
HETATM   26  C   UNL     1       2.334  -0.378   0.718  1.00  0.00     0.155 C 
HETATM   27  C   UNL     1       3.052  -1.546   0.097  1.00  0.00     0.096 C 
HETATM   28  O   UNL     1       1.134  -0.424   0.979  1.00  0.00    -0.293 OA
ENDBRANCH  23  26
ENDBRANCH   1  20
BRANCH   8  29
HETATM   29  C   UNL     1       4.954   7.211   0.185  1.00  0.00     0.248 C 
HETATM   30  N   UNL     1       5.378   6.773  -1.024  1.00  0.00    -0.368 N 
HETATM   31  H   UNL     1       6.242   6.244  -1.142  1.00  0.00     0.159 HD
HETATM   32  H   UNL     1       4.655   6.529  -1.699  1.00  0.00     0.159 HD
HETATM   33  O   UNL     1       3.763   7.400   0.435  1.00  0.00    -0.271 OA
ENDBRANCH   8  29
TORSDOF 3
