REMARK  7 active torsions:
REMARK  status: ('A' for Active; 'I' for Inactive)
REMARK    1  A    between atoms: S_2  and  C_3 
REMARK    2  A    between atoms: C_6  and  C_7 
REMARK    3  A    between atoms: N_8  and  C_9 
REMARK    4  A    between atoms: C_9  and  C_10 
REMARK    5  A    between atoms: C_10  and  C_11 
REMARK    6  A    between atoms: C_24  and  C_25 
REMARK    7  A    between atoms: C_26  and  O_27 
ROOT
HETATM    1  C   UNL     1       3.607  -4.254  -4.003  1.00  0.00     0.159 A 
HETATM    2  N   UNL     1       2.674  -5.386  -3.781  1.00  0.00    -0.333 N 
HETATM    3  C   UNL     1       3.276  -6.652  -3.904  1.00  0.00     0.275 A 
HETATM    4  O   UNL     1       2.753  -7.742  -3.737  1.00  0.00    -0.266 OA
HETATM    5  C   UNL     1       4.655  -6.361  -4.232  1.00  0.00     0.155 A 
HETATM    6  C   UNL     1       4.869  -4.982  -4.271  1.00  0.00     0.034 A 
HETATM    7  N   UNL     1       5.762  -7.071  -4.431  1.00  0.00    -0.168 NA
HETATM    8  N   UNL     1       6.694  -6.104  -4.624  1.00  0.00    -0.276 N 
HETATM    9  H   UNL     1       7.652  -6.385  -4.810  1.00  0.00     0.189 HD
HETATM   10  C   UNL     1       6.214  -4.812  -4.483  1.00  0.00     0.074 A 
ENDROOT
BRANCH   1  11
HETATM   11  C   UNL     1       3.862  -3.364  -2.811  1.00  0.00    -0.031 A 
HETATM   12  C   UNL     1       4.060  -3.863  -1.513  1.00  0.00     0.011 A 
HETATM   13  C   UNL     1       4.346  -2.999  -0.452  1.00  0.00     0.019 A 
HETATM   14  C   UNL     1       4.446  -1.623  -0.669  1.00  0.00    -0.000 A 
HETATM   15  C   UNL     1       4.225  -1.113  -1.948  1.00  0.00     0.019 A 
HETATM   16  C   UNL     1       3.938  -1.974  -3.009  1.00  0.00     0.011 A 
BRANCH  14  17
HETATM   17  S   UNL     1       4.848  -0.540   0.687  1.00  0.00    -0.134 SA
HETATM   18  C   UNL     1       6.513  -0.047   0.168  1.00  0.00     0.095 C 
ENDBRANCH  14  17
ENDBRANCH   1  11
BRANCH   2  19
HETATM   19  C   UNL     1       1.303  -5.233  -3.315  1.00  0.00     0.132 C 
BRANCH  19  20
HETATM   20  C   UNL     1       0.545  -4.000  -3.823  1.00  0.00     0.058 C 
BRANCH  20  21
HETATM   21  C   UNL     1       0.441  -3.817  -5.320  1.00  0.00    -0.057 A 
HETATM   22  C   UNL     1       0.436  -4.893  -6.218  1.00  0.00     0.007 A 
HETATM   23  C   UNL     1       0.318  -4.672  -7.592  1.00  0.00     0.001 A 
HETATM   24  C   UNL     1       0.189  -3.375  -8.085  1.00  0.00     0.000 A 
HETATM   25  C   UNL     1       0.171  -2.298  -7.205  1.00  0.00     0.001 A 
HETATM   26  C   UNL     1       0.292  -2.517  -5.832  1.00  0.00     0.007 A 
ENDBRANCH  20  21
ENDBRANCH  19  20
ENDBRANCH   2  19
BRANCH  10  27
HETATM   27  C   UNL     1       7.062  -3.631  -4.536  1.00  0.00     0.026 A 
HETATM   28  C   UNL     1       8.225  -3.522  -3.758  1.00  0.00     0.078 A 
HETATM   29  C   UNL     1       9.055  -2.408  -3.853  1.00  0.00     0.037 A 
HETATM   30  C   UNL     1       8.713  -1.364  -4.710  1.00  0.00     0.003 A 
HETATM   31  C   UNL     1       7.548  -1.442  -5.472  1.00  0.00     0.001 A 
HETATM   32  C   UNL     1       6.728  -2.571  -5.389  1.00  0.00     0.016 A 
BRANCH  28  33
HETATM   33  O   UNL     1       8.589  -4.481  -2.851  1.00  0.00    -0.360 OA
HETATM   34  H   UNL     1       7.770  -4.866  -2.489  1.00  0.00     0.217 HD
ENDBRANCH  28  33
ENDBRANCH  10  27
TORSDOF 7
