REMARK  8 active torsions:
REMARK  status: ('A' for Active; 'I' for Inactive)
REMARK    1  A    between atoms: N_2  and  C_4 
REMARK    2  A    between atoms: N_2  and  C_10 
REMARK    3  A    between atoms: C_10  and  C_11 
REMARK    4  A    between atoms: C_12  and  N_13 
REMARK    5  A    between atoms: N_13  and  C_14 
REMARK    6  A    between atoms: C_14  and  C_15 
REMARK       I    between atoms: C_15  and  N_16 
REMARK    7  A    between atoms: N_16  and  N_17 
REMARK       I    between atoms: N_17  and  C_18 
REMARK    8  A    between atoms: C_18  and  C_19 
ROOT
HETATM    1  N   UNL     1       4.469   1.011  -2.969  1.00  0.00    -0.284 NA
HETATM    2  H   UNL     1       4.318   1.982  -3.278  1.00  0.00     0.128 HD
ENDROOT
BRANCH   1   3
HETATM    3  C   UNL     1       5.208   1.051  -1.766  1.00  0.00     0.016 A 
HETATM    4  C   UNL     1       4.511   1.276  -0.555  1.00  0.00    -0.011 A 
HETATM    5  C   UNL     1       5.226   1.413   0.650  1.00  0.00     0.011 A 
HETATM    6  C   UNL     1       6.615   1.329   0.665  1.00  0.00     0.001 A 
HETATM    7  C   UNL     1       7.304   1.123  -0.523  1.00  0.00     0.002 A 
HETATM    8  C   UNL     1       6.609   0.999  -1.729  1.00  0.00     0.024 A 
BRANCH   4   9
HETATM    9  C   UNL     1       3.004   1.404  -0.512  1.00  0.00     0.275 C 
BRANCH   9  10
HETATM   10  N   UNL     1       2.238   0.384  -1.344  1.00  0.00    -0.067 N 
HETATM   11  C   UNL     1       2.563  -1.020  -0.887  1.00  0.00     0.270 C 
HETATM   12  H   UNL     1       2.675   0.491  -2.279  1.00  0.00     0.280 HD
BRANCH  10  13
HETATM   13  C   UNL     1       0.730   0.642  -1.420  1.00  0.00     0.188 C 
HETATM   14  C   UNL     1       0.390   2.061  -1.907  1.00  0.00     0.033 C 
HETATM   15  C   UNL     1       0.773   2.300  -3.365  1.00  0.00     0.002 C 
HETATM   16  C   UNL     1       0.144   1.259  -4.288  1.00  0.00     0.000 C 
HETATM   17  C   UNL     1       0.420  -0.169  -3.824  1.00  0.00     0.002 C 
HETATM   18  C   UNL     1       0.036  -0.365  -2.358  1.00  0.00     0.033 C 
ENDBRANCH  10  13
ENDBRANCH   9  10
ENDBRANCH   4   9
ENDBRANCH   1   3
BRANCH   1  19
HETATM   19  C   UNL     1       5.090   0.309  -4.125  1.00  0.00     0.197 C 
BRANCH  19  20
HETATM   20  C   UNL     1       4.099   0.299  -5.291  1.00  0.00     0.249 C 
HETATM   21  N   UNL     1       4.166  -0.814  -6.097  1.00  0.00    -0.266 N 
HETATM   22  H   UNL     1       4.967  -1.450  -6.119  1.00  0.00     0.190 HD
HETATM   23  O   UNL     1       3.280   1.204  -5.467  1.00  0.00    -0.270 OA
BRANCH  21  24
HETATM   24  N   UNL     1       3.348  -0.857  -7.236  1.00  0.00    -0.263 N 
HETATM   25  C   UNL     1       3.760  -1.674  -8.273  1.00  0.00     0.270 C 
HETATM   26  O   UNL     1       4.748  -2.397  -8.170  1.00  0.00    -0.266 OA
HETATM   27  H   UNL     1       2.729  -0.061  -7.385  1.00  0.00     0.190 HD
BRANCH  25  28
HETATM   28  C   UNL     1       2.969  -1.605  -9.531  1.00  0.00     0.033 A 
HETATM   29  C   UNL     1       3.588  -1.984 -10.728  1.00  0.00     0.017 A 
HETATM   30  C   UNL     1       2.879  -1.935 -11.930  1.00  0.00     0.001 A 
HETATM   31  C   UNL     1       1.549  -1.518 -11.939  1.00  0.00     0.000 A 
HETATM   32  C   UNL     1       0.922  -1.155 -10.748  1.00  0.00     0.001 A 
HETATM   33  C   UNL     1       1.626  -1.200  -9.543  1.00  0.00     0.017 A 
ENDBRANCH  25  28
ENDBRANCH  21  24
ENDBRANCH  19  20
ENDBRANCH   1  19
TORSDOF 8
