REMARK  5 active torsions:
REMARK  status: ('A' for Active; 'I' for Inactive)
REMARK    1  A    between atoms: C_3  and  N_4 
REMARK       I    between atoms: N_4  and  C_5 
REMARK       I    between atoms: C_5  and  N_6 
REMARK    2  A    between atoms: N_6  and  C_7 
REMARK    3  A    between atoms: C_7  and  C_8 
REMARK    4  A    between atoms: C_8  and  C_9 
REMARK    5  A    between atoms: N_15  and  C_16 
ROOT
HETATM    1  C   UNL     1       8.360  -2.339  -2.265  1.00  0.00     0.054 C 
HETATM    2  C   UNL     1       7.600  -1.069  -2.186  1.00  0.00     0.003 A 
HETATM    3  C   UNL     1       6.850  -0.545  -1.107  1.00  0.00     0.159 A 
HETATM    4  N   UNL     1       6.335   0.650  -1.403  1.00  0.00    -0.149 NA
HETATM    5  N   UNL     1       6.700   0.904  -2.691  1.00  0.00    -0.241 N 
HETATM    6  C   UNL     1       7.513  -0.099  -3.162  1.00  0.00     0.129 A 
ENDROOT
BRANCH   3   7
HETATM    7  N   UNL     1       6.676  -1.185   0.101  1.00  0.00    -0.291 N 
HETATM    8  C   UNL     1       6.002  -0.766   1.208  1.00  0.00     0.322 C 
HETATM    9  N   UNL     1       5.496   0.496   1.187  1.00  0.00    -0.339 N 
HETATM   10  O   UNL     1       5.899  -1.520   2.173  1.00  0.00    -0.247 OA
HETATM   11  H   UNL     1       5.498   0.934   0.268  1.00  0.00     0.164 HD
HETATM   12  H   UNL     1       7.071  -2.107   0.203  1.00  0.00     0.172 HD
BRANCH   9  13
HETATM   13  C   UNL     1       4.628   1.017   2.230  1.00  0.00     0.082 C 
HETATM   14  C   UNL     1       4.742   2.537   2.300  1.00  0.00     0.032 C 
BRANCH  13  15
HETATM   15  C   UNL     1       3.173   0.535   2.059  1.00  0.00     0.029 C 
BRANCH  15  16
HETATM   16  C   UNL     1       2.483   1.094   0.843  1.00  0.00    -0.013 A 
HETATM   17  C   UNL     1       0.995   0.910   0.688  1.00  0.00     0.005 A 
HETATM   18  C   UNL     1       1.555   2.277   0.963  1.00  0.00     0.005 A 
ENDBRANCH  15  16
ENDBRANCH  13  15
ENDBRANCH   9  13
ENDBRANCH   3   7
BRANCH   5  19
HETATM   19  C   UNL     1       6.274   2.114  -3.321  1.00  0.00     0.079 A 
HETATM   20  C   UNL     1       6.304   2.354  -4.704  1.00  0.00     0.062 A 
HETATM   21 CL   UNL     1       6.683   1.186  -5.922  1.00  0.00    -0.082 Cl
HETATM   22  C   UNL     1       5.903   3.605  -5.205  1.00  0.00     0.026 A 
HETATM   23  C   UNL     1       5.455   4.613  -4.352  1.00  0.00     0.002 A 
HETATM   24  C   UNL     1       5.390   4.376  -2.987  1.00  0.00     0.002 A 
HETATM   25  C   UNL     1       5.790   3.139  -2.475  1.00  0.00     0.033 A 
ENDBRANCH   5  19
TORSDOF 5
