REMARK  7 active torsions:
REMARK  status: ('A' for Active; 'I' for Inactive)
REMARK    1  A    between atoms: C_3  and  C_4 
REMARK       I    between atoms: C_4  and  N_5 
REMARK    2  A    between atoms: N_5  and  C_6 
REMARK    3  A    between atoms: C_6  and  C_7 
REMARK    4  A    between atoms: C_7  and  O_8 
REMARK    5  A    between atoms: C_7  and  C_9 
REMARK    6  A    between atoms: C_18  and  N_19 
REMARK       I    between atoms: N_19  and  C_20 
REMARK    7  A    between atoms: C_20  and  C_21 
ROOT
HETATM    1  C   UNL     1       1.221  -0.099  -0.924  1.00  0.00     0.050 C 
HETATM    2  C   UNL     1       2.631   0.065  -0.454  1.00  0.00    -0.037 A 
HETATM    3  C   UNL     1       3.204   1.260  -0.029  1.00  0.00     0.080 A 
HETATM    4  S   UNL     1       4.845   1.037   0.416  1.00  0.00    -0.066 SA
HETATM    5  C   UNL     1       4.796  -0.625   0.115  1.00  0.00     0.078 A 
HETATM    6  C   UNL     1       3.566  -1.020  -0.358  1.00  0.00     0.045 A 
ENDROOT
BRANCH   3   7
HETATM    7  C   UNL     1       2.562   2.567   0.084  1.00  0.00     0.259 C 
HETATM    8  N   UNL     1       3.339   3.595   0.579  1.00  0.00    -0.354 N 
HETATM    9  H   UNL     1       4.274   3.346   0.883  1.00  0.00     0.162 HD
HETATM   10  O   UNL     1       1.387   2.772  -0.216  1.00  0.00    -0.267 OA
BRANCH   8  11
HETATM   11  C   UNL     1       2.773   4.853   1.055  1.00  0.00     0.159 C 
BRANCH  11  12
HETATM   12  C   UNL     1       2.223   5.782  -0.054  1.00  0.00     0.169 C 
BRANCH  12  13
HETATM   13  O   UNL     1       0.957   5.344  -0.548  1.00  0.00    -0.389 OA
HETATM   14  H   UNL     1       0.982   4.364  -0.583  1.00  0.00     0.210 HD
ENDBRANCH  12  13
BRANCH  12  15
HETATM   15  C   UNL     1       2.036   7.188   0.489  1.00  0.00    -0.028 A 
HETATM   16  C   UNL     1       2.992   8.183   0.230  1.00  0.00     0.013 A 
HETATM   17  C   UNL     1       2.836   9.467   0.758  1.00  0.00     0.043 A 
HETATM   18  C   UNL     1       1.728   9.758   1.546  1.00  0.00     0.116 A 
HETATM   19  F   UNL     1       1.583  10.990   2.053  1.00  0.00    -0.206 F 
HETATM   20  C   UNL     1       0.770   8.790   1.817  1.00  0.00     0.043 A 
HETATM   21  C   UNL     1       0.924   7.507   1.291  1.00  0.00     0.013 A 
ENDBRANCH  12  15
ENDBRANCH  11  12
ENDBRANCH   8  11
ENDBRANCH   3   7
BRANCH   5  22
HETATM   22  N   UNL     1       5.864  -1.466   0.366  1.00  0.00    -0.317 N 
HETATM   23  C   UNL     1       7.136  -1.104   0.765  1.00  0.00     0.258 C 
HETATM   24  O   UNL     1       7.561   0.042   0.878  1.00  0.00    -0.267 OA
HETATM   25  H   UNL     1       5.678  -2.451   0.222  1.00  0.00     0.169 HD
BRANCH  23  26
HETATM   26  C   UNL     1       8.062  -2.226   1.137  1.00  0.00     0.054 A 
HETATM   27  C   UNL     1       7.987  -3.549   0.675  1.00  0.00     0.049 A 
HETATM   28 CL   UNL     1       6.834  -4.104  -0.491  1.00  0.00    -0.083 Cl
HETATM   29  C   UNL     1       8.897  -4.511   1.139  1.00  0.00     0.025 A 
HETATM   30  C   UNL     1       9.894  -4.166   2.051  1.00  0.00     0.002 A 
HETATM   31  C   UNL     1       9.992  -2.855   2.501  1.00  0.00     0.001 A 
HETATM   32  C   UNL     1       9.086  -1.895   2.047  1.00  0.00     0.019 A 
ENDBRANCH  23  26
ENDBRANCH   5  22
TORSDOF 7
