REMARK  7 active torsions:
REMARK  status: ('A' for Active; 'I' for Inactive)
REMARK    1  A    between atoms: C_4  and  C_5 
REMARK    2  A    between atoms: C_5  and  C_6 
REMARK    3  A    between atoms: C_6  and  C_7 
REMARK    4  A    between atoms: C_7  and  N_8 
REMARK    5  A    between atoms: C_12  and  O_13 
REMARK    6  A    between atoms: C_12  and  C_14 
REMARK    7  A    between atoms: C_19  and  C_20 
REMARK       I    between atoms: C_20  and  N_21 
ROOT
HETATM    1  C   UNL     1       4.842   7.952   1.934  1.00  0.00    -0.023 A 
HETATM    2  C   UNL     1       6.171   8.330   1.629  1.00  0.00     0.024 A 
HETATM    3  C   UNL     1       6.449   9.129   0.499  1.00  0.00     0.001 A 
HETATM    4  C   UNL     1       5.394   9.551  -0.292  1.00  0.00     0.086 A 
HETATM    5  O   UNL     1       5.847  10.313  -1.325  1.00  0.00    -0.304 OA
HETATM    6  C   UNL     1       7.209  10.387  -1.217  1.00  0.00     0.144 A 
HETATM    7  C   UNL     1       7.611   9.687  -0.089  1.00  0.00     0.057 A 
HETATM    8  C   UNL     1       4.066   9.245  -0.028  1.00  0.00     0.039 A 
HETATM    9  C   UNL     1       3.814   8.452   1.105  1.00  0.00     0.013 A 
ENDROOT
BRANCH   1  10
HETATM   10  C   UNL     1       4.519   7.117   3.184  1.00  0.00     0.088 C 
HETATM   11  C   UNL     1       5.643   6.172   3.652  1.00  0.00     0.071 C 
HETATM   12  C   UNL     1       5.867   5.019   2.688  1.00  0.00     0.238 C 
HETATM   13  N   UNL     1       4.592   4.223   2.520  1.00  0.00    -0.071 N 
HETATM   14  H   UNL     1       4.354   3.806   3.432  1.00  0.00     0.279 HD
HETATM   15  C   UNL     1       3.423   5.096   2.107  1.00  0.00     0.238 C 
HETATM   16  C   UNL     1       3.251   6.244   3.084  1.00  0.00     0.071 C 
BRANCH  13  17
HETATM   17  C   UNL     1       4.741   3.071   1.529  1.00  0.00     0.235 C 
BRANCH  17  18
HETATM   18  C   UNL     1       5.701   2.000   2.050  1.00  0.00     0.038 C 
BRANCH  18  19
HETATM   19  C   UNL     1       5.741   0.768   1.122  1.00  0.00     0.040 C 
HETATM   20  C   UNL     1       6.634  -0.323   1.717  1.00  0.00     0.017 C 
BRANCH  19  21
HETATM   21  C   UNL     1       6.188   1.157  -0.250  1.00  0.00     0.057 A 
HETATM   22  O   UNL     1       5.197   1.573  -1.092  1.00  0.00    -0.319 OA
HETATM   23  C   UNL     1       5.782   1.879  -2.283  1.00  0.00     0.049 A 
HETATM   24  C   UNL     1       4.878   2.311  -3.368  1.00  0.00     0.076 C 
HETATM   25  C   UNL     1       7.145   1.699  -2.200  1.00  0.00     0.035 A 
HETATM   26  C   UNL     1       7.408   1.236  -0.888  1.00  0.00     0.035 A 
ENDBRANCH  19  21
ENDBRANCH  18  19
ENDBRANCH  17  18
ENDBRANCH  13  17
BRANCH  10  27
HETATM   27  O   UNL     1       4.290   8.030   4.261  1.00  0.00    -0.385 OA
HETATM   28  H   UNL     1       4.460   8.944   3.967  1.00  0.00     0.211 HD
ENDBRANCH  10  27
ENDBRANCH   1  10
BRANCH   6  29
HETATM   29  C   UNL     1       8.017  11.168  -2.140  1.00  0.00     0.277 C 
HETATM   30  N   UNL     1       7.572  11.452  -3.443  1.00  0.00    -0.345 N 
HETATM   31  C   UNL     1       8.473  12.224  -4.307  1.00  0.00     0.154 C 
HETATM   32  C   UNL     1       6.246  11.190  -3.984  1.00  0.00     0.128 C 
HETATM   33  C   UNL     1       8.246  13.737  -4.216  1.00  0.00     0.254 C 
HETATM   34  N   UNL     1       6.804  14.114  -4.575  1.00  0.00    -0.073 N 
HETATM   35  H   UNL     1       6.557  13.638  -5.452  1.00  0.00     0.279 HD
HETATM   36  C   UNL     1       6.714  15.592  -4.878  1.00  0.00     0.269 C 
HETATM   37  C   UNL     1       5.811  13.714  -3.504  1.00  0.00     0.236 C 
HETATM   38  C   UNL     1       5.247  12.311  -3.707  1.00  0.00     0.048 C 
HETATM   39  O   UNL     1       9.119  11.598  -1.790  1.00  0.00    -0.265 OA
ENDBRANCH   6  29
TORSDOF 7
