REMARK  7 active torsions:
REMARK  status: ('A' for Active; 'I' for Inactive)
REMARK    1  A    between atoms: C_2  and  C_3 
REMARK    2  A    between atoms: C_4  and  N_5 
REMARK    3  A    between atoms: N_5  and  C_6 
REMARK    4  A    between atoms: C_8  and  N_9 
REMARK    5  A    between atoms: C_11  and  C_12 
REMARK    6  A    between atoms: C_12  and  N_13 
REMARK    7  A    between atoms: C_17  and  C_18 
ROOT
HETATM    1  C   UNL     1       4.882  -1.897  -6.863  1.00  0.00     0.218 C 
ENDROOT
BRANCH   1   2
HETATM    2  C   UNL     1       4.499  -0.672  -6.051  1.00  0.00     0.166 A 
HETATM    3  N   UNL     1       4.278  -0.819  -4.742  1.00  0.00    -0.200 NA
HETATM    4  C   UNL     1       3.985   0.294  -4.094  1.00  0.00     0.219 A 
HETATM    5  N   UNL     1       3.954   1.498  -4.633  1.00  0.00    -0.031 NA
HETATM    6  C   UNL     1       4.191   1.563  -5.939  1.00  0.00     0.731 A 
HETATM    7  N   UNL     1       4.457   0.498  -6.693  1.00  0.00    -0.045 NA
BRANCH   4   8
HETATM    8  N   UNL     1       3.740   0.195  -2.740  1.00  0.00    -0.270 NA
HETATM    9  H   UNL     1       3.897   1.088  -2.294  1.00  0.00     0.127 HD
HETATM   10  H   UNL     1       4.215  -0.607  -2.351  1.00  0.00     0.127 HD
ENDBRANCH   4   8
BRANCH   6  11
HETATM   11  N   UNL     1       4.138   2.781  -6.615  1.00  0.00    -0.188 N 
HETATM   12  H   UNL     1       4.260   2.633  -7.605  1.00  0.00     0.184 HD
BRANCH  11  13
HETATM   13  C   UNL     1       4.256   4.109  -6.172  1.00  0.00     0.055 A 
HETATM   14  C   UNL     1       3.779   5.173  -6.973  1.00  0.00    -0.031 A 
HETATM   15  C   UNL     1       3.894   6.500  -6.513  1.00  0.00     0.009 A 
HETATM   16  C   UNL     1       4.446   6.782  -5.267  1.00  0.00     0.001 A 
HETATM   17  C   UNL     1       4.885   5.741  -4.460  1.00  0.00     0.002 A 
HETATM   18  C   UNL     1       4.780   4.421  -4.907  1.00  0.00     0.030 A 
BRANCH  14  19
HETATM   19  C   UNL     1       3.136   4.950  -8.325  1.00  0.00     0.036 C 
HETATM   20  C   UNL     1       4.146   5.045  -9.458  1.00  0.00     0.010 C 
ENDBRANCH  14  19
ENDBRANCH  11  13
ENDBRANCH   6  11
ENDBRANCH   1   2
BRANCH   1  21
HETATM   21  N   UNL     1       4.668  -3.141  -6.156  1.00  0.00    -0.260 N 
HETATM   22  C   UNL     1       3.485  -3.800  -6.123  1.00  0.00     0.326 A 
HETATM   23  O   UNL     1       2.475  -3.538  -6.753  1.00  0.00    -0.247 OA
HETATM   24  N   UNL     1       3.590  -4.845  -5.241  1.00  0.00    -0.321 N 
HETATM   25  C   UNL     1       4.860  -4.871  -4.544  1.00  0.00     0.140 A 
HETATM   26  H   UNL     1       2.806  -5.458  -5.069  1.00  0.00     0.165 HD
HETATM   27  C   UNL     1       4.675  -4.497  -3.069  1.00  0.00     0.054 C 
HETATM   28  C   UNL     1       5.542  -3.674  -5.251  1.00  0.00     0.261 A 
HETATM   29  O   UNL     1       6.664  -3.242  -5.011  1.00  0.00    -0.270 OA
BRANCH  25  30
HETATM   30  C   UNL     1       5.531  -6.228  -4.716  1.00  0.00    -0.020 A 
HETATM   31  C   UNL     1       4.883  -7.389  -4.243  1.00  0.00     0.022 A 
HETATM   32  C   UNL     1       5.458  -8.668  -4.366  1.00  0.00    -0.025 A 
HETATM   33  C   UNL     1       6.719  -8.799  -4.982  1.00  0.00    -0.026 A 
HETATM   34  C   UNL     1       4.805  -9.816  -3.888  1.00  0.00     0.012 A 
HETATM   35  C   UNL     1       7.369  -7.651  -5.454  1.00  0.00     0.013 A 
HETATM   36  C   UNL     1       7.297 -10.074  -5.105  1.00  0.00     0.012 A 
HETATM   37  C   UNL     1       6.785  -6.386  -5.323  1.00  0.00     0.011 A 
HETATM   38  C   UNL     1       6.636 -11.205  -4.625  1.00  0.00     0.001 A 
HETATM   39  C   UNL     1       5.391 -11.077  -4.017  1.00  0.00     0.001 A 
ENDBRANCH  25  30
ENDBRANCH   1  21
TORSDOF 7
