REMARK  8 active torsions:
REMARK  status: ('A' for Active; 'I' for Inactive)
REMARK    1  A    between atoms: N_4  and  C_6 
REMARK    2  A    between atoms: C_6  and  C_7 
REMARK       I    between atoms: C_7  and  N_8 
REMARK    3  A    between atoms: N_8  and  C_9 
REMARK    4  A    between atoms: C_15  and  C_16 
REMARK    5  A    between atoms: C_21  and  C_22 
REMARK       I    between atoms: C_22  and  N_23 
REMARK    6  A    between atoms: N_23  and  C_24 
REMARK    7  A    between atoms: C_25  and  O_26 
REMARK    8  A    between atoms: C_29  and  O_30 
ROOT
HETATM    1  C   UNL     1       0.198  -0.836   3.801  1.00  0.00     0.093 C 
HETATM    2  S   UNL     1       0.506  -2.459   4.181  1.00  0.00    -0.075 SA
HETATM    3  C   UNL     1       0.437  -2.915   2.552  1.00  0.00    -0.008 C 
HETATM    4  C   UNL     1       0.065  -1.874   1.719  1.00  0.00    -0.026 C 
HETATM    5  C   UNL     1      -0.185  -2.128   0.259  1.00  0.00     0.041 C 
HETATM    6  C   UNL     1      -0.209  -3.620  -0.090  1.00  0.00     0.010 C 
HETATM    7  C   UNL     1       0.893  -4.462   0.597  1.00  0.00    -0.002 C 
HETATM    8  C   UNL     1       0.729  -4.329   2.135  1.00  0.00     0.052 C 
HETATM    9  C   UNL     1       0.050  -0.606   2.435  1.00  0.00     0.073 C 
ENDROOT
BRANCH   9  10
HETATM   10  C   UNL     1      -0.039   0.778   1.927  1.00  0.00     0.259 C 
HETATM   11  N   UNL     1       0.176   0.957   0.588  1.00  0.00    -0.320 N 
HETATM   12  H   UNL     1       0.906   1.631   0.372  1.00  0.00     0.169 HD
HETATM   13  O   UNL     1      -0.065   1.738   2.702  1.00  0.00    -0.267 OA
BRANCH  11  14
HETATM   14  C   UNL     1      -0.837   1.020  -0.402  1.00  0.00     0.068 A 
HETATM   15  C   UNL     1      -0.433   1.399  -1.699  1.00  0.00     0.097 A 
HETATM   16  C   UNL     1      -1.359   1.402  -2.746  1.00  0.00     0.075 A 
HETATM   17  C   UNL     1      -2.682   1.024  -2.508  1.00  0.00     0.070 A 
HETATM   18  C   UNL     1      -3.082   0.687  -1.211  1.00  0.00     0.039 A 
HETATM   19  C   UNL     1      -2.168   0.686  -0.155  1.00  0.00     0.035 A 
BRANCH  15  20
HETATM   20  O   UNL     1       0.894   1.744  -1.821  1.00  0.00    -0.354 OA
HETATM   21  C   UNL     1       1.425   1.806  -3.140  1.00  0.00     0.210 C 
ENDBRANCH  15  20
BRANCH  17  22
HETATM   22  O   UNL     1      -3.674   0.953  -3.447  1.00  0.00    -0.356 OA
HETATM   23  C   UNL     1      -3.281   1.053  -4.811  1.00  0.00     0.210 C 
ENDBRANCH  17  22
ENDBRANCH  11  14
ENDBRANCH   9  10
BRANCH   1  24
HETATM   24  N   UNL     1       0.264   0.125   4.803  1.00  0.00    -0.319 N 
HETATM   25  C   UNL     1       0.029  -0.110   6.139  1.00  0.00     0.248 C 
HETATM   26  O   UNL     1      -0.524  -1.087   6.644  1.00  0.00    -0.271 OA
HETATM   27  H   UNL     1       0.264   1.086   4.451  1.00  0.00     0.169 HD
BRANCH  25  28
HETATM   28  C   UNL     1       0.514   1.015   7.059  1.00  0.00     0.337 C 
BRANCH  28  29
HETATM   29  N   UNL     1       0.383   0.616   8.537  1.00  0.00    -0.062 N 
HETATM   30  C   UNL     1       1.388  -0.440   8.949  1.00  0.00     0.239 C 
HETATM   31  C   UNL     1       1.067  -0.948  10.359  1.00  0.00     0.007 C 
HETATM   32  C   UNL     1      -0.212  -1.793  10.392  1.00  0.00     0.011 C 
HETATM   33  C   UNL     1       0.999   0.221  11.350  1.00  0.00     0.007 C 
HETATM   34  C   UNL     1       0.070   1.338  10.881  1.00  0.00     0.028 C 
HETATM   35  C   UNL     1       0.386   1.796   9.464  1.00  0.00     0.235 C 
HETATM   36  H   UNL     1      -0.540   0.154   8.574  1.00  0.00     0.280 HD
ENDBRANCH  28  29
ENDBRANCH  25  28
ENDBRANCH   1  24
BRANCH   7  37
HETATM   37  C   UNL     1       2.361  -4.275   0.043  1.00  0.00    -0.047 C 
HETATM   38  C   UNL     1       3.058  -2.970   0.467  1.00  0.00     0.015 C 
HETATM   39  C   UNL     1       3.245  -5.444   0.542  1.00  0.00     0.015 C 
HETATM   40  C   UNL     1       2.362  -4.337  -1.501  1.00  0.00     0.015 C 
ENDBRANCH   7  37
TORSDOF 8
