REMARK  3 active torsions:
REMARK  status: ('A' for Active; 'I' for Inactive)
REMARK    1  A    between atoms: C_10  and  C_11 
REMARK    2  A    between atoms: C_11  and  C_12 
REMARK    3  A    between atoms: C_13  and  O_14 
ROOT
HETATM    1  C   UNL     1       3.850  -4.897   0.074  1.00  0.00     0.196 C 
HETATM    2  O   UNL     1       4.692  -5.614   0.611  1.00  0.00    -0.286 OA
ENDROOT
BRANCH   1   3
HETATM    3  C   UNL     1       4.084  -3.440   0.012  1.00  0.00     0.034 A 
HETATM    4  C   UNL     1       5.394  -2.986  -0.143  1.00  0.00     0.134 A 
HETATM    5  N   UNL     1       5.777  -1.685  -0.215  1.00  0.00    -0.240 NA
HETATM    6  C   UNL     1       4.740  -0.835  -0.093  1.00  0.00     0.155 A 
HETATM    7  N   UNL     1       4.804   0.528  -0.115  1.00  0.00    -0.260 N 
HETATM    8  C   UNL     1       3.402  -1.149   0.089  1.00  0.00     0.038 A 
HETATM    9  N   UNL     1       3.607   1.131   0.031  1.00  0.00    -0.177 NA
HETATM   10  H   UNL     1       5.635   1.095  -0.226  1.00  0.00     0.191 HD
HETATM   11  C   UNL     1       2.748   0.109   0.163  1.00  0.00     0.065 A 
HETATM   12  C   UNL     1       1.299   0.369   0.353  1.00  0.00     0.073 C 
HETATM   13  C   UNL     1       3.049  -2.507   0.155  1.00  0.00     0.034 A 
ENDBRANCH   1   3
BRANCH   1  14
HETATM   14  C   UNL     1       2.623  -5.539  -0.462  1.00  0.00     0.051 A 
HETATM   15  C   UNL     1       2.150  -6.725   0.127  1.00  0.00     0.101 A 
HETATM   16  C   UNL     1       0.983  -7.328  -0.359  1.00  0.00     0.069 A 
HETATM   17 CL   UNL     1       0.351  -8.771   0.349  1.00  0.00    -0.081 Cl
HETATM   18  C   UNL     1       0.303  -6.773  -1.443  1.00  0.00     0.050 A 
HETATM   19  C   UNL     1       0.797  -5.620  -2.046  1.00  0.00     0.036 A 
HETATM   20 CL   UNL     1      -0.029  -4.942  -3.394  1.00  0.00    -0.084 Cl
HETATM   21  C   UNL     1       1.955  -5.003  -1.570  1.00  0.00     0.042 A 
BRANCH  15  22
HETATM   22  O   UNL     1       2.805  -7.313   1.180  1.00  0.00    -0.358 OA
HETATM   23  H   UNL     1       3.706  -6.926   1.248  1.00  0.00     0.218 HD
ENDBRANCH  15  22
ENDBRANCH   1  14
TORSDOF 3
