REMARK  8 active torsions:
REMARK  status: ('A' for Active; 'I' for Inactive)
REMARK    1  A    between atoms: O_1  and  C_2 
REMARK    2  A    between atoms: C_2  and  CA_3 
REMARK    3  A    between atoms: CA_3  and  N_4 
REMARK    4  A    between atoms: CA_3  and  C_23 
REMARK       I    between atoms: N_4  and  C_5 
REMARK    5  A    between atoms: C_5  and  C_7 
REMARK    6  A    between atoms: C_10  and  C_17 
REMARK    7  A    between atoms: C_11  and  O_12 
REMARK    8  A    between atoms: O_12  and  C_13 
ROOT
HETATM    1  C   UNL     1       0.717   3.830  -1.508  1.00  0.00     0.034 A 
HETATM    2  C   UNL     1      -0.432   4.231  -2.195  1.00  0.00     0.018 A 
HETATM    3  C   UNL     1      -0.781   5.584  -2.259  1.00  0.00     0.016 A 
HETATM    4  C   UNL     1       0.001   6.562  -1.624  1.00  0.00     0.011 A 
HETATM    5  C   UNL     1       1.133   6.146  -0.899  1.00  0.00     0.087 A 
HETATM    6  C   UNL     1       1.496   4.792  -0.854  1.00  0.00     0.054 A 
ENDROOT
BRANCH   1   7
HETATM    7  C   UNL     1       1.061   2.379  -1.482  1.00  0.00     0.252 C 
HETATM    8  N   UNL     1       2.384   2.075  -1.245  1.00  0.00    -0.346 N 
HETATM    9  H   UNL     1       3.067   2.791  -1.447  1.00  0.00     0.163 HD
HETATM   10  O   UNL     1       0.191   1.545  -1.703  1.00  0.00    -0.268 OA
BRANCH   8  11
HETATM   11  CA  UNL     1       2.908   0.710  -1.307  1.00  0.00     0.141 C 
BRANCH  11  12
HETATM   12  C   UNL     1       2.795   0.118  -2.730  1.00  0.00     0.194 C 
BRANCH  12  13
HETATM   13  O   UNL     1       3.565   0.907  -3.647  1.00  0.00    -0.399 OA
HETATM   14  H   UNL     1       3.366   0.566  -4.536  1.00  0.00     0.209 HD
ENDBRANCH  12  13
ENDBRANCH  11  12
BRANCH  11  15
HETATM   15  C   UNL     1       2.382  -0.149  -0.168  1.00  0.00    -0.033 A 
HETATM   16  C   UNL     1       1.462  -1.190  -0.360  1.00  0.00     0.009 A 
HETATM   17  C   UNL     1       1.017  -1.961   0.718  1.00  0.00     0.001 A 
HETATM   18  C   UNL     1       1.473  -1.694   2.006  1.00  0.00     0.000 A 
HETATM   19  C   UNL     1       2.371  -0.652   2.220  1.00  0.00     0.001 A 
HETATM   20  C   UNL     1       2.820   0.115   1.143  1.00  0.00     0.009 A 
ENDBRANCH  11  15
ENDBRANCH   8  11
ENDBRANCH   1   7
BRANCH   5  21
HETATM   21  O   UNL     1       1.924   7.087  -0.287  1.00  0.00    -0.289 OA
BRANCH  21  22
HETATM   22  C   UNL     1       2.032   6.875   1.115  1.00  0.00     0.505 C 
HETATM   23  F   UNL     1       3.047   6.003   1.343  1.00  0.00    -0.184 F 
HETATM   24  F   UNL     1       2.405   8.053   1.675  1.00  0.00    -0.184 F 
ENDBRANCH  21  22
ENDBRANCH   5  21
BRANCH   4  25
HETATM   25  C   UNL     1      -0.377   7.965  -1.728  1.00  0.00     0.013 A 
HETATM   26  C   UNL     1       0.409   9.138  -1.822  1.00  0.00     0.152 A 
HETATM   27  N   UNL     1      -0.329  10.249  -1.906  1.00  0.00    -0.187 NA
HETATM   28  N   UNL     1      -1.590   9.794  -1.868  1.00  0.00    -0.289 N 
HETATM   29  H   UNL     1      -2.346  10.469  -1.919  1.00  0.00     0.188 HD
HETATM   30  C   UNL     1      -1.674   8.435  -1.759  1.00  0.00     0.123 A 
ENDBRANCH   4  25
TORSDOF 8
