REMARK  6 active torsions:
REMARK  status: ('A' for Active; 'I' for Inactive)
REMARK    1  A    between atoms: C_2  and  O_3 
REMARK    2  A    between atoms: C_2  and  C_4 
REMARK    3  A    between atoms: C_6  and  N_7 
REMARK       I    between atoms: N_7  and  C_8 
REMARK    4  A    between atoms: C_8  and  C_9 
REMARK    5  A    between atoms: C_12  and  C_13 
REMARK    6  A    between atoms: C_18  and  C_19 
ROOT
HETATM    1  C   UNL     1       3.946   0.937  -3.982  1.00  0.00     0.096 C 
HETATM    2  C   UNL     1       2.841   1.599  -3.478  1.00  0.00     0.138 C 
HETATM    3  N   UNL     1       3.333   2.644  -2.730  1.00  0.00    -0.240 N 
HETATM    4  C   UNL     1       2.509   3.563  -1.965  1.00  0.00     0.221 C 
HETATM    5  C   UNL     1       1.040   3.480  -2.420  1.00  0.00     0.067 C 
HETATM    6  C   UNL     1       0.611   2.017  -2.596  1.00  0.00     0.125 C 
HETATM    7  N   UNL     1       1.500   1.378  -3.582  1.00  0.00    -0.365 N 
HETATM    8  N   UNL     1       4.666   2.609  -2.583  1.00  0.00    -0.181 NA
HETATM    9  C   UNL     1       5.039   1.594  -3.368  1.00  0.00     0.160 C 
HETATM   10  H   UNL     1       1.194   0.422  -3.779  1.00  0.00     0.162 HD
ENDROOT
BRANCH   1  11
HETATM   11  C   UNL     1       4.006  -0.205  -4.879  1.00  0.00     0.261 C 
HETATM   12  N   UNL     1       2.877  -0.339  -5.664  1.00  0.00    -0.323 N 
HETATM   13  H   UNL     1       2.226   0.437  -5.623  1.00  0.00     0.169 HD
HETATM   14  O   UNL     1       4.999  -0.922  -4.909  1.00  0.00    -0.267 OA
BRANCH  12  15
HETATM   15  C   UNL     1       2.553  -1.387  -6.547  1.00  0.00     0.035 A 
HETATM   16  C   UNL     1       3.310  -2.554  -6.677  1.00  0.00     0.039 A 
HETATM   17  C   UNL     1       2.915  -3.583  -7.553  1.00  0.00    -0.028 A 
HETATM   18  C   UNL     1       1.740  -3.420  -8.299  1.00  0.00     0.010 A 
HETATM   19  C   UNL     1       0.982  -2.257  -8.179  1.00  0.00     0.003 A 
HETATM   20  C   UNL     1       1.385  -1.247  -7.304  1.00  0.00     0.029 A 
BRANCH  17  21
HETATM   21  C   UNL     1       3.741  -4.849  -7.632  1.00  0.00     0.147 C 
HETATM   22  C   UNL     1       3.368  -5.825  -6.522  1.00  0.00     0.044 C 
BRANCH  21  23
HETATM   23  O   UNL     1       3.555  -5.491  -8.893  1.00  0.00    -0.391 OA
HETATM   24  H   UNL     1       4.183  -6.232  -8.926  1.00  0.00     0.210 HD
ENDBRANCH  21  23
ENDBRANCH  17  21
ENDBRANCH  12  15
ENDBRANCH   1  11
BRANCH   4  25
HETATM   25  C   UNL     1       2.996   4.991  -2.085  1.00  0.00     0.409 C 
HETATM   26  F   UNL     1       3.020   5.420  -3.367  1.00  0.00    -0.169 F 
HETATM   27  F   UNL     1       2.145   5.817  -1.417  1.00  0.00    -0.169 F 
HETATM   28  F   UNL     1       4.214   5.196  -1.545  1.00  0.00    -0.169 F 
ENDBRANCH   4  25
BRANCH   6  29
HETATM   29  C   UNL     1      -0.840   1.941  -3.003  1.00  0.00     0.005 A 
HETATM   30  S   UNL     1      -2.034   1.495  -1.855  1.00  0.00    -0.104 SA
HETATM   31  C   UNL     1      -3.289   1.638  -3.006  1.00  0.00     0.050 A 
HETATM   32  C   UNL     1      -2.816   2.018  -4.242  1.00  0.00     0.008 A 
HETATM   33  C   UNL     1      -1.403   2.192  -4.241  1.00  0.00     0.017 A 
ENDBRANCH   6  29
TORSDOF 6
