REMARK  4 active torsions:
REMARK  status: ('A' for Active; 'I' for Inactive)
REMARK    1  A    between atoms: C_5  and  N_6 
REMARK       I    between atoms: N_6  and  C_7 
REMARK    2  A    between atoms: C_7  and  C_8 
REMARK    3  A    between atoms: N_10  and  C_11 
REMARK    4  A    between atoms: C_12  and  O_13 
ROOT
HETATM    1  C   UNL     1       6.716  -2.187  -0.306  1.00  0.00     0.086 A 
HETATM    2  C   UNL     1       5.302  -2.373   0.110  1.00  0.00     0.186 A 
HETATM    3  N   UNL     1       4.520  -1.363   0.352  1.00  0.00    -0.221 NA
HETATM    4  O   UNL     1       4.830  -3.675   0.227  1.00  0.00    -0.290 OA
HETATM    5  C   UNL     1       5.635  -4.783  -0.082  1.00  0.00     0.088 A 
HETATM    6  C   UNL     1       6.945  -4.606  -0.509  1.00  0.00    -0.001 A 
HETATM    7  C   UNL     1       5.071  -6.048   0.055  1.00  0.00     0.038 A 
HETATM    8  C   UNL     1       5.843  -7.168  -0.246  1.00  0.00     0.003 A 
HETATM    9  C   UNL     1       7.162  -7.011  -0.680  1.00  0.00     0.001 A 
HETATM   10  C   UNL     1       7.713  -5.732  -0.811  1.00  0.00     0.014 A 
HETATM   11  C   UNL     1       7.474  -3.256  -0.604  1.00  0.00     0.035 A 
ENDROOT
BRANCH   1  12
HETATM   12  C   UNL     1       7.395  -0.842  -0.388  1.00  0.00     0.260 C 
HETATM   13  N   UNL     1       6.599   0.228  -0.044  1.00  0.00    -0.323 N 
HETATM   14  H   UNL     1       5.621   0.018   0.162  1.00  0.00     0.169 HD
HETATM   15  O   UNL     1       8.575  -0.770  -0.727  1.00  0.00    -0.267 OA
BRANCH  13  16
HETATM   16  C   UNL     1       6.966   1.580   0.106  1.00  0.00     0.035 A 
HETATM   17  C   UNL     1       8.261   2.066  -0.069  1.00  0.00     0.030 A 
HETATM   18  C   UNL     1       8.545   3.421   0.144  1.00  0.00     0.009 A 
HETATM   19  C   UNL     1       7.536   4.312   0.524  1.00  0.00    -0.062 A 
HETATM   20  C   UNL     1       7.860   5.750   0.799  1.00  0.00     0.048 C 
HETATM   21  C   UNL     1       6.239   3.825   0.701  1.00  0.00     0.009 A 
HETATM   22  C   UNL     1       5.957   2.472   0.488  1.00  0.00     0.030 A 
ENDBRANCH  13  16
ENDBRANCH   1  12
BRANCH   3  23
HETATM   23  C   UNL     1       3.199  -1.617   0.765  1.00  0.00     0.093 A 
HETATM   24  C   UNL     1       2.104  -1.510  -0.109  1.00  0.00     0.097 A 
HETATM   25  C   UNL     1       0.798  -1.669   0.364  1.00  0.00     0.039 A 
HETATM   26  C   UNL     1       0.572  -1.965   1.708  1.00  0.00     0.003 A 
HETATM   27  C   UNL     1       1.649  -2.079   2.584  1.00  0.00     0.002 A 
HETATM   28  C   UNL     1       2.952  -1.896   2.116  1.00  0.00     0.034 A 
BRANCH  24  29
HETATM   29  O   UNL     1       2.228  -1.160  -1.430  1.00  0.00    -0.354 OA
HETATM   30  C   UNL     1       2.840  -2.193  -2.200  1.00  0.00     0.210 C 
ENDBRANCH  24  29
ENDBRANCH   3  23
TORSDOF 4
