REMARK  5 active torsions:
REMARK  status: ('A' for Active; 'I' for Inactive)
REMARK    1  A    between atoms: C_5  and  O_6 
REMARK    2  A    between atoms: O_6  and  C_7 
REMARK    3  A    between atoms: C_7  and  C_8 
REMARK       I    between atoms: C_8  and  N_9 
REMARK    4  A    between atoms: N_9  and  N_10 
REMARK    5  A    between atoms: C_11  and  C_12 
ROOT
HETATM    1  C   UNL     1       8.695  -0.744  -0.430  1.00  0.00     0.261 C 
HETATM    2  N   UNL     1       9.092   0.422  -1.070  1.00  0.00    -0.246 N 
HETATM    3  O   UNL     1       7.648  -0.888   0.200  1.00  0.00    -0.269 OA
HETATM    4  H   UNL     1       9.950   0.426  -1.613  1.00  0.00     0.192 HD
ENDROOT
BRANCH   2   5
HETATM    5  N   UNL     1       8.283   1.519  -1.032  1.00  0.00    -0.184 NA
HETATM    6  C   UNL     1       8.752   2.603  -1.555  1.00  0.00     0.153 C 
BRANCH   6   7
HETATM    7  C   UNL     1       7.947   3.812  -1.548  1.00  0.00     0.018 A 
HETATM    8  C   UNL     1       6.567   3.969  -1.182  1.00  0.00     0.004 A 
HETATM    9  C   UNL     1       6.242   5.316  -1.338  1.00  0.00     0.043 A 
HETATM   10  C   UNL     1       5.555   3.091  -0.735  1.00  0.00     0.014 A 
HETATM   11  C   UNL     1       4.966   5.829  -1.071  1.00  0.00     0.030 A 
HETATM   12  N   UNL     1       7.375   5.957  -1.774  1.00  0.00    -0.358 N 
HETATM   13  C   UNL     1       3.985   4.935  -0.632  1.00  0.00     0.002 A 
HETATM   14  C   UNL     1       4.273   3.584  -0.465  1.00  0.00     0.001 A 
HETATM   15  H   UNL     1       7.425   6.949  -1.963  1.00  0.00     0.166 HD
HETATM   16  C   UNL     1       8.416   5.070  -1.909  1.00  0.00     0.018 A 
HETATM   17  C   UNL     1       9.759   5.526  -2.351  1.00  0.00     0.069 C 
ENDBRANCH   6   7
ENDBRANCH   2   5
BRANCH   1  18
HETATM   18  C   UNL     1       9.750  -1.843  -0.474  1.00  0.00     0.280 C 
BRANCH  18  19
HETATM   19  O   UNL     1      10.433  -1.857  -1.731  1.00  0.00    -0.342 OA
BRANCH  19  20
HETATM   20  C   UNL     1      11.151  -3.014  -1.889  1.00  0.00     0.069 A 
HETATM   21  C   UNL     1      10.860  -3.807  -2.996  1.00  0.00     0.037 A 
HETATM   22  C   UNL     1      11.562  -4.998  -3.205  1.00  0.00     0.009 A 
HETATM   23  C   UNL     1      12.575  -5.388  -2.320  1.00  0.00    -0.062 A 
HETATM   24  C   UNL     1      13.320  -6.676  -2.517  1.00  0.00     0.048 C 
HETATM   25  C   UNL     1      12.874  -4.569  -1.223  1.00  0.00     0.009 A 
HETATM   26  C   UNL     1      12.172  -3.381  -1.013  1.00  0.00     0.037 A 
ENDBRANCH  19  20
ENDBRANCH  18  19
ENDBRANCH   1  18
TORSDOF 5
