REMARK  2 active torsions:
REMARK  status: ('A' for Active; 'I' for Inactive)
REMARK    1  A    between atoms: C_11  and  N_12 
REMARK    2  A    between atoms: N_12  and  C_13 
ROOT
HETATM    1  C   UNL     1       1.198  -0.070   0.446  1.00  0.00     0.010 C 
HETATM    2  C   UNL     1       2.692  -0.013   0.109  1.00  0.00    -0.014 C 
HETATM    3  C   UNL     1       3.252   1.419   0.237  1.00  0.00     0.051 C 
HETATM    4  C   UNL     1       2.935   2.234  -0.982  1.00  0.00    -0.008 A 
HETATM    5  C   UNL     1       2.538   1.739  -2.213  1.00  0.00    -0.028 A 
HETATM    6  C   UNL     1       2.267   2.811  -3.162  1.00  0.00     0.053 A 
HETATM    7  C   UNL     1       2.555   4.043  -2.582  1.00  0.00     0.114 A 
HETATM    8  N   UNL     1       2.452   5.251  -3.156  1.00  0.00    -0.234 NA
HETATM    9  C   UNL     1       2.013   5.179  -4.409  1.00  0.00     0.236 A 
HETATM   10  N   UNL     1       1.674   4.077  -5.087  1.00  0.00    -0.223 NA
HETATM   11  C   UNL     1       1.775   2.860  -4.496  1.00  0.00     0.143 A 
HETATM   12  S   UNL     1       3.077   3.924  -0.966  1.00  0.00    -0.073 SA
HETATM   13  C   UNL     1       2.381   0.260  -2.432  1.00  0.00     0.041 C 
HETATM   14  C   UNL     1       2.984  -0.580  -1.294  1.00  0.00     0.009 C 
ENDROOT
BRANCH  11  15
HETATM   15  N   UNL     1       1.412   1.704  -5.204  1.00  0.00    -0.340 N 
HETATM   16  H   UNL     1       1.583   0.850  -4.701  1.00  0.00     0.167 HD
BRANCH  15  17
HETATM   17  C   UNL     1       0.702   1.504  -6.404  1.00  0.00     0.036 A 
HETATM   18  C   UNL     1       0.668   0.204  -6.943  1.00  0.00     0.069 A 
HETATM   19  C   UNL     1      -0.008  -0.012  -8.127  1.00  0.00     0.107 A 
HETATM   20  C   UNL     1      -0.636   1.007  -8.797  1.00  0.00     0.105 A 
HETATM   21  O   UNL     1      -0.138  -1.209  -8.760  1.00  0.00    -0.323 OA
HETATM   22  O   UNL     1      -1.245   0.584  -9.936  1.00  0.00    -0.323 OA
HETATM   23  C   UNL     1      -0.616   2.296  -8.321  1.00  0.00     0.042 A 
HETATM   24  C   UNL     1      -0.926  -0.822  -9.906  1.00  0.00     0.352 A 
HETATM   25  C   UNL     1       0.065   2.540  -7.120  1.00  0.00     0.032 A 
ENDBRANCH  15  17
ENDBRANCH  11  15
TORSDOF 2
