REMARK  7 active torsions:
REMARK  status: ('A' for Active; 'I' for Inactive)
REMARK    1  A    between atoms: O_2  and  C_3 
REMARK    2  A    between atoms: C_4  and  C_5 
REMARK    3  A    between atoms: C_5  and  N_6 
REMARK    4  A    between atoms: C_5  and  C_12 
REMARK    5  A    between atoms: C_12  and  N_13 
REMARK       I    between atoms: N_13  and  C_14 
REMARK       I    between atoms: C_14  and  N_15 
REMARK    6  A    between atoms: N_15  and  C_16 
REMARK    7  A    between atoms: C_17  and  O_18 
ROOT
HETATM    1  N   UNL     1       5.807   0.900  -3.876  1.00  0.00    -0.341 N 
HETATM    2  C   UNL     1       5.911  -0.456  -3.705  1.00  0.00     0.316 C 
HETATM    3  N   UNL     1       7.161  -0.915  -3.982  1.00  0.00    -0.332 N 
HETATM    4  O   UNL     1       5.009  -1.139  -3.240  1.00  0.00    -0.247 OA
HETATM    5  H   UNL     1       6.449   1.290  -4.554  1.00  0.00     0.164 HD
HETATM    6  H   UNL     1       7.646  -0.488  -4.759  1.00  0.00     0.165 HD
ENDROOT
BRANCH   1   7
HETATM    7  C   UNL     1       4.525   1.572  -3.705  1.00  0.00     0.162 C 
BRANCH   7   8
HETATM    8  C   UNL     1       3.875   1.519  -2.279  1.00  0.00     0.241 C 
BRANCH   8   9
HETATM    9  C   UNL     1       2.464   2.110  -2.212  1.00  0.00     0.007 A 
HETATM   10  C   UNL     1       1.619   1.741  -1.142  1.00  0.00     0.076 A 
HETATM   11  C   UNL     1       0.336   2.283  -1.027  1.00  0.00     0.037 A 
HETATM   12  C   UNL     1      -0.128   3.187  -1.981  1.00  0.00     0.003 A 
HETATM   13  C   UNL     1       0.690   3.562  -3.041  1.00  0.00     0.001 A 
HETATM   14  C   UNL     1       1.978   3.033  -3.155  1.00  0.00     0.012 A 
BRANCH  10  15
HETATM   15  O   UNL     1       2.164   0.897  -0.205  1.00  0.00    -0.355 OA
HETATM   16  C   UNL     1       1.231   0.012   0.423  1.00  0.00     0.210 C 
ENDBRANCH  10  15
ENDBRANCH   8   9
BRANCH   8  17
HETATM   17  N   UNL     1       4.744   2.159  -1.184  1.00  0.00    -0.061 N 
HETATM   18  H   UNL     1       4.096   2.175  -0.382  1.00  0.00     0.280 HD
HETATM   19  C   UNL     1       5.211   3.567  -1.405  1.00  0.00     0.236 C 
HETATM   20  C   UNL     1       6.691   3.422  -1.681  1.00  0.00     0.029 C 
HETATM   21  C   UNL     1       7.113   2.294  -0.760  1.00  0.00     0.029 C 
HETATM   22  C   UNL     1       5.926   1.346  -0.712  1.00  0.00     0.236 C 
ENDBRANCH   8  17
ENDBRANCH   7   8
ENDBRANCH   1   7
BRANCH   3  23
HETATM   23  C   UNL     1       7.474  -2.324  -3.816  1.00  0.00     0.149 C 
HETATM   24  C   UNL     1       6.874  -3.225  -4.937  1.00  0.00     0.149 C 
HETATM   25  C   UNL     1       7.901  -4.342  -5.203  1.00  0.00     0.073 C 
HETATM   26  C   UNL     1       9.184  -3.715  -4.743  1.00  0.00    -0.047 A 
HETATM   27  C   UNL     1       8.948  -2.583  -3.955  1.00  0.00    -0.026 A 
HETATM   28  C   UNL     1      10.472  -4.169  -4.976  1.00  0.00     0.008 A 
HETATM   29  C   UNL     1      10.003  -1.889  -3.378  1.00  0.00     0.010 A 
HETATM   30  C   UNL     1      11.305  -2.333  -3.617  1.00  0.00     0.001 A 
HETATM   31  C   UNL     1      11.537  -3.465  -4.412  1.00  0.00     0.001 A 
BRANCH  24  32
HETATM   32  O   UNL     1       6.668  -2.475  -6.150  1.00  0.00    -0.393 OA
HETATM   33  H   UNL     1       5.774  -2.096  -6.084  1.00  0.00     0.210 HD
ENDBRANCH  24  32
ENDBRANCH   3  23
TORSDOF 7
