REMARK  9 active torsions:
REMARK  status: ('A' for Active; 'I' for Inactive)
REMARK    1  A    between atoms: C_2  and  C_3 
REMARK    2  A    between atoms: C_6  and  N_7 
REMARK    3  A    between atoms: C_8  and  O_9 
REMARK    4  A    between atoms: C_8  and  C_10 
REMARK       I    between atoms: C_10  and  N_11 
REMARK    5  A    between atoms: N_11  and  C_12 
REMARK    6  A    between atoms: C_12  and  C_13 
REMARK    7  A    between atoms: C_13  and  N_14 
REMARK    8  A    between atoms: N_14  and  C_16 
REMARK    9  A    between atoms: N_14  and  C_18 
ROOT
HETATM    1  N   UNL     1       3.586   5.168  -2.350  1.00  0.00    -0.254 N 
HETATM    2  C   UNL     1       4.697   6.116  -2.213  1.00  0.00     0.256 C 
HETATM    3  C   UNL     1       4.207   7.472  -1.782  1.00  0.00     0.034 A 
HETATM    4  C   UNL     1       2.956   7.864  -2.264  1.00  0.00     0.048 A 
HETATM    5  N   UNL     1       2.240   6.958  -3.049  1.00  0.00    -0.308 N 
HETATM    6  C   UNL     1       2.501   5.605  -3.110  1.00  0.00     0.330 C 
HETATM    7  O   UNL     1       1.754   4.902  -3.787  1.00  0.00    -0.246 OA
HETATM    8  C   UNL     1       4.954   8.370  -1.011  1.00  0.00     0.015 A 
HETATM    9  C   UNL     1       4.447   9.639  -0.734  1.00  0.00     0.001 A 
HETATM   10  C   UNL     1       3.202  10.022  -1.233  1.00  0.00     0.002 A 
HETATM   11  C   UNL     1       2.453   9.136  -2.008  1.00  0.00     0.030 A 
HETATM   12  H   UNL     1       1.341   7.228  -3.433  1.00  0.00     0.170 HD
ENDROOT
BRANCH   2  13
HETATM   13  O   UNL     1       5.722   5.664  -1.332  1.00  0.00    -0.359 OA
HETATM   14  H   UNL     1       6.032   4.817  -1.704  1.00  0.00     0.213 HD
ENDBRANCH   2  13
BRANCH   2  15
HETATM   15  C   UNL     1       5.391   6.113  -3.648  1.00  0.00     0.279 C 
HETATM   16  N   UNL     1       5.161   7.164  -4.514  1.00  0.00    -0.355 N 
HETATM   17  H   UNL     1       4.779   8.011  -4.101  1.00  0.00     0.162 HD
HETATM   18  O   UNL     1       6.005   5.119  -4.058  1.00  0.00    -0.268 OA
BRANCH  16  19
HETATM   19  C   UNL     1       5.841   7.358  -5.793  1.00  0.00     0.150 C 
BRANCH  19  20
HETATM   20  C   UNL     1       6.199   6.121  -6.648  1.00  0.00     0.254 C 
BRANCH  20  21
HETATM   21  N   UNL     1       5.126   5.046  -6.667  1.00  0.00    -0.070 N 
HETATM   22  H   UNL     1       5.057   4.771  -5.670  1.00  0.00     0.279 HD
BRANCH  21  23
HETATM   23  C   UNL     1       3.740   5.497  -7.068  1.00  0.00     0.230 C 
HETATM   24  C   UNL     1       3.695   5.992  -8.503  1.00  0.00     0.034 C 
ENDBRANCH  21  23
BRANCH  21  25
HETATM   25  C   UNL     1       5.563   3.789  -7.394  1.00  0.00     0.230 C 
HETATM   26  C   UNL     1       6.498   2.956  -6.536  1.00  0.00     0.034 C 
ENDBRANCH  21  25
ENDBRANCH  20  21
ENDBRANCH  19  20
ENDBRANCH  16  19
ENDBRANCH   2  15
BRANCH   1  27
HETATM   27  C   UNL     1       3.624   3.848  -1.803  1.00  0.00     0.043 A 
HETATM   28  C   UNL     1       3.176   2.734  -2.521  1.00  0.00     0.030 A 
HETATM   29  C   UNL     1       3.193   1.453  -1.951  1.00  0.00     0.009 A 
HETATM   30  C   UNL     1       3.637   1.260  -0.639  1.00  0.00    -0.058 A 
HETATM   31  C   UNL     1       4.054   2.372   0.095  1.00  0.00     0.009 A 
HETATM   32  C   UNL     1       4.043   3.647  -0.480  1.00  0.00     0.030 A 
BRANCH  30  33
HETATM   33  C   UNL     1       3.639  -0.113  -0.015  1.00  0.00     0.034 C 
HETATM   34  C   UNL     1       5.048  -0.638   0.225  1.00  0.00     0.010 C 
ENDBRANCH  30  33
ENDBRANCH   1  27
TORSDOF 9
