REMARK  9 active torsions:
REMARK  status: ('A' for Active; 'I' for Inactive)
REMARK    1  A    between atoms: C_4  and  N_5 
REMARK       I    between atoms: N_5  and  C_6 
REMARK    2  A    between atoms: C_6  and  C_7 
REMARK    3  A    between atoms: C_7  and  N_8 
REMARK       I    between atoms: N_8  and  C_9 
REMARK    4  A    between atoms: C_9  and  C_10 
REMARK    5  A    between atoms: C_10  and  O_11 
REMARK    6  A    between atoms: O_11  and  C_12 
REMARK    7  A    between atoms: C_12  and  C_13 
REMARK    8  A    between atoms: C_17  and  C_18 
REMARK    9  A    between atoms: C_27  and  O_28 
ROOT
HETATM    1  N   UNL     1       2.282   2.710  -0.092  1.00  0.00    -0.350 N 
HETATM    2  C   UNL     1       1.097   2.739   0.615  1.00  0.00     0.242 C 
HETATM    3  O   UNL     1       0.735   3.696   1.292  1.00  0.00    -0.271 OA
HETATM    4  H   UNL     1       2.602   1.787  -0.385  1.00  0.00     0.163 HD
ENDROOT
BRANCH   2   5
HETATM    5  C   UNL     1       0.254   1.468   0.483  1.00  0.00     0.281 C 
BRANCH   5   6
HETATM    6  O   UNL     1       0.597   0.461   1.432  1.00  0.00    -0.308 OA
BRANCH   6   7
HETATM    7  C   UNL     1       1.752  -0.216   1.182  1.00  0.00     0.301 C 
HETATM    8  O   UNL     1       2.475   0.018   0.216  1.00  0.00    -0.259 OA
BRANCH   7   9
HETATM    9  C   UNL     1       1.997  -1.192   2.225  1.00  0.00     0.091 A 
HETATM   10  S   UNL     1       3.630  -1.461   2.691  1.00  0.00    -0.095 SA
HETATM   11  C   UNL     1       3.181  -2.550   3.923  1.00  0.00     0.051 A 
HETATM   12  C   UNL     1       1.821  -2.753   3.955  1.00  0.00     0.021 A 
HETATM   13  C   UNL     1       1.125  -1.989   2.959  1.00  0.00    -0.002 A 
BRANCH  13  14
HETATM   14  C   UNL     1      -0.312  -2.051   2.716  1.00  0.00    -0.024 A 
HETATM   15  C   UNL     1      -1.210  -1.769   3.752  1.00  0.00     0.012 A 
HETATM   16  C   UNL     1      -2.587  -1.855   3.532  1.00  0.00     0.001 A 
HETATM   17  C   UNL     1      -3.072  -2.225   2.279  1.00  0.00     0.000 A 
HETATM   18  C   UNL     1      -2.184  -2.515   1.244  1.00  0.00     0.001 A 
HETATM   19  C   UNL     1      -0.807  -2.435   1.462  1.00  0.00     0.012 A 
ENDBRANCH  13  14
ENDBRANCH   7   9
ENDBRANCH   6   7
ENDBRANCH   5   6
ENDBRANCH   2   5
BRANCH   1  20
HETATM   20  C   UNL     1       3.277   3.758   0.081  1.00  0.00     0.225 C 
BRANCH  20  21
HETATM   21  C   UNL     1       4.361   3.352   1.088  1.00  0.00     0.239 C 
HETATM   22  N   UNL     1       4.946   2.137   0.781  1.00  0.00    -0.323 N 
HETATM   23  H   UNL     1       4.734   1.710  -0.115  1.00  0.00     0.169 HD
HETATM   24  O   UNL     1       4.727   4.118   1.975  1.00  0.00    -0.271 OA
BRANCH  22  25
HETATM   25  C   UNL     1       5.925   1.435   1.517  1.00  0.00     0.069 A 
HETATM   26  C   UNL     1       6.254   1.745   2.839  1.00  0.00     0.039 A 
HETATM   27  C   UNL     1       7.187   0.970   3.541  1.00  0.00    -0.060 A 
HETATM   28  C   UNL     1       7.539   1.315   4.958  1.00  0.00     0.048 C 
HETATM   29  C   UNL     1       7.816  -0.097   2.892  1.00  0.00     0.009 A 
HETATM   30  C   UNL     1       7.499  -0.410   1.568  1.00  0.00     0.039 A 
HETATM   31  C   UNL     1       6.554   0.348   0.874  1.00  0.00     0.095 A 
BRANCH  31  32
HETATM   32  O   UNL     1       6.167   0.127  -0.429  1.00  0.00    -0.354 OA
HETATM   33  C   UNL     1       6.910  -0.840  -1.161  1.00  0.00     0.210 C 
ENDBRANCH  31  32
ENDBRANCH  22  25
ENDBRANCH  20  21
ENDBRANCH   1  20
TORSDOF 9
