REMARK  6 active torsions:
REMARK  status: ('A' for Active; 'I' for Inactive)
REMARK    1  A    between atoms: C_2  and  O_3 
REMARK    2  A    between atoms: C_2  and  C_4 
REMARK    3  A    between atoms: C_6  and  N_7 
REMARK       I    between atoms: N_7  and  C_8 
REMARK    4  A    between atoms: C_8  and  C_9 
REMARK    5  A    between atoms: C_12  and  C_13 
REMARK    6  A    between atoms: C_18  and  C_19 
ROOT
HETATM    1  C   UNL     1       2.483   4.441   0.733  1.00  0.00     0.096 C 
HETATM    2  C   UNL     1       3.610   3.830   1.251  1.00  0.00     0.138 C 
HETATM    3  N   UNL     1       3.188   3.155   2.375  1.00  0.00    -0.240 N 
HETATM    4  C   UNL     1       4.058   2.396   3.256  1.00  0.00     0.221 C 
HETATM    5  C   UNL     1       5.412   2.127   2.577  1.00  0.00     0.068 C 
HETATM    6  C   UNL     1       5.921   3.388   1.870  1.00  0.00     0.143 C 
HETATM    7  N   UNL     1       4.920   3.812   0.872  1.00  0.00    -0.363 N 
HETATM    8  N   UNL     1       1.921   3.432   2.716  1.00  0.00    -0.181 NA
HETATM    9  C   UNL     1       1.484   4.184   1.702  1.00  0.00     0.160 C 
HETATM   10  H   UNL     1       5.264   4.618   0.343  1.00  0.00     0.162 HD
ENDROOT
BRANCH   1  11
HETATM   11  C   UNL     1       2.319   5.214  -0.488  1.00  0.00     0.261 C 
HETATM   12  N   UNL     1       3.271   4.931  -1.449  1.00  0.00    -0.323 N 
HETATM   13  H   UNL     1       3.899   4.166  -1.225  1.00  0.00     0.169 HD
HETATM   14  O   UNL     1       1.381   5.993  -0.606  1.00  0.00    -0.267 OA
BRANCH  12  15
HETATM   15  C   UNL     1       3.398   5.497  -2.733  1.00  0.00     0.035 A 
HETATM   16  C   UNL     1       2.605   6.548  -3.203  1.00  0.00     0.039 A 
HETATM   17  C   UNL     1       2.775   7.061  -4.502  1.00  0.00    -0.028 A 
HETATM   18  C   UNL     1       3.752   6.495  -5.332  1.00  0.00     0.010 A 
HETATM   19  C   UNL     1       4.556   5.456  -4.868  1.00  0.00     0.003 A 
HETATM   20  C   UNL     1       4.381   4.962  -3.574  1.00  0.00     0.029 A 
BRANCH  17  21
HETATM   21  C   UNL     1       1.879   8.180  -4.991  1.00  0.00     0.147 C 
HETATM   22  C   UNL     1       0.742   7.663  -5.860  1.00  0.00     0.044 C 
BRANCH  21  23
HETATM   23  O   UNL     1       2.636   9.131  -5.739  1.00  0.00    -0.391 OA
HETATM   24  H   UNL     1       3.464   9.274  -5.249  1.00  0.00     0.210 HD
ENDBRANCH  21  23
ENDBRANCH  17  21
ENDBRANCH  12  15
ENDBRANCH   1  11
BRANCH   4  25
HETATM   25  C   UNL     1       3.430   1.084   3.672  1.00  0.00     0.409 C 
HETATM   26  F   UNL     1       2.325   1.227   4.430  1.00  0.00    -0.169 F 
HETATM   27  F   UNL     1       3.122   0.303   2.611  1.00  0.00    -0.169 F 
HETATM   28  F   UNL     1       4.315   0.377   4.427  1.00  0.00    -0.169 F 
ENDBRANCH   4  25
BRANCH   6  29
HETATM   29  C   UNL     1       7.270   3.131   1.280  1.00  0.00     0.075 A 
HETATM   30  O   UNL     1       8.343   3.472   2.051  1.00  0.00    -0.325 OA
HETATM   31  C   UNL     1       9.458   3.147   1.348  1.00  0.00     0.142 A 
HETATM   32  C   UNL     1       9.118   2.600   0.133  1.00  0.00     0.027 A 
HETATM   33  C   UNL     1       7.704   2.588   0.087  1.00  0.00     0.037 A 
ENDBRANCH   6  29
TORSDOF 6
