REMARK  5 active torsions:
REMARK  status: ('A' for Active; 'I' for Inactive)
REMARK    1  A    between atoms: C_2  and  N_3 
REMARK    2  A    between atoms: C_2  and  C_19 
REMARK       I    between atoms: N_3  and  C_4 
REMARK    3  A    between atoms: C_4  and  C_5 
REMARK    4  A    between atoms: C_6  and  O_7 
REMARK    5  A    between atoms: O_7  and  C_8 
ROOT
HETATM    1  C   UNL     1       1.751  -1.973  -1.874  1.00  0.00     0.065 A 
HETATM    2  C   UNL     1       2.192  -3.305  -1.876  1.00  0.00     0.091 A 
HETATM    3  C   UNL     1       1.312  -4.321  -1.473  1.00  0.00     0.038 A 
HETATM    4  C   UNL     1      -0.005  -4.019  -1.124  1.00  0.00     0.003 A 
HETATM    5  C   UNL     1      -0.449  -2.699  -1.145  1.00  0.00     0.001 A 
HETATM    6  C   UNL     1       0.427  -1.676  -1.509  1.00  0.00     0.020 A 
ENDROOT
BRANCH   1   7
HETATM    7  C   UNL     1       2.679  -0.859  -2.211  1.00  0.00     0.255 C 
HETATM    8  N   UNL     1       2.135   0.159  -2.969  1.00  0.00    -0.348 N 
HETATM    9  H   UNL     1       1.216   0.043  -3.372  1.00  0.00     0.163 HD
HETATM   10  O   UNL     1       3.839  -0.854  -1.820  1.00  0.00    -0.268 OA
BRANCH   8  11
HETATM   11  C   UNL     1       2.936   1.292  -3.404  1.00  0.00     0.115 C 
HETATM   12  C   UNL     1       3.685   0.962  -4.698  1.00  0.00     0.037 C 
BRANCH  11  13
HETATM   13  C   UNL     1       2.058   2.516  -3.525  1.00  0.00    -0.018 A 
HETATM   14  C   UNL     1       2.111   3.508  -2.548  1.00  0.00     0.125 A 
HETATM   15  N   UNL     1       1.356   4.631  -2.555  1.00  0.00    -0.273 NA
HETATM   16  C   UNL     1       0.496   4.777  -3.584  1.00  0.00     0.116 A 
HETATM   17  C   UNL     1       0.353   3.849  -4.601  1.00  0.00     0.020 A 
HETATM   18  C   UNL     1       1.143   2.703  -4.568  1.00  0.00     0.012 A 
ENDBRANCH  11  13
ENDBRANCH   8  11
ENDBRANCH   1   7
BRANCH   2  19
HETATM   19  O   UNL     1       3.503  -3.564  -2.212  1.00  0.00    -0.310 OA
BRANCH  19  20
HETATM   20  C   UNL     1       3.803  -4.714  -2.902  1.00  0.00     0.076 A 
HETATM   21  C   UNL     1       3.096  -5.134  -4.032  1.00  0.00     0.037 A 
HETATM   22  C   UNL     1       3.486  -6.298  -4.698  1.00  0.00     0.003 A 
HETATM   23  C   UNL     1       4.591  -7.024  -4.251  1.00  0.00     0.000 A 
HETATM   24  C   UNL     1       5.314  -6.584  -3.142  1.00  0.00     0.003 A 
HETATM   25  C   UNL     1       4.924  -5.425  -2.472  1.00  0.00     0.037 A 
ENDBRANCH  19  20
ENDBRANCH   2  19
TORSDOF 5
