REMARK  8 active torsions:
REMARK  status: ('A' for Active; 'I' for Inactive)
REMARK    1  A    between atoms: C_2  and  N_3 
REMARK       I    between atoms: N_3  and  C_4 
REMARK       I    between atoms: C_4  and  N_5 
REMARK    2  A    between atoms: N_5  and  C_6 
REMARK    3  A    between atoms: N_5  and  C_22 
REMARK    4  A    between atoms: C_6  and  C_7 
REMARK    5  A    between atoms: C_8  and  O_9 
REMARK    6  A    between atoms: C_22  and  C_23 
REMARK    7  A    between atoms: C_23  and  C_24 
REMARK    8  A    between atoms: C_24  and  N_25 
ROOT
HETATM    1  N   UNL     1       1.082   2.486   0.092  1.00  0.00    -0.309 N 
HETATM    2  C   UNL     1       0.510   3.701   0.380  1.00  0.00     0.323 C 
HETATM    3  N   UNL     1      -0.861   3.778   0.115  1.00  0.00    -0.330 N 
HETATM    4  O   UNL     1       1.100   4.658   0.875  1.00  0.00    -0.247 OA
HETATM    5  H   UNL     1       0.688   1.996  -0.698  1.00  0.00     0.170 HD
ENDROOT
BRANCH   3   6
HETATM    6  C   UNL     1      -1.501   5.085   0.313  1.00  0.00     0.170 C 
BRANCH   6   7
HETATM    7  C   UNL     1      -1.242   6.049  -0.806  1.00  0.00     0.013 A 
HETATM    8  C   UNL     1      -0.302   7.066  -0.709  1.00  0.00     0.170 A 
HETATM    9  N   UNL     1      -0.100   8.011  -1.642  1.00  0.00    -0.224 NA
HETATM   10  C   UNL     1      -0.840   7.971  -2.760  1.00  0.00     0.072 A 
HETATM   11  C   UNL     1      -1.805   6.965  -2.984  1.00  0.00    -0.004 A 
HETATM   12  C   UNL     1      -0.664   8.948  -3.729  1.00  0.00     0.072 A 
HETATM   13  C   UNL     1      -1.989   5.995  -1.987  1.00  0.00     0.027 A 
HETATM   14  C   UNL     1      -2.568   6.965  -4.164  1.00  0.00     0.053 A 
HETATM   15  C   UNL     1      -2.386   7.969  -5.110  1.00  0.00     0.103 A 
HETATM   16  C   UNL     1      -1.419   8.950  -4.902  1.00  0.00     0.104 A 
HETATM   17  O   UNL     1      -3.193   7.929  -6.216  1.00  0.00    -0.346 OA
HETATM   18  O   UNL     1      -1.166   9.958  -5.797  1.00  0.00    -0.346 OA
HETATM   19  C   UNL     1      -1.754   9.689  -7.075  1.00  0.00     0.202 C 
HETATM   20  C   UNL     1      -3.177   9.181  -6.916  1.00  0.00     0.202 C 
BRANCH   8  21
HETATM   21  O   UNL     1       0.485   7.198   0.396  1.00  0.00    -0.344 OA
HETATM   22  H   UNL     1       0.915   6.328   0.536  1.00  0.00     0.219 HD
ENDBRANCH   8  21
ENDBRANCH   6   7
ENDBRANCH   3   6
BRANCH   3  23
HETATM   23  C   UNL     1      -1.732   2.616  -0.080  1.00  0.00     0.129 C 
BRANCH  23  24
HETATM   24  C   UNL     1      -1.889   1.755   1.185  1.00  0.00     0.048 C 
BRANCH  24  25
HETATM   25  C   UNL     1      -2.436   2.541   2.373  1.00  0.00     0.236 C 
BRANCH  25  26
HETATM   26  N   UNL     1      -2.474   1.690   3.626  1.00  0.00    -0.067 N 
HETATM   27  H   UNL     1      -1.565   1.215   3.716  1.00  0.00     0.280 HD
HETATM   28  C   UNL     1      -2.630   2.567   4.876  1.00  0.00     0.261 C 
HETATM   29  C   UNL     1      -2.660   1.687   6.129  1.00  0.00     0.195 C 
HETATM   30  O   UNL     1      -3.718   0.726   6.049  1.00  0.00    -0.388 OA
HETATM   31  C   UNL     1      -3.549  -0.155   4.936  1.00  0.00     0.195 C 
HETATM   32  C   UNL     1      -3.566   0.621   3.614  1.00  0.00     0.261 C 
ENDBRANCH  25  26
ENDBRANCH  24  25
ENDBRANCH  23  24
ENDBRANCH   3  23
BRANCH   1  33
HETATM   33  C   UNL     1       2.350   2.025   0.509  1.00  0.00     0.036 A 
HETATM   34  C   UNL     1       3.109   2.643   1.509  1.00  0.00     0.032 A 
HETATM   35  C   UNL     1       4.343   2.108   1.893  1.00  0.00     0.044 A 
HETATM   36  C   UNL     1       4.810   0.950   1.287  1.00  0.00     0.116 A 
HETATM   37  C   UNL     1       4.068   0.317   0.299  1.00  0.00     0.044 A 
HETATM   38  F   UNL     1       5.986   0.433   1.664  1.00  0.00    -0.206 F 
HETATM   39  C   UNL     1       2.838   0.853  -0.090  1.00  0.00     0.032 A 
ENDBRANCH   1  33
TORSDOF 8
