REMARK  3 active torsions:
REMARK  status: ('A' for Active; 'I' for Inactive)
REMARK    1  A    between atoms: C_4  and  N_5 
REMARK       I    between atoms: N_5  and  C_6 
REMARK    2  A    between atoms: C_6  and  C_7 
REMARK    3  A    between atoms: C_7  and  C_8 
ROOT
HETATM    1  C   UNL     1       2.605   2.626   0.269  1.00  0.00     0.286 C 
HETATM    2  N   UNL     1       1.714   2.339  -0.949  1.00  0.00    -0.056 N 
HETATM    3  H   UNL     1       1.003   3.085  -1.041  1.00  0.00     0.278 HD
HETATM    4  H   UNL     1       2.279   2.415  -1.807  1.00  0.00     0.278 HD
HETATM    5  C   UNL     1       1.091   0.980  -0.835  1.00  0.00     0.209 C 
HETATM    6  C   UNL     1       2.235  -0.058  -0.858  1.00  0.00     0.115 C 
HETATM    7  N   UNL     1       3.224   0.211   0.184  1.00  0.00    -0.353 N 
HETATM    8  C   UNL     1       3.619   1.487   0.529  1.00  0.00     0.249 C 
HETATM    9  O   UNL     1       4.693   1.667   1.092  1.00  0.00    -0.271 OA
HETATM   10  C   UNL     1       0.096   0.748  -1.963  1.00  0.00     0.035 C 
HETATM   11  C   UNL     1      -0.487  -0.661  -1.845  1.00  0.00     0.002 C 
HETATM   12  C   UNL     1       0.608  -1.730  -1.838  1.00  0.00     0.002 C 
HETATM   13  C   UNL     1       1.671  -1.477  -0.766  1.00  0.00     0.027 C 
HETATM   14  H   UNL     1       3.952  -0.483   0.347  1.00  0.00     0.163 HD
ENDROOT
BRANCH   1  15
HETATM   15  C   UNL     1       3.307   3.968   0.093  1.00  0.00     0.146 C 
BRANCH  15  16
HETATM   16  C   UNL     1       2.248   5.027   0.011  1.00  0.00     0.224 C 
HETATM   17  N   UNL     1       1.699   5.651   1.079  1.00  0.00    -0.327 N 
HETATM   18  H   UNL     1       0.879   6.188   0.804  1.00  0.00     0.169 HD
HETATM   19  O   UNL     1       1.677   5.158  -1.083  1.00  0.00    -0.273 OA
BRANCH  17  20
HETATM   20  C   UNL     1       1.962   5.662   2.459  1.00  0.00     0.035 A 
HETATM   21  C   UNL     1       3.188   5.376   3.059  1.00  0.00     0.036 A 
HETATM   22  C   UNL     1       3.330   5.409   4.458  1.00  0.00    -0.060 A 
HETATM   23  C   UNL     1       4.668   5.173   5.100  1.00  0.00     0.048 C 
HETATM   24  C   UNL     1       2.235   5.757   5.255  1.00  0.00     0.007 A 
HETATM   25  C   UNL     1       1.016   6.074   4.666  1.00  0.00     0.003 A 
HETATM   26  C   UNL     1       0.887   6.039   3.278  1.00  0.00     0.029 A 
ENDBRANCH  17  20
ENDBRANCH  15  16
ENDBRANCH   1  15
TORSDOF 3
