REMARK  3 active torsions:
REMARK  status: ('A' for Active; 'I' for Inactive)
REMARK    1  A    between atoms: C_2  and  C_3 
REMARK    2  A    between atoms: C_18  and  C_19 
REMARK    3  A    between atoms: C_22  and  O_23 
ROOT
HETATM    1  C   UNL     1       3.385   0.997   0.450  1.00  0.00     0.060 C 
HETATM    2  C   UNL     1       2.722  -0.282  -0.147  1.00  0.00     0.210 C 
HETATM    3  N   UNL     1       3.142  -0.221  -1.560  1.00  0.00     0.110 N 
HETATM    4  C   UNL     1       2.280  -0.888  -2.529  1.00  0.00     0.374 C 
HETATM    5  C   UNL     1       1.911  -2.339  -2.299  1.00  0.00     0.250 C 
HETATM    6  O   UNL     1       1.221  -2.920  -3.151  1.00  0.00    -0.271 OA
HETATM    7  N   UNL     1       2.339  -3.099  -1.266  1.00  0.00    -0.325 N 
HETATM    8  C   UNL     1       3.060  -2.839  -0.096  1.00  0.00     0.044 A 
HETATM    9  C   UNL     1       3.310  -1.574   0.459  1.00  0.00     0.012 A 
HETATM   10  C   UNL     1       3.527  -3.993   0.558  1.00  0.00     0.031 A 
HETATM   11  C   UNL     1       4.300  -3.915   1.715  1.00  0.00     0.014 A 
HETATM   12  C   UNL     1       4.625  -2.678   2.268  1.00  0.00    -0.025 A 
HETATM   13  C   UNL     1       4.102  -1.531   1.640  1.00  0.00     0.024 A 
HETATM   14  H   UNL     1       4.089  -0.591  -1.635  1.00  0.00     0.318 HD
HETATM   15  H   UNL     1       2.065  -4.063  -1.421  1.00  0.00     0.169 HD
ENDROOT
BRANCH  12  16
HETATM   16  C   UNL     1       5.500  -2.579   3.453  1.00  0.00    -0.026 A 
HETATM   17  C   UNL     1       6.706  -3.304   3.518  1.00  0.00     0.015 A 
HETATM   18  C   UNL     1       7.552  -3.214   4.628  1.00  0.00     0.037 A 
HETATM   19  C   UNL     1       7.199  -2.390   5.688  1.00  0.00     0.065 A 
HETATM   20  C   UNL     1       6.018  -1.661   5.654  1.00  0.00     0.037 A 
HETATM   21  C   UNL     1       5.173  -1.757   4.544  1.00  0.00     0.015 A 
BRANCH  19  22
HETATM   22  O   UNL     1       7.993  -2.267   6.788  1.00  0.00    -0.361 OA
HETATM   23  H   UNL     1       8.778  -2.827   6.669  1.00  0.00     0.217 HD
ENDBRANCH  19  22
ENDBRANCH  12  16
BRANCH   2  24
HETATM   24  C   UNL     1       1.198  -0.099   0.085  1.00  0.00    -0.016 A 
HETATM   25  C   UNL     1       0.461  -0.922   0.956  1.00  0.00     0.010 A 
HETATM   26  C   UNL     1      -0.914  -0.737   1.143  1.00  0.00     0.001 A 
HETATM   27  C   UNL     1      -1.582   0.285   0.476  1.00  0.00     0.000 A 
HETATM   28  C   UNL     1      -0.875   1.132  -0.370  1.00  0.00     0.001 A 
HETATM   29  C   UNL     1       0.498   0.949  -0.553  1.00  0.00     0.010 A 
ENDBRANCH   2  24
TORSDOF 3
