REMARK  3 active torsions:
REMARK  status: ('A' for Active; 'I' for Inactive)
REMARK    1  A    between atoms: C_9  and  C_10 
REMARK    2  A    between atoms: C_16  and  C_17 
REMARK       I    between atoms: C_17  and  N_18 
REMARK    3  A    between atoms: N_18  and  C_19 
ROOT
HETATM    1  C   UNL     1       1.087   0.051   0.908  1.00  0.00     0.070 C 
HETATM    2  C   UNL     1       2.494   0.034   0.368  1.00  0.00     0.037 A 
HETATM    3  N   UNL     1       3.041   1.279   0.069  1.00  0.00    -0.191 N 
HETATM    4  C   UNL     1       4.340   1.450  -0.250  1.00  0.00     0.735 A 
HETATM    5  N   UNL     1       5.141   0.354  -0.406  1.00  0.00    -0.091 N 
HETATM    6  N   UNL     1       6.419   0.735  -0.580  1.00  0.00     0.012 NA
HETATM    7  N   UNL     1       6.367   2.063  -0.614  1.00  0.00     0.033 NA
HETATM    8  N   UNL     1       5.080   2.521  -0.405  1.00  0.00     0.030 NA
HETATM    9  C   UNL     1       4.701  -1.025  -0.246  1.00  0.00     0.216 A 
HETATM   10  C   UNL     1       3.250  -1.082   0.218  1.00  0.00     0.063 A 
HETATM   11  H   UNL     1       2.471   2.102   0.252  1.00  0.00     0.184 HD
ENDROOT
BRANCH  10  12
HETATM   12  C   UNL     1       2.795  -2.455   0.552  1.00  0.00     0.256 C 
HETATM   13  N   UNL     1       1.658  -2.833  -0.126  1.00  0.00    -0.323 N 
HETATM   14  H   UNL     1       1.308  -2.183  -0.820  1.00  0.00     0.169 HD
HETATM   15  O   UNL     1       3.465  -3.117   1.334  1.00  0.00    -0.267 OA
BRANCH  13  16
HETATM   16  C   UNL     1       0.933  -4.033   0.022  1.00  0.00     0.035 A 
HETATM   17  C   UNL     1       1.309  -5.071   0.876  1.00  0.00     0.029 A 
HETATM   18  C   UNL     1       0.523  -6.223   0.980  1.00  0.00     0.002 A 
HETATM   19  C   UNL     1      -0.650  -6.343   0.239  1.00  0.00     0.000 A 
HETATM   20  C   UNL     1      -1.035  -5.313  -0.615  1.00  0.00     0.002 A 
HETATM   21  C   UNL     1      -0.245  -4.165  -0.726  1.00  0.00     0.029 A 
ENDBRANCH  13  16
ENDBRANCH  10  12
BRANCH   9  22
HETATM   22  C   UNL     1       4.923  -1.764  -1.560  1.00  0.00     0.064 A 
HETATM   23  N   UNL     1       3.956  -1.679  -2.517  1.00  0.00    -0.263 NA
HETATM   24  C   UNL     1       4.187  -2.305  -3.693  1.00  0.00     0.117 A 
HETATM   25  C   UNL     1       5.336  -3.025  -3.971  1.00  0.00     0.019 A 
HETATM   26  C   UNL     1       6.312  -3.110  -2.987  1.00  0.00     0.003 A 
HETATM   27  C   UNL     1       6.109  -2.473  -1.766  1.00  0.00     0.030 A 
ENDBRANCH   9  22
TORSDOF 3
