REMARK  3 active torsions:
REMARK  status: ('A' for Active; 'I' for Inactive)
REMARK    1  A    between atoms: C_9  and  C_10 
REMARK    2  A    between atoms: C_16  and  C_17 
REMARK       I    between atoms: C_17  and  N_18 
REMARK    3  A    between atoms: N_18  and  C_19 
ROOT
HETATM    1  C   UNL     1       1.069   0.141  -0.267  1.00  0.00     0.070 C 
HETATM    2  C   UNL     1       2.522   0.060   0.131  1.00  0.00     0.037 C 
HETATM    3  N   UNL     1       3.156   1.281   0.341  1.00  0.00    -0.191 N 
HETATM    4  C   UNL     1       4.495   1.396   0.470  1.00  0.00     0.735 A 
HETATM    5  N   UNL     1       5.261   0.266   0.541  1.00  0.00    -0.092 N 
HETATM    6  N   UNL     1       6.562   0.590   0.587  1.00  0.00     0.012 NA
HETATM    7  N   UNL     1       6.574   1.920   0.594  1.00  0.00     0.033 NA
HETATM    8  N   UNL     1       5.293   2.435   0.520  1.00  0.00     0.030 NA
HETATM    9  C   UNL     1       4.734  -1.096   0.513  1.00  0.00     0.198 C 
HETATM   10  C   UNL     1       3.235  -1.091   0.224  1.00  0.00     0.062 C 
HETATM   11  H   UNL     1       2.614   2.127   0.179  1.00  0.00     0.184 HD
ENDROOT
BRANCH  10  12
HETATM   12  C   UNL     1       2.671  -2.436  -0.059  1.00  0.00     0.256 C 
HETATM   13  N   UNL     1       1.593  -2.759   0.735  1.00  0.00    -0.322 N 
HETATM   14  H   UNL     1       1.315  -2.088   1.440  1.00  0.00     0.169 HD
HETATM   15  O   UNL     1       3.210  -3.139  -0.902  1.00  0.00    -0.267 OA
BRANCH  13  16
HETATM   16  C   UNL     1       0.826  -3.941   0.663  1.00  0.00     0.052 A 
HETATM   17  C   UNL     1       1.067  -5.005  -0.202  1.00  0.00     0.145 A 
HETATM   18  N   UNL     1       0.301  -6.125  -0.264  1.00  0.00    -0.271 NA
HETATM   19  C   UNL     1      -0.756  -6.190   0.570  1.00  0.00     0.116 A 
HETATM   20  C   UNL     1      -1.083  -5.189   1.467  1.00  0.00     0.021 A 
HETATM   21  C   UNL     1      -0.277  -4.052   1.514  1.00  0.00     0.032 A 
ENDBRANCH  13  16
ENDBRANCH  10  12
BRANCH   9  22
HETATM   22  C   UNL     1       5.057  -1.832   1.812  1.00  0.00    -0.029 A 
HETATM   23  C   UNL     1       4.847  -1.251   3.075  1.00  0.00     0.009 A 
HETATM   24  C   UNL     1       5.140  -1.959   4.241  1.00  0.00     0.001 A 
HETATM   25  C   UNL     1       5.630  -3.261   4.165  1.00  0.00     0.000 A 
HETATM   26  C   UNL     1       5.825  -3.858   2.922  1.00  0.00     0.001 A 
HETATM   27  C   UNL     1       5.539  -3.152   1.753  1.00  0.00     0.009 A 
ENDBRANCH   9  22
TORSDOF 3
