REMARK  7 active torsions:
REMARK  status: ('A' for Active; 'I' for Inactive)
REMARK    1  A    between atoms: C_5  and  N_6 
REMARK    2  A    between atoms: N_6  and  C_9 
REMARK    3  A    between atoms: C_9  and  C_10 
REMARK    4  A    between atoms: C_10  and  C_11 
REMARK    5  A    between atoms: C_10  and  C_13 
REMARK    6  A    between atoms: C_11  and  O_12 
REMARK    7  A    between atoms: C_13  and  C_14 
ROOT
HETATM    1  N   UNL     1       4.064   5.864   2.650  1.00  0.00    -0.066 N 
HETATM    2  H   UNL     1       4.298   5.087   3.298  1.00  0.00     0.278 HD
HETATM    3  H   UNL     1       3.092   6.144   2.885  1.00  0.00     0.278 HD
ENDROOT
BRANCH   1   4
HETATM    4  C   UNL     1       4.986   6.981   2.935  1.00  0.00     0.220 C 
HETATM    5  C   UNL     1       4.764   7.592   4.288  1.00  0.00    -0.021 A 
HETATM    6  C   UNL     1       4.812   8.996   4.215  1.00  0.00    -0.040 A 
HETATM    7  C   UNL     1       4.560   6.947   5.500  1.00  0.00     0.010 A 
HETATM    8  C   UNL     1       4.614   9.786   5.345  1.00  0.00    -0.055 A 
HETATM    9  C   UNL     1       5.109   9.444   2.808  1.00  0.00     0.018 C 
HETATM   10  C   UNL     1       4.674  11.284   5.301  1.00  0.00     0.049 C 
HETATM   11  C   UNL     1       4.402   9.127   6.565  1.00  0.00     0.007 A 
HETATM   12  C   UNL     1       4.375   7.727   6.642  1.00  0.00     0.001 A 
HETATM   13  C   UNL     1       4.704   8.185   2.017  1.00  0.00     0.047 C 
HETATM   14  C   UNL     1       6.578   9.803   2.617  1.00  0.00     0.015 C 
ENDBRANCH   1   4
BRANCH   1  15
HETATM   15  C   UNL     1       4.055   5.278   1.284  1.00  0.00     0.240 C 
BRANCH  15  16
HETATM   16  C   UNL     1       2.855   4.322   1.115  1.00  0.00     0.040 C 
BRANCH  16  17
HETATM   17  C   UNL     1       1.547   5.128   1.047  1.00  0.00     0.170 C 
BRANCH  17  18
HETATM   18  O   UNL     1       1.450   5.966   2.200  1.00  0.00    -0.400 OA
HETATM   19  H   UNL     1       0.541   6.334   2.198  1.00  0.00     0.209 HD
ENDBRANCH  17  18
ENDBRANCH  16  17
BRANCH  16  20
HETATM   20  C   UNL     1       2.729   3.248   2.220  1.00  0.00     0.067 C 
BRANCH  20  21
HETATM   21  C   UNL     1       4.032   2.569   2.544  1.00  0.00     0.034 A 
HETATM   22  N   UNL     1       4.891   3.274   3.334  1.00  0.00    -0.266 NA
HETATM   23  C   UNL     1       6.066   2.668   3.638  1.00  0.00     0.117 A 
HETATM   24  C   UNL     1       6.438   1.420   3.167  1.00  0.00     0.019 A 
HETATM   25  C   UNL     1       5.553   0.735   2.343  1.00  0.00     0.003 A 
HETATM   26  C   UNL     1       4.329   1.314   2.024  1.00  0.00     0.027 A 
ENDBRANCH  20  21
ENDBRANCH  16  20
ENDBRANCH  15  16
ENDBRANCH   1  15
TORSDOF 7
