REMARK  6 active torsions:
REMARK  status: ('A' for Active; 'I' for Inactive)
REMARK    1  A    between atoms: C_2  and  N_3 
REMARK    2  A    between atoms: C_2  and  C_18 
REMARK    3  A    between atoms: N_3  and  C_6 
REMARK    4  A    between atoms: C_6  and  C_7 
REMARK    5  A    between atoms: C_10  and  N_11 
REMARK       I    between atoms: N_11  and  C_12 
REMARK    6  A    between atoms: C_12  and  O_13 
ROOT
HETATM    1  N   UNL     1       2.628   0.089  -1.292  1.00  0.00    -0.063 N 
HETATM    2  H   UNL     1       2.049   0.755  -1.818  1.00  0.00     0.278 HD
HETATM    3  H   UNL     1       3.589   0.446  -1.391  1.00  0.00     0.278 HD
ENDROOT
BRANCH   1   4
HETATM    4  C   UNL     1       2.258   0.111   0.161  1.00  0.00     0.216 C 
HETATM    5  C   UNL     1       0.737   0.059   0.301  1.00  0.00     0.045 C 
BRANCH   4   6
HETATM    6  C   UNL     1       2.841   1.326   0.840  1.00  0.00    -0.009 A 
HETATM    7  C   UNL     1       3.704   1.174   1.923  1.00  0.00     0.126 A 
HETATM    8  N   UNL     1       4.307   2.171   2.590  1.00  0.00    -0.259 NA
HETATM    9  C   UNL     1       4.024   3.433   2.171  1.00  0.00     0.074 A 
HETATM   10  C   UNL     1       3.165   3.692   1.105  1.00  0.00     0.034 A 
HETATM   11  C   UNL     1       4.546   4.629   2.740  1.00  0.00     0.040 A 
HETATM   12  S   UNL     1       3.014   5.381   0.824  1.00  0.00    -0.100 SA
HETATM   13  C   UNL     1       2.553   2.631   0.417  1.00  0.00     0.032 A 
HETATM   14  C   UNL     1       4.081   5.759   2.106  1.00  0.00     0.053 A 
ENDBRANCH   4   6
ENDBRANCH   1   4
BRANCH   1  15
HETATM   15  C   UNL     1       2.576  -1.236  -1.972  1.00  0.00     0.271 C 
BRANCH  15  16
HETATM   16  C   UNL     1       2.968  -1.095  -3.415  1.00  0.00    -0.033 A 
HETATM   17  C   UNL     1       4.317  -1.082  -3.790  1.00  0.00     0.011 A 
HETATM   18  C   UNL     1       4.688  -0.892  -5.128  1.00  0.00     0.030 A 
HETATM   19  C   UNL     1       3.723  -0.708  -6.117  1.00  0.00     0.036 A 
HETATM   20  C   UNL     1       2.373  -0.729  -5.740  1.00  0.00     0.030 A 
HETATM   21  C   UNL     1       1.996  -0.914  -4.405  1.00  0.00     0.011 A 
BRANCH  19  22
HETATM   22  N   UNL     1       3.991  -0.505  -7.480  1.00  0.00    -0.303 N 
HETATM   23  C   UNL     1       5.157  -0.377  -8.187  1.00  0.00     0.364 C 
HETATM   24  O   UNL     1       5.120  -0.212  -9.402  1.00  0.00    -0.238 OA
HETATM   25  H   UNL     1       3.197  -0.426  -8.105  1.00  0.00     0.171 HD
BRANCH  23  26
HETATM   26  O   UNL     1       6.298  -0.428  -7.458  1.00  0.00    -0.309 OA
HETATM   27  C   UNL     1       7.491  -0.281  -8.231  1.00  0.00     0.215 C 
ENDBRANCH  23  26
ENDBRANCH  19  22
ENDBRANCH  15  16
ENDBRANCH   1  15
TORSDOF 6
