REMARK  3 active torsions:
REMARK  status: ('A' for Active; 'I' for Inactive)
REMARK    1  A    between atoms: C_3  and  N_4 
REMARK    2  A    between atoms: C_14  and  N_15 
REMARK       I    between atoms: N_15  and  C_16 
REMARK    3  A    between atoms: C_16  and  C_17 
ROOT
HETATM    1  N   UNL     1       2.678   2.416  -0.177  1.00  0.00    -0.237 N 
HETATM    2  N   UNL     1       1.384   2.554  -0.579  1.00  0.00    -0.179 NA
HETATM    3  C   UNL     1       1.120   3.855  -0.519  1.00  0.00     0.150 A 
HETATM    4  C   UNL     1       2.214   4.600  -0.069  1.00  0.00     0.008 A 
HETATM    5  C   UNL     1       3.215   3.666   0.123  1.00  0.00     0.047 A 
HETATM    6  C   UNL     1       4.629   4.008   0.474  1.00  0.00     0.069 C 
HETATM    7  C   UNL     1       4.932   5.515   0.195  1.00  0.00    -0.040 C 
HETATM    8  C   UNL     1       5.174   5.749  -1.309  1.00  0.00     0.015 C 
HETATM    9  C   UNL     1       6.217   5.906   0.950  1.00  0.00     0.015 C 
HETATM   10  C   UNL     1       3.760   6.405   0.709  1.00  0.00     0.039 C 
HETATM   11  C   UNL     1       2.390   6.073   0.070  1.00  0.00     0.122 C 
ENDROOT
BRANCH  11  12
HETATM   12  N   UNL     1       1.309   6.584   0.888  1.00  0.00    -0.347 N 
HETATM   13  C   UNL     1       0.931   7.900   0.816  1.00  0.00     0.270 C 
HETATM   14  O   UNL     1       1.414   8.706   0.025  1.00  0.00    -0.266 OA
HETATM   15  H   UNL     1       0.964   5.992   1.629  1.00  0.00     0.163 HD
BRANCH  13  16
HETATM   16  C   UNL     1      -0.115   8.330   1.779  1.00  0.00     0.120 A 
HETATM   17  N   UNL     1      -0.544   9.639   1.811  1.00  0.00    -0.303 N 
HETATM   18  C   UNL     1      -1.525   9.786   2.792  1.00  0.00     0.324 A 
HETATM   19  H   UNL     1      -0.201  10.372   1.208  1.00  0.00     0.171 HD
HETATM   20  O   UNL     1      -2.131  10.793   3.104  1.00  0.00    -0.247 OA
HETATM   21  N   UNL     1      -1.660   8.505   3.345  1.00  0.00    -0.316 N 
HETATM   22  C   UNL     1      -0.797   7.643   2.711  1.00  0.00     0.128 A 
HETATM   23  H   UNL     1      -2.308   8.291   4.088  1.00  0.00     0.170 HD
ENDBRANCH  13  16
ENDBRANCH  11  12
BRANCH   1  24
HETATM   24  C   UNL     1       3.272   1.114  -0.086  1.00  0.00     0.064 A 
HETATM   25  C   UNL     1       2.823   0.027  -0.878  1.00  0.00    -0.033 A 
HETATM   26  C   UNL     1       1.736   0.124  -1.917  1.00  0.00     0.050 C 
HETATM   27  C   UNL     1       3.434  -1.234  -0.714  1.00  0.00     0.009 A 
HETATM   28  C   UNL     1       4.471  -1.425   0.195  1.00  0.00     0.001 A 
HETATM   29  C   UNL     1       4.909  -0.362   0.971  1.00  0.00     0.002 A 
HETATM   30  C   UNL     1       4.311   0.894   0.837  1.00  0.00     0.032 A 
ENDBRANCH   1  24
TORSDOF 3
