REMARK  6 active torsions:
REMARK  status: ('A' for Active; 'I' for Inactive)
REMARK    1  A    between atoms: N_2  and  C_4 
REMARK    2  A    between atoms: N_2  and  C_16 
REMARK    3  A    between atoms: C_4  and  C_5 
REMARK       I    between atoms: C_5  and  N_6 
REMARK    4  A    between atoms: N_6  and  C_7 
REMARK    5  A    between atoms: C_16  and  C_17 
REMARK    6  A    between atoms: C_18  and  C_19 
ROOT
HETATM    1  C   UNL     1       0.702   1.362  -0.218  1.00  0.00     0.270 C 
HETATM    2  N   UNL     1       2.093   0.836   0.000  1.00  0.00    -0.063 N 
HETATM    3  H   UNL     1       2.028   0.123   0.737  1.00  0.00     0.280 HD
ENDROOT
BRANCH   2   4
HETATM    4  C   UNL     1       2.647   0.112  -1.238  1.00  0.00     0.337 C 
BRANCH   4   5
HETATM    5  C   UNL     1       2.923   0.991  -2.455  1.00  0.00     0.248 C 
HETATM    6  N   UNL     1       3.315   0.473  -3.653  1.00  0.00    -0.326 N 
HETATM    7  H   UNL     1       3.427   1.219  -4.338  1.00  0.00     0.169 HD
HETATM    8  O   UNL     1       2.791   2.217  -2.378  1.00  0.00    -0.271 OA
BRANCH   6   9
HETATM    9  C   UNL     1       3.577  -0.824  -4.136  1.00  0.00     0.040 A 
HETATM   10  C   UNL     1       3.542  -2.002  -3.391  1.00  0.00     0.072 A 
HETATM   11  C   UNL     1       3.812  -3.230  -4.006  1.00  0.00     0.121 A 
HETATM   12  F   UNL     1       3.763  -4.344  -3.263  1.00  0.00    -0.206 F 
HETATM   13  C   UNL     1       4.127  -3.321  -5.350  1.00  0.00     0.084 A 
HETATM   14  C   UNL     1       4.175  -2.152  -6.087  1.00  0.00     0.121 A 
HETATM   15  F   UNL     1       4.480  -2.202  -7.389  1.00  0.00    -0.206 F 
HETATM   16  C   UNL     1       3.907  -0.916  -5.497  1.00  0.00     0.072 A 
ENDBRANCH   6   9
ENDBRANCH   4   5
ENDBRANCH   2   4
BRANCH   2  17
HETATM   17  C   UNL     1       3.034   1.894   0.543  1.00  0.00     0.277 C 
BRANCH  17  18
HETATM   18  C   UNL     1       2.777   2.210   1.974  1.00  0.00     0.016 A 
HETATM   19  C   UNL     1       3.153   1.505   3.158  1.00  0.00     0.103 A 
HETATM   20  N   UNL     1       2.713   2.138   4.253  1.00  0.00    -0.173 NA
HETATM   21  N   UNL     1       2.112   3.242   3.804  1.00  0.00    -0.288 N 
HETATM   22  H   UNL     1       1.726   3.894   4.485  1.00  0.00     0.188 HD
HETATM   23  C   UNL     1       2.103   3.325   2.445  1.00  0.00     0.120 A 
BRANCH  19  24
HETATM   24  C   UNL     1       3.915   0.210   3.310  1.00  0.00     0.035 A 
HETATM   25  S   UNL     1       4.485  -0.779   2.040  1.00  0.00    -0.100 SA
HETATM   26  C   UNL     1       5.175  -1.908   3.120  1.00  0.00     0.050 A 
HETATM   27  C   UNL     1       4.967  -1.550   4.432  1.00  0.00     0.008 A 
HETATM   28  C   UNL     1       4.237  -0.331   4.541  1.00  0.00     0.022 A 
ENDBRANCH  19  24
ENDBRANCH  17  18
ENDBRANCH   2  17
TORSDOF 6
