REMARK  9 active torsions:
REMARK  status: ('A' for Active; 'I' for Inactive)
REMARK    1  A    between atoms: C_2  and  N_3 
REMARK    2  A    between atoms: C_2  and  C_23 
REMARK       I    between atoms: N_3  and  C_4 
REMARK       I    between atoms: C_4  and  N_5 
REMARK    3  A    between atoms: N_5  and  C_6 
REMARK    4  A    between atoms: C_6  and  C_7 
REMARK    5  A    between atoms: C_7  and  N_8 
REMARK    6  A    between atoms: C_7  and  C_14 
REMARK    7  A    between atoms: C_16  and  O_17 
REMARK    8  A    between atoms: C_23  and  C_24 
REMARK    9  A    between atoms: C_27  and  O_28 
ROOT
HETATM    1  N   UNL     1      -2.393   6.590   0.840  1.00  0.00    -0.339 N 
HETATM    2  C   UNL     1      -1.289   5.794   0.848  1.00  0.00     0.316 C 
HETATM    3  N   UNL     1      -1.583   4.491   0.580  1.00  0.00    -0.341 N 
HETATM    4  O   UNL     1      -0.137   6.157   1.051  1.00  0.00    -0.248 OA
HETATM    5  H   UNL     1      -3.276   6.100   0.896  1.00  0.00     0.164 HD
HETATM    6  H   UNL     1      -2.500   4.280   0.203  1.00  0.00     0.164 HD
ENDROOT
BRANCH   3   7
HETATM    7  C   UNL     1      -0.632   3.400   0.754  1.00  0.00     0.162 C 
BRANCH   7   8
HETATM    8  C   UNL     1       0.521   3.298  -0.294  1.00  0.00     0.238 C 
BRANCH   8   9
HETATM    9  N   UNL     1       1.527   4.433  -0.139  1.00  0.00    -0.061 N 
HETATM   10  H   UNL     1       0.965   5.303  -0.043  1.00  0.00     0.280 HD
HETATM   11  C   UNL     1       2.518   4.621  -1.272  1.00  0.00     0.236 C 
HETATM   12  C   UNL     1       3.875   4.352  -0.653  1.00  0.00     0.029 C 
HETATM   13  C   UNL     1       3.715   4.875   0.756  1.00  0.00     0.029 C 
HETATM   14  C   UNL     1       2.342   4.367   1.147  1.00  0.00     0.236 C 
ENDBRANCH   8   9
BRANCH   8  15
HETATM   15  C   UNL     1      -0.056   3.107  -1.689  1.00  0.00    -0.023 A 
HETATM   16  C   UNL     1      -0.154   1.799  -2.210  1.00  0.00     0.046 A 
HETATM   17  C   UNL     1      -0.685   1.571  -3.480  1.00  0.00     0.068 A 
HETATM   18  C   UNL     1      -1.108   2.657  -4.246  1.00  0.00     0.037 A 
HETATM   19  C   UNL     1      -1.032   3.955  -3.742  1.00  0.00     0.003 A 
HETATM   20  C   UNL     1      -0.518   4.181  -2.466  1.00  0.00     0.009 A 
BRANCH  17  21
HETATM   21  O   UNL     1      -0.827   0.353  -4.081  1.00  0.00    -0.356 OA
HETATM   22  C   UNL     1      -0.655  -0.802  -3.268  1.00  0.00     0.210 C 
ENDBRANCH  17  21
ENDBRANCH   8  15
ENDBRANCH   7   8
ENDBRANCH   3   7
BRANCH   1  23
HETATM   23  C   UNL     1      -2.444   7.925   1.451  1.00  0.00     0.086 C 
HETATM   24  C   UNL     1      -1.374   8.880   0.925  1.00  0.00     0.032 C 
BRANCH  23  25
HETATM   25  C   UNL     1      -2.410   7.847   2.995  1.00  0.00     0.063 C 
BRANCH  25  26
HETATM   26  C   UNL     1      -3.578   7.065   3.559  1.00  0.00    -0.056 A 
HETATM   27  C   UNL     1      -3.401   5.761   4.045  1.00  0.00     0.010 A 
HETATM   28  C   UNL     1      -4.487   5.032   4.535  1.00  0.00     0.037 A 
HETATM   29  C   UNL     1      -5.753   5.607   4.535  1.00  0.00     0.065 A 
HETATM   30  C   UNL     1      -5.949   6.897   4.060  1.00  0.00     0.037 A 
HETATM   31  C   UNL     1      -4.863   7.628   3.576  1.00  0.00     0.010 A 
BRANCH  29  32
HETATM   32  O   UNL     1      -6.844   4.932   4.997  1.00  0.00    -0.361 OA
HETATM   33  H   UNL     1      -6.556   4.096   5.400  1.00  0.00     0.217 HD
ENDBRANCH  29  32
ENDBRANCH  25  26
ENDBRANCH  23  25
ENDBRANCH   1  23
TORSDOF 9
