REMARK  7 active torsions:
REMARK  status: ('A' for Active; 'I' for Inactive)
REMARK    1  A    between atoms: C_7  and  C_8 
REMARK    2  A    between atoms: C_8  and  N_9 
REMARK    3  A    between atoms: C_13  and  C_14 
REMARK    4  A    between atoms: C_14  and  C_15 
REMARK    5  A    between atoms: C_15  and  C_16 
REMARK    6  A    between atoms: N_26  and  C_27 
REMARK    7  A    between atoms: C_27  and  C_28 
ROOT
HETATM    1  C   UNL     1       4.836  -5.102   3.501  1.00  0.00     0.123 C 
HETATM    2  N   UNL     1       4.623  -6.087   4.549  1.00  0.00    -0.324 N 
HETATM    3  C   UNL     1       4.728  -5.565   5.818  1.00  0.00     0.326 C 
HETATM    4  O   UNL     1       4.743  -6.237   6.831  1.00  0.00    -0.247 OA
HETATM    5  N   UNL     1       4.771  -4.214   5.715  1.00  0.00    -0.268 N 
HETATM    6  C   UNL     1       4.735  -3.849   4.406  1.00  0.00     0.257 C 
HETATM    7  O   UNL     1       4.651  -2.699   3.995  1.00  0.00    -0.270 OA
HETATM    8  H   UNL     1       4.765  -7.088   4.434  1.00  0.00     0.165 HD
ENDROOT
BRANCH   1   9
HETATM    9  C   UNL     1       3.732  -5.220   2.399  1.00  0.00     0.027 C 
HETATM   10  C   UNL     1       3.775  -4.218   1.236  1.00  0.00     0.035 C 
HETATM   11  C   UNL     1       3.179  -2.841   1.496  1.00  0.00     0.235 C 
HETATM   12  N   UNL     1       1.877  -2.872   2.261  1.00  0.00    -0.067 N 
HETATM   13  H   UNL     1       1.139  -3.038   1.566  1.00  0.00     0.280 HD
HETATM   14  C   UNL     1       1.730  -3.917   3.335  1.00  0.00     0.235 C 
HETATM   15  C   UNL     1       2.280  -5.264   2.909  1.00  0.00     0.035 C 
BRANCH  12  16
HETATM   16  C   UNL     1       1.568  -1.507   2.874  1.00  0.00     0.277 C 
BRANCH  16  17
HETATM   17  C   UNL     1       1.463  -0.392   1.905  1.00  0.00     0.011 A 
HETATM   18  C   UNL     1       0.343   0.105   1.251  1.00  0.00     0.035 A 
HETATM   19  C   UNL     1      -1.085  -0.303   1.315  1.00  0.00     0.070 C 
HETATM   20  N   UNL     1       0.785   1.191   0.529  1.00  0.00    -0.278 N 
HETATM   21  C   UNL     1       0.015   2.144  -0.239  1.00  0.00     0.179 C 
HETATM   22  N   UNL     1       2.110   1.389   0.642  1.00  0.00    -0.185 NA
HETATM   23  C   UNL     1       2.511   0.466   1.506  1.00  0.00     0.149 A 
ENDBRANCH  16  17
ENDBRANCH  12  16
ENDBRANCH   1   9
BRANCH   1  24
HETATM   24  C   UNL     1       6.318  -5.123   3.010  1.00  0.00     0.082 C 
BRANCH  24  25
HETATM   25  C   UNL     1       6.764  -6.019   1.866  1.00  0.00    -0.034 A 
HETATM   26  C   UNL     1       6.681  -7.422   1.849  1.00  0.00     0.040 A 
HETATM   27 CL   UNL     1       5.989  -8.339   3.131  1.00  0.00    -0.084 Cl
HETATM   28  C   UNL     1       7.210  -8.160   0.781  1.00  0.00     0.024 A 
HETATM   29  C   UNL     1       7.854  -7.520  -0.275  1.00  0.00     0.002 A 
HETATM   30  C   UNL     1       7.970  -6.137  -0.269  1.00  0.00     0.001 A 
HETATM   31  C   UNL     1       7.433  -5.397   0.788  1.00  0.00     0.009 A 
ENDBRANCH  24  25
ENDBRANCH   1  24
BRANCH   5  32
HETATM   32  C   UNL     1       4.826  -3.302   6.837  1.00  0.00     0.141 C 
BRANCH  32  33
HETATM   33  C   UNL     1       6.247  -2.914   7.116  1.00  0.00     0.004 A 
HETATM   34  C   UNL     1       6.958  -1.877   6.281  1.00  0.00     0.007 A 
HETATM   35  C   UNL     1       6.562  -1.558   7.696  1.00  0.00     0.007 A 
ENDBRANCH  32  33
ENDBRANCH   5  32
TORSDOF 7
