REMARK  9 active torsions:
REMARK  status: ('A' for Active; 'I' for Inactive)
REMARK    1  A    between atoms: O_2  and  C_3 
REMARK    2  A    between atoms: C_3  and  C_4 
REMARK    3  A    between atoms: C_4  and  O_5 
REMARK    4  A    between atoms: O_5  and  C_6 
REMARK       I    between atoms: C_6  and  N_8 
REMARK    5  A    between atoms: N_15  and  C_28 
REMARK    6  A    between atoms: N_18  and  C_19 
REMARK    7  A    between atoms: C_19  and  C_20 
REMARK    8  A    between atoms: C_24  and  O_25 
REMARK    9  A    between atoms: C_31  and  C_34 
ROOT
HETATM    1  C   UNL     1       6.960  -2.116  -2.205  1.00  0.00     0.362 C 
HETATM    2  O   UNL     1       5.859  -1.582  -2.125  1.00  0.00    -0.238 OA
HETATM    3  N   UNL     1       7.149  -3.502  -2.281  1.00  0.00    -0.328 N 
HETATM    4  C   UNL     1       8.442  -4.012  -2.725  1.00  0.00     0.130 C 
HETATM    5  C   UNL     1       8.578  -5.527  -2.651  1.00  0.00     0.053 C 
HETATM    6  C   UNL     1       7.375  -6.293  -3.234  1.00  0.00     0.057 C 
HETATM    7  C   UNL     1       6.085  -5.763  -2.595  1.00  0.00     0.053 C 
HETATM    8  C   UNL     1       5.945  -4.251  -2.608  1.00  0.00     0.130 C 
HETATM    9  C   UNL     1       7.525  -7.799  -2.869  1.00  0.00     0.165 C 
HETATM   10  N   UNL     1       7.946  -8.469  -4.081  1.00  0.00    -0.297 N 
HETATM   11  C   UNL     1       7.854  -7.593  -5.175  1.00  0.00     0.326 C 
HETATM   12  O   UNL     1       8.076  -7.826  -6.354  1.00  0.00    -0.247 OA
HETATM   13  N   UNL     1       7.399  -6.353  -4.703  1.00  0.00    -0.318 N 
ENDROOT
BRANCH  13  14
HETATM   14  C   UNL     1       7.057  -5.291  -5.643  1.00  0.00     0.167 C 
BRANCH  14  15
HETATM   15  C   UNL     1       5.602  -5.273  -6.065  1.00  0.00    -0.037 A 
HETATM   16  C   UNL     1       4.944  -6.435  -6.489  1.00  0.00     0.009 A 
HETATM   17  C   UNL     1       3.616  -6.384  -6.911  1.00  0.00     0.003 A 
HETATM   18  C   UNL     1       2.931  -5.170  -6.914  1.00  0.00     0.037 A 
HETATM   19  C   UNL     1       3.567  -3.999  -6.506  1.00  0.00     0.068 A 
HETATM   20  C   UNL     1       4.906  -4.050  -6.113  1.00  0.00     0.045 A 
BRANCH  19  21
HETATM   21  O   UNL     1       2.791  -2.874  -6.549  1.00  0.00    -0.356 OA
HETATM   22  C   UNL     1       3.298  -1.724  -5.880  1.00  0.00     0.210 C 
ENDBRANCH  19  21
ENDBRANCH  14  15
ENDBRANCH  13  14
BRANCH  10  23
HETATM   23  C   UNL     1       8.128  -9.881  -4.147  1.00  0.00     0.039 A 
HETATM   24  C   UNL     1       8.270 -10.555  -5.365  1.00  0.00     0.030 A 
HETATM   25  C   UNL     1       8.355 -11.954  -5.424  1.00  0.00     0.014 A 
HETATM   26  C   UNL     1       8.317 -12.722  -4.260  1.00  0.00    -0.023 A 
HETATM   27  C   UNL     1       8.223 -12.060  -3.033  1.00  0.00     0.014 A 
HETATM   28  C   UNL     1       8.126 -10.660  -2.980  1.00  0.00     0.030 A 
BRANCH  26  29
HETATM   29  C   UNL     1       8.360 -14.171  -4.315  1.00  0.00     0.010 A 
HETATM   30  C   UNL     1       8.921 -15.119  -3.430  1.00  0.00     0.152 A 
HETATM   31  N   UNL     1       8.715 -16.379  -3.823  1.00  0.00    -0.187 NA
HETATM   32  N   UNL     1       8.018 -16.242  -4.962  1.00  0.00    -0.289 N 
HETATM   33  H   UNL     1       7.731 -17.081  -5.455  1.00  0.00     0.188 HD
HETATM   34  C   UNL     1       7.776 -14.942  -5.299  1.00  0.00     0.123 A 
ENDBRANCH  26  29
ENDBRANCH  10  23
BRANCH   1  35
HETATM   35  O   UNL     1       8.125  -1.420  -2.308  1.00  0.00    -0.302 OA
BRANCH  35  36
HETATM   36  C   UNL     1       7.981  -0.013  -2.548  1.00  0.00     0.207 C 
BRANCH  36  37
HETATM   37  C   UNL     1       7.788   0.778  -1.260  1.00  0.00     0.193 C 
BRANCH  37  38
HETATM   38  O   UNL     1       7.764   2.170  -1.581  1.00  0.00    -0.394 OA
HETATM   39  C   UNL     1       7.607   2.977  -0.423  1.00  0.00     0.201 C 
ENDBRANCH  37  38
ENDBRANCH  36  37
ENDBRANCH  35  36
ENDBRANCH   1  35
TORSDOF 9
