REMARK  8 active torsions:
REMARK  status: ('A' for Active; 'I' for Inactive)
REMARK    1  A    between atoms: O_2  and  C_3 
REMARK    2  A    between atoms: C_6  and  C_7 
REMARK    3  A    between atoms: C_7  and  N_8 
REMARK    4  A    between atoms: C_7  and  C_27 
REMARK    5  A    between atoms: N_8  and  C_11 
REMARK    6  A    between atoms: C_11  and  C_12 
REMARK       I    between atoms: C_12  and  N_13 
REMARK    7  A    between atoms: N_13  and  C_14 
REMARK    8  A    between atoms: C_17  and  N_18 
ROOT
HETATM    1  N   UNL     1       4.657   5.929  -1.450  1.00  0.00    -0.055 N 
HETATM    2  H   UNL     1       5.579   5.583  -1.140  1.00  0.00     0.278 HD
HETATM    3  H   UNL     1       4.825   6.708  -2.088  1.00  0.00     0.278 HD
ENDROOT
BRANCH   1   4
HETATM    4  C   UNL     1       4.015   4.778  -2.180  1.00  0.00     0.252 C 
BRANCH   4   5
HETATM    5  C   UNL     1       4.857   4.290  -3.348  1.00  0.00    -0.023 A 
HETATM    6  C   UNL     1       5.074   2.908  -3.508  1.00  0.00     0.012 A 
HETATM    7  C   UNL     1       5.787   2.408  -4.604  1.00  0.00     0.037 A 
HETATM    8  C   UNL     1       6.292   3.278  -5.565  1.00  0.00     0.068 A 
HETATM    9  C   UNL     1       6.110   4.651  -5.402  1.00  0.00     0.037 A 
HETATM   10  C   UNL     1       5.394   5.157  -4.312  1.00  0.00     0.012 A 
BRANCH   8  11
HETATM   11  O   UNL     1       6.981   2.918  -6.687  1.00  0.00    -0.356 OA
HETATM   12  C   UNL     1       6.853   1.561  -7.101  1.00  0.00     0.210 C 
ENDBRANCH   8  11
ENDBRANCH   4   5
BRANCH   4  13
HETATM   13  C   UNL     1       2.572   5.059  -2.566  1.00  0.00    -0.023 A 
HETATM   14  C   UNL     1       1.557   4.185  -2.135  1.00  0.00     0.009 A 
HETATM   15  C   UNL     1       0.222   4.426  -2.464  1.00  0.00     0.001 A 
HETATM   16  C   UNL     1      -0.119   5.539  -3.227  1.00  0.00     0.000 A 
HETATM   17  C   UNL     1       0.873   6.411  -3.667  1.00  0.00     0.001 A 
HETATM   18  C   UNL     1       2.210   6.175  -3.342  1.00  0.00     0.009 A 
ENDBRANCH   4  13
ENDBRANCH   1   4
BRANCH   1  19
HETATM   19  C   UNL     1       3.932   6.399  -0.207  1.00  0.00     0.336 C 
BRANCH  19  20
HETATM   20  C   UNL     1       3.872   5.277   0.828  1.00  0.00     0.248 C 
HETATM   21  N   UNL     1       2.619   5.047   1.358  1.00  0.00    -0.326 N 
HETATM   22  H   UNL     1       1.846   5.637   1.068  1.00  0.00     0.169 HD
HETATM   23  O   UNL     1       4.892   4.611   0.996  1.00  0.00    -0.271 OA
BRANCH  21  24
HETATM   24  C   UNL     1       2.253   3.967   2.193  1.00  0.00     0.034 A 
HETATM   25  C   UNL     1       3.161   3.082   2.765  1.00  0.00     0.032 A 
HETATM   26  C   UNL     1       2.714   1.991   3.527  1.00  0.00     0.032 A 
HETATM   27  C   UNL     1       1.353   1.744   3.730  1.00  0.00     0.037 A 
HETATM   28  C   UNL     1       0.450   2.668   3.186  1.00  0.00     0.032 A 
HETATM   29  C   UNL     1       0.892   3.768   2.435  1.00  0.00     0.032 A 
BRANCH  27  30
HETATM   30  N   UNL     1       0.893   0.599   4.439  1.00  0.00    -0.318 N 
HETATM   31  C   UNL     1       1.686  -0.472   4.889  1.00  0.00     0.224 C 
HETATM   32  O   UNL     1       2.898  -0.611   4.837  1.00  0.00    -0.273 OA
HETATM   33  C   UNL     1       0.762  -1.547   5.410  1.00  0.00     0.105 C 
HETATM   34  C   UNL     1      -0.539  -0.808   5.646  1.00  0.00     0.029 C 
HETATM   35  C   UNL     1      -0.510   0.299   4.614  1.00  0.00     0.133 C 
ENDBRANCH  27  30
ENDBRANCH  21  24
ENDBRANCH  19  20
ENDBRANCH   1  19
TORSDOF 8
