REMARK  2 active torsions:
REMARK  status: ('A' for Active; 'I' for Inactive)
REMARK    1  A    between atoms: C_4  and  N_5 
REMARK    2  A    between atoms: C_12  and  C_13 
ROOT
HETATM    1  N   UNL     1       2.867   0.088  -0.196  1.00  0.00    -0.236 N 
HETATM    2  N   UNL     1       3.639   1.235  -0.484  1.00  0.00    -0.179 NA
HETATM    3  C   UNL     1       4.959   0.827  -0.458  1.00  0.00     0.119 A 
HETATM    4  C   UNL     1       5.076  -0.494  -0.244  1.00  0.00     0.123 A 
HETATM    5  C   UNL     1       3.715  -1.022  -0.057  1.00  0.00     0.280 A 
HETATM    6  O   UNL     1       3.444  -2.186   0.182  1.00  0.00    -0.265 OA
HETATM    7  N   UNL     1       6.065   1.623  -0.587  1.00  0.00    -0.344 N 
HETATM    8  C   UNL     1       7.343   1.095  -0.586  1.00  0.00     0.047 A 
HETATM    9  C   UNL     1       7.566  -0.216  -0.376  1.00  0.00     0.086 A 
HETATM   10  C   UNL     1       6.397  -1.123  -0.171  1.00  0.00     0.193 A 
HETATM   11  O   UNL     1       6.578  -2.314   0.040  1.00  0.00    -0.287 OA
HETATM   12  H   UNL     1       3.483   1.983   0.192  1.00  0.00     0.155 HD
HETATM   13  H   UNL     1       5.932   2.554  -0.970  1.00  0.00     0.167 HD
ENDROOT
BRANCH   8  14
HETATM   14  C   UNL     1       8.469   2.026  -0.793  1.00  0.00    -0.009 A 
HETATM   15  C   UNL     1       9.459   1.767  -1.755  1.00  0.00     0.015 A 
HETATM   16  C   UNL     1      10.518   2.660  -1.944  1.00  0.00     0.024 A 
HETATM   17  C   UNL     1      10.592   3.821  -1.177  1.00  0.00     0.034 A 
HETATM   18 CL   UNL     1      11.894   4.919  -1.410  1.00  0.00    -0.084 Cl
HETATM   19  C   UNL     1       9.616   4.096  -0.222  1.00  0.00     0.024 A 
HETATM   20  C   UNL     1       8.558   3.202  -0.032  1.00  0.00     0.015 A 
ENDBRANCH   8  14
BRANCH   1  21
HETATM   21  C   UNL     1       1.461   0.168  -0.110  1.00  0.00     0.055 A 
HETATM   22  C   UNL     1       0.691  -0.939   0.271  1.00  0.00     0.031 A 
HETATM   23  C   UNL     1      -0.701  -0.847   0.373  1.00  0.00     0.002 A 
HETATM   24  C   UNL     1      -1.346   0.353   0.092  1.00  0.00     0.000 A 
HETATM   25  C   UNL     1      -0.601   1.461  -0.298  1.00  0.00     0.002 A 
HETATM   26  C   UNL     1       0.791   1.369  -0.399  1.00  0.00     0.031 A 
ENDBRANCH   1  21
TORSDOF 2
