REMARK  2 active torsions:
REMARK  status: ('A' for Active; 'I' for Inactive)
REMARK    1  A    between atoms: C_5  and  C_6 
REMARK    2  A    between atoms: N_12  and  C_13 
ROOT
HETATM    1  C   UNL     1       6.718   0.250  -0.535  1.00  0.00     0.047 A 
HETATM    2  N   UNL     1       7.456  -0.879  -0.842  1.00  0.00    -0.344 N 
HETATM    3  C   UNL     1       8.800  -0.812  -1.091  1.00  0.00     0.119 A 
HETATM    4  C   UNL     1       9.472   0.344  -0.959  1.00  0.00     0.123 A 
HETATM    5  C   UNL     1      10.891   0.047  -1.210  1.00  0.00     0.280 A 
HETATM    6  O   UNL     1      11.796   0.861  -1.159  1.00  0.00    -0.265 OA
HETATM    7  N   UNL     1      10.936  -1.327  -1.493  1.00  0.00    -0.236 N 
HETATM    8  N   UNL     1       9.628  -1.858  -1.454  1.00  0.00    -0.179 NA
HETATM    9  C   UNL     1       8.775   1.572  -0.570  1.00  0.00     0.193 A 
HETATM   10  O   UNL     1       9.330   2.651  -0.409  1.00  0.00    -0.287 OA
HETATM   11  C   UNL     1       7.299   1.454  -0.376  1.00  0.00     0.086 A 
HETATM   12  H   UNL     1       6.953  -1.697  -1.171  1.00  0.00     0.167 HD
HETATM   13  H   UNL     1       9.540  -2.625  -0.787  1.00  0.00     0.155 HD
ENDROOT
BRANCH   1  14
HETATM   14  C   UNL     1       5.262   0.091  -0.360  1.00  0.00    -0.009 A 
HETATM   15  C   UNL     1       4.356   0.900  -1.058  1.00  0.00     0.014 A 
HETATM   16  C   UNL     1       2.978   0.737  -0.887  1.00  0.00     0.007 A 
HETATM   17  C   UNL     1       2.481  -0.233  -0.011  1.00  0.00    -0.062 A 
HETATM   18  C   UNL     1       1.003  -0.429   0.155  1.00  0.00     0.048 C 
HETATM   19  C   UNL     1       3.382  -1.058   0.671  1.00  0.00     0.007 A 
HETATM   20  C   UNL     1       4.760  -0.894   0.501  1.00  0.00     0.014 A 
ENDBRANCH   1  14
BRANCH   7  21
HETATM   21  C   UNL     1      12.036  -2.144  -1.833  1.00  0.00     0.055 A 
HETATM   22  C   UNL     1      13.347  -1.644  -1.811  1.00  0.00     0.034 A 
HETATM   23  C   UNL     1      14.435  -2.462  -2.137  1.00  0.00     0.044 A 
HETATM   24  C   UNL     1      14.217  -3.785  -2.491  1.00  0.00     0.116 A 
HETATM   25  F   UNL     1      15.257  -4.569  -2.803  1.00  0.00    -0.206 F 
HETATM   26  C   UNL     1      12.931  -4.306  -2.528  1.00  0.00     0.044 A 
HETATM   27  C   UNL     1      11.845  -3.487  -2.202  1.00  0.00     0.034 A 
ENDBRANCH   7  21
TORSDOF 2
