REMARK  3 active torsions:
REMARK  status: ('A' for Active; 'I' for Inactive)
REMARK    1  A    between atoms: C_12  and  C_13 
REMARK    2  A    between atoms: C_13  and  N_14 
REMARK       I    between atoms: N_14  and  C_15 
REMARK    3  A    between atoms: C_15  and  C_16 
ROOT
HETATM    1  N   UNL     1       1.020  -2.441  -0.327  1.00  0.00    -0.352 N 
HETATM    2  C   UNL     1       0.255  -2.618   0.797  1.00  0.00     0.254 C 
HETATM    3  O   UNL     1       0.755  -2.823   1.901  1.00  0.00    -0.268 OA
HETATM    4  H   UNL     1       0.555  -2.318  -1.215  1.00  0.00     0.163 HD
ENDROOT
BRANCH   1   5
HETATM    5  C   UNL     1       2.457  -2.564  -0.330  1.00  0.00     0.165 C 
BRANCH   5   6
HETATM    6  C   UNL     1       3.118  -1.259   0.008  1.00  0.00     0.008 C 
HETATM    7  C   UNL     1       3.075  -0.112  -1.008  1.00  0.00     0.043 C 
HETATM    8  C   UNL     1       2.168  -0.245  -2.215  1.00  0.00     0.071 C 
HETATM    9  N   UNL     1       3.735   1.010  -0.928  1.00  0.00    -0.234 NA
HETATM   10  C   UNL     1       4.504   1.117   0.193  1.00  0.00     0.154 C 
HETATM   11  C   UNL     1       5.383   2.106   0.401  1.00  0.00     0.128 C 
HETATM   12  N   UNL     1       4.511   0.211   1.236  1.00  0.00    -0.239 N 
HETATM   13  C   UNL     1       5.988   1.795   1.712  1.00  0.00     0.263 C 
HETATM   14  N   UNL     1       5.519   0.554   2.109  1.00  0.00    -0.258 N 
HETATM   15  O   UNL     1       6.729   2.535   2.334  1.00  0.00    -0.267 OA
HETATM   16  H   UNL     1       5.451   0.337   3.093  1.00  0.00     0.191 HD
HETATM   17  C   UNL     1       3.873  -1.013   1.112  1.00  0.00     0.042 C 
HETATM   18  C   UNL     1       4.081  -1.997   2.236  1.00  0.00     0.071 C 
ENDBRANCH   5   6
ENDBRANCH   1   5
BRANCH   2  19
HETATM   19  C   UNL     1      -1.199  -2.557   0.607  1.00  0.00     0.062 A 
HETATM   20  C   UNL     1      -2.019  -2.443  -0.575  1.00  0.00     0.046 A 
HETATM   21  C   UNL     1      -3.357  -2.449  -0.161  1.00  0.00     0.046 A 
HETATM   22  C   UNL     1      -1.788  -2.343  -1.966  1.00  0.00     0.130 A 
HETATM   23  C   UNL     1      -4.437  -2.361  -1.052  1.00  0.00     0.030 A 
HETATM   24  N   UNL     1      -3.361  -2.556   1.209  1.00  0.00    -0.364 N 
HETATM   25  C   UNL     1      -4.158  -2.263  -2.417  1.00  0.00     0.005 A 
HETATM   26  C   UNL     1      -2.845  -2.253  -2.873  1.00  0.00     0.043 A 
HETATM   27  H   UNL     1      -4.193  -2.585   1.783  1.00  0.00     0.165 HD
HETATM   28  C   UNL     1      -2.081  -2.626   1.675  1.00  0.00     0.106 A 
HETATM   29  F   UNL     1      -0.538  -2.332  -2.453  1.00  0.00    -0.205 F 
ENDBRANCH   2  19
TORSDOF 3
