REMARK  9 active torsions:
REMARK  status: ('A' for Active; 'I' for Inactive)
REMARK    1  A    between atoms: C_2  and  N_3 
REMARK    2  A    between atoms: N_3  and  C_4 
REMARK    3  A    between atoms: C_4  and  N_5 
REMARK    4  A    between atoms: N_8  and  C_10 
REMARK    5  A    between atoms: C_10  and  C_11 
REMARK    6  A    between atoms: C_11  and  N_12 
REMARK    7  A    between atoms: C_13  and  C_14 
REMARK    8  A    between atoms: N_17  and  C_18 
REMARK    9  A    between atoms: C_28  and  C_29 
ROOT
HETATM    1  C   UNL     1       5.767   7.510   2.733  1.00  0.00     0.085 C 
HETATM    2  C   UNL     1       5.855   8.972   2.405  1.00  0.00     0.278 C 
HETATM    3  O   UNL     1       6.197   9.383   1.310  1.00  0.00    -0.265 OA
HETATM    4  N   UNL     1       5.439   9.652   3.541  1.00  0.00    -0.212 N 
HETATM    5  N   UNL     1       5.144   8.726   4.539  1.00  0.00    -0.189 NA
HETATM    6  C   UNL     1       5.262   7.453   3.983  1.00  0.00     0.130 C 
HETATM    7  H   UNL     1       4.323   8.931   5.115  1.00  0.00     0.153 HD
ENDROOT
BRANCH   1   8
HETATM    8  C   UNL     1       6.186   6.384   1.857  1.00  0.00     0.042 C 
HETATM    9  N   UNL     1       5.808   5.177   2.151  1.00  0.00    -0.292 NA
HETATM   10  C   UNL     1       7.041   6.739   0.652  1.00  0.00     0.071 C 
BRANCH   9  11
HETATM   11  C   UNL     1       6.269   4.068   1.305  1.00  0.00     0.176 C 
BRANCH  11  12
HETATM   12  C   UNL     1       5.808   2.740   1.920  1.00  0.00     0.256 C 
BRANCH  12  13
HETATM   13  N   UNL     1       4.370   2.827   2.392  1.00  0.00    -0.066 N 
HETATM   14  C   UNL     1       3.366   2.956   1.249  1.00  0.00     0.254 C 
HETATM   15  C   UNL     1       1.923   2.989   1.792  1.00  0.00     0.153 C 
HETATM   16  N   UNL     1       1.661   1.794   2.607  1.00  0.00    -0.355 N 
HETATM   17  C   UNL     1       2.575   1.683   3.755  1.00  0.00     0.153 C 
HETATM   18  C   UNL     1       4.048   1.658   3.320  1.00  0.00     0.254 C 
HETATM   19  H   UNL     1       4.326   3.710   2.934  1.00  0.00     0.280 HD
BRANCH  16  20
HETATM   20  C   UNL     1       1.114   0.661   1.978  1.00  0.00     0.169 C 
HETATM   21  S   UNL     1       1.778  -0.873   2.059  1.00  0.00    -0.041 SA
BRANCH  20  22
HETATM   22  N   UNL     1      -0.023   0.984   1.261  1.00  0.00    -0.367 N 
HETATM   23  H   UNL     1      -0.520   1.777   1.647  1.00  0.00     0.161 HD
BRANCH  22  24
HETATM   24  C   UNL     1      -0.863   0.030   0.539  1.00  0.00     0.117 C 
HETATM   25  C   UNL     1      -2.102   0.701  -0.025  1.00  0.00     0.026 C 
ENDBRANCH  22  24
ENDBRANCH  20  22
ENDBRANCH  16  20
ENDBRANCH  12  13
ENDBRANCH  11  12
ENDBRANCH   9  11
ENDBRANCH   1   8
BRANCH   6  26
HETATM   26  C   UNL     1       4.882   6.216   4.745  1.00  0.00     0.430 C 
HETATM   27  F   UNL     1       4.239   6.522   5.903  1.00  0.00    -0.165 F 
HETATM   28  F   UNL     1       4.026   5.403   4.055  1.00  0.00    -0.165 F 
HETATM   29  F   UNL     1       5.953   5.453   5.079  1.00  0.00    -0.165 F 
ENDBRANCH   6  26
BRANCH   4  30
HETATM   30  C   UNL     1       5.438  11.013   3.777  1.00  0.00     0.192 A 
HETATM   31  S   UNL     1       5.925  12.104   2.561  1.00  0.00    -0.048 SA
HETATM   32  C   UNL     1       5.711  13.421   3.643  1.00  0.00     0.037 A 
HETATM   33  C   UNL     1       5.249  12.928   4.865  1.00  0.00     0.076 A 
HETATM   34  C   UNL     1       5.941  14.790   3.429  1.00  0.00     0.021 A 
HETATM   35  N   UNL     1       5.074  11.551   4.920  1.00  0.00    -0.222 NA
HETATM   36  C   UNL     1       5.012  13.840   5.914  1.00  0.00     0.033 A 
HETATM   37  C   UNL     1       5.245  15.205   5.715  1.00  0.00     0.002 A 
HETATM   38  C   UNL     1       5.703  15.672   4.487  1.00  0.00     0.002 A 
ENDBRANCH   4  30
TORSDOF 9
