REMARK  7 active torsions:
REMARK  status: ('A' for Active; 'I' for Inactive)
REMARK    1  A    between atoms: O_2  and  C_3 
REMARK    2  A    between atoms: C_4  and  N_5 
REMARK       I    between atoms: N_5  and  C_6 
REMARK    3  A    between atoms: C_6  and  C_7 
REMARK    4  A    between atoms: C_14  and  N_15 
REMARK       I    between atoms: N_15  and  C_16 
REMARK    5  A    between atoms: C_16  and  C_17 
REMARK    6  A    between atoms: C_17  and  C_18 
REMARK    7  A    between atoms: C_18  and  C_19 
ROOT
HETATM    1  C   UNL     1       2.466   1.409  -0.745  1.00  0.00     0.095 A 
HETATM    2  C   UNL     1       2.119   2.763  -0.660  1.00  0.00     0.070 A 
HETATM    3  C   UNL     1       3.100   3.679  -0.237  1.00  0.00     0.062 A 
HETATM    4  C   UNL     1       4.410   3.272   0.038  1.00  0.00     0.037 A 
HETATM    5  C   UNL     1       4.749   1.926  -0.128  1.00  0.00     0.032 A 
HETATM    6  C   UNL     1       3.784   1.001  -0.525  1.00  0.00     0.041 A 
ENDROOT
BRANCH   4   7
HETATM    7  N   UNL     1       5.423   4.132   0.510  1.00  0.00    -0.327 N 
HETATM    8  C   UNL     1       5.367   5.508   0.659  1.00  0.00     0.222 C 
HETATM    9  O   UNL     1       4.437   6.238   0.333  1.00  0.00    -0.273 OA
HETATM   10  H   UNL     1       6.297   3.683   0.756  1.00  0.00     0.169 HD
BRANCH   8  11
HETATM   11  C   UNL     1       6.601   6.075   1.339  1.00  0.00     0.108 C 
BRANCH  11  12
HETATM   12  C   UNL     1       7.873   5.855   0.514  1.00  0.00     0.047 C 
BRANCH  12  13
HETATM   13  C   UNL     1       9.113   5.570   1.332  1.00  0.00    -0.058 A 
HETATM   14  C   UNL     1      10.311   6.233   1.032  1.00  0.00     0.007 A 
HETATM   15  C   UNL     1      11.483   5.944   1.737  1.00  0.00     0.001 A 
HETATM   16  C   UNL     1      11.473   4.985   2.746  1.00  0.00     0.000 A 
HETATM   17  C   UNL     1      10.294   4.308   3.047  1.00  0.00     0.001 A 
HETATM   18  C   UNL     1       9.124   4.590   2.337  1.00  0.00     0.007 A 
ENDBRANCH  12  13
ENDBRANCH  11  12
ENDBRANCH   8  11
ENDBRANCH   4   7
BRANCH   2  19
HETATM   19  N   UNL     1       0.831   3.298  -0.864  1.00  0.00    -0.319 N 
HETATM   20  C   UNL     1      -0.293   2.812  -1.497  1.00  0.00     0.280 C 
HETATM   21  O   UNL     1      -1.376   3.236  -1.081  1.00  0.00    -0.265 OA
HETATM   22  H   UNL     1       0.618   4.147  -0.354  1.00  0.00     0.169 HD
BRANCH  20  23
HETATM   23  C   UNL     1      -0.187   1.967  -2.669  1.00  0.00     0.142 A 
HETATM   24  O   UNL     1      -1.284   1.214  -3.010  1.00  0.00    -0.317 OA
HETATM   25  C   UNL     1      -0.983   0.538  -4.145  1.00  0.00     0.143 A 
HETATM   26  C   UNL     1       0.287   0.847  -4.567  1.00  0.00     0.027 A 
HETATM   27  C   UNL     1       0.796   1.777  -3.627  1.00  0.00     0.045 A 
ENDBRANCH  20  23
ENDBRANCH   2  19
BRANCH   1  28
HETATM   28  O   UNL     1       1.565   0.414  -1.006  1.00  0.00    -0.354 OA
HETATM   29  C   UNL     1       0.904   0.005   0.194  1.00  0.00     0.210 C 
ENDBRANCH   1  28
TORSDOF 7
