REMARK  11 active torsions:
REMARK  status: ('A' for Active; 'I' for Inactive)
REMARK    1  A    between atoms: C_2  and  N_3 
REMARK    2  A    between atoms: N_3  and  C_5 
REMARK    3  A    between atoms: N_3  and  C_12 
REMARK    4  A    between atoms: C_5  and  C_6 
REMARK    5  A    between atoms: C_12  and  C_13 
REMARK    6  A    between atoms: C_13  and  N_14 
REMARK       I    between atoms: N_14  and  C_15 
REMARK    7  A    between atoms: C_15  and  C_16 
REMARK    8  A    between atoms: C_24  and  N_25 
REMARK    9  A    between atoms: N_25  and  C_26 
REMARK   10  A    between atoms: C_27  and  O_28 
REMARK   11  A    between atoms: C_31  and  O_32 
ROOT
HETATM    1  C   UNL     1       4.106  -0.530  -5.918  1.00  0.00     0.048 A 
HETATM    2  C   UNL     1       4.274  -0.289  -7.291  1.00  0.00     0.009 A 
HETATM    3  C   UNL     1       4.906   0.923  -7.620  1.00  0.00     0.070 A 
HETATM    4  C   UNL     1       5.091   1.234  -8.960  1.00  0.00     0.032 A 
HETATM    5  C   UNL     1       4.665   0.381  -9.981  1.00  0.00     0.002 A 
HETATM    6  C   UNL     1       4.045  -0.819  -9.664  1.00  0.00     0.001 A 
HETATM    7  C   UNL     1       3.851  -1.159  -8.327  1.00  0.00     0.015 A 
HETATM    8  N   UNL     1       5.338   1.793  -6.691  1.00  0.00    -0.231 NA
HETATM    9  C   UNL     1       5.157   1.539  -5.381  1.00  0.00     0.129 A 
HETATM   10  C   UNL     1       4.532   0.383  -4.957  1.00  0.00     0.068 A 
ENDROOT
BRANCH   1  11
HETATM   11  C   UNL     1       3.532  -1.787  -5.415  1.00  0.00     0.252 C 
HETATM   12  N   UNL     1       2.247  -1.704  -4.943  1.00  0.00    -0.355 N 
HETATM   13  H   UNL     1       1.807  -0.787  -4.982  1.00  0.00     0.162 HD
HETATM   14  O   UNL     1       4.212  -2.805  -5.392  1.00  0.00    -0.268 OA
BRANCH  12  15
HETATM   15  C   UNL     1       1.568  -2.710  -4.131  1.00  0.00     0.150 C 
BRANCH  15  16
HETATM   16  C   UNL     1       1.743  -4.200  -4.506  1.00  0.00     0.255 C 
BRANCH  16  17
HETATM   17  N   UNL     1       3.134  -4.773  -4.262  1.00  0.00    -0.062 N 
HETATM   18  H   UNL     1       3.743  -4.165  -4.849  1.00  0.00     0.280 HD
BRANCH  17  19
HETATM   19  C   UNL     1       3.691  -4.608  -2.856  1.00  0.00     0.180 C 
HETATM   20  C   UNL     1       5.204  -4.830  -2.838  1.00  0.00     0.039 C 
HETATM   21  C   UNL     1       2.973  -5.508  -1.859  1.00  0.00     0.039 C 
ENDBRANCH  17  19
BRANCH  17  22
HETATM   22  C   UNL     1       3.284  -6.162  -4.852  1.00  0.00     0.273 C 
BRANCH  22  23
HETATM   23  C   UNL     1       3.152  -6.216  -6.351  1.00  0.00    -0.033 A 
HETATM   24  C   UNL     1       4.132  -5.639  -7.174  1.00  0.00     0.009 A 
HETATM   25  C   UNL     1       4.007  -5.686  -8.563  1.00  0.00     0.001 A 
HETATM   26  C   UNL     1       2.904  -6.309  -9.144  1.00  0.00     0.000 A 
HETATM   27  C   UNL     1       1.927  -6.888  -8.338  1.00  0.00     0.001 A 
HETATM   28  C   UNL     1       2.048  -6.845  -6.949  1.00  0.00     0.009 A 
ENDBRANCH  22  23
ENDBRANCH  17  22
ENDBRANCH  16  17
ENDBRANCH  15  16
ENDBRANCH  12  15
ENDBRANCH   1  11
BRANCH   9  29
HETATM   29  N   UNL     1       5.611   2.435  -4.397  1.00  0.00    -0.339 N 
HETATM   30  H   UNL     1       4.863   2.724  -3.772  1.00  0.00     0.167 HD
BRANCH  29  31
HETATM   31  C   UNL     1       6.534   3.492  -4.559  1.00  0.00     0.067 A 
HETATM   32  C   UNL     1       6.330   4.702  -3.875  1.00  0.00     0.097 A 
HETATM   33  C   UNL     1       7.277   5.730  -3.896  1.00  0.00     0.075 A 
HETATM   34  C   UNL     1       8.438   5.575  -4.650  1.00  0.00     0.070 A 
HETATM   35  C   UNL     1       8.631   4.395  -5.375  1.00  0.00     0.039 A 
HETATM   36  C   UNL     1       7.691   3.360  -5.327  1.00  0.00     0.035 A 
BRANCH  32  37
HETATM   37  O   UNL     1       5.181   4.867  -3.133  1.00  0.00    -0.354 OA
HETATM   38  C   UNL     1       4.195   5.530  -3.931  1.00  0.00     0.210 C 
ENDBRANCH  32  37
BRANCH  34  39
HETATM   39  O   UNL     1       9.449   6.488  -4.765  1.00  0.00    -0.356 OA
HETATM   40  C   UNL     1       9.367   7.645  -3.941  1.00  0.00     0.210 C 
ENDBRANCH  34  39
ENDBRANCH  29  31
ENDBRANCH   9  29
TORSDOF 11
