REMARK  9 active torsions:
REMARK  status: ('A' for Active; 'I' for Inactive)
REMARK       I    between atoms: C_2  and  N_3 
REMARK    1  A    between atoms: N_3  and  C_4 
REMARK    2  A    between atoms: C_6  and  O_7 
REMARK    3  A    between atoms: O_7  and  C_8 
REMARK    4  A    between atoms: C_8  and  C_9 
REMARK    5  A    between atoms: C_9  and  C_10 
REMARK    6  A    between atoms: C_10  and  C_11 
REMARK    7  A    between atoms: C_11  and  N_12 
REMARK       I    between atoms: N_12  and  C_13 
REMARK    8  A    between atoms: C_13  and  C_14 
REMARK    9  A    between atoms: C_18  and  C_19 
ROOT
HETATM    1  N   UNL     1      -6.515   1.605   2.549  1.00  0.00    -0.345 N 
HETATM    2  C   UNL     1      -7.839   1.429   2.862  1.00  0.00     0.270 C 
HETATM    3  O   UNL     1      -8.412   2.101   3.713  1.00  0.00    -0.266 OA
HETATM    4  H   UNL     1      -6.111   1.111   1.769  1.00  0.00     0.163 HD
ENDROOT
BRANCH   1   5
HETATM    5  C   UNL     1      -5.742   2.649   3.166  1.00  0.00     0.217 C 
BRANCH   5   6
HETATM    6  C   UNL     1      -4.277   2.449   2.813  1.00  0.00    -0.085 C 
BRANCH   6   7
HETATM    7  C   UNL     1      -3.020   2.277   2.511  1.00  0.00    -0.078 C 
BRANCH   7   8
HETATM    8  C   UNL     1      -1.555   2.077   2.159  1.00  0.00     0.269 C 
BRANCH   8   9
HETATM    9  O   UNL     1      -0.856   3.314   2.258  1.00  0.00    -0.339 OA
BRANCH   9  10
HETATM   10  C   UNL     1       0.456   3.293   1.854  1.00  0.00     0.072 A 
HETATM   11  C   UNL     1       1.141   2.180   1.349  1.00  0.00     0.066 A 
HETATM   12  C   UNL     1       2.476   2.281   0.944  1.00  0.00     0.037 A 
HETATM   13  C   UNL     1       3.130   3.512   1.069  1.00  0.00     0.029 A 
HETATM   14  C   UNL     1       2.458   4.623   1.580  1.00  0.00     0.005 A 
HETATM   15  C   UNL     1       1.124   4.512   1.968  1.00  0.00     0.037 A 
BRANCH  12  16
HETATM   16  N   UNL     1       3.216   1.206   0.405  1.00  0.00    -0.327 N 
HETATM   17  C   UNL     1       2.771  -0.079   0.145  1.00  0.00     0.218 C 
HETATM   18  C   UNL     1       3.846  -0.952  -0.453  1.00  0.00     0.117 C 
HETATM   19  O   UNL     1       1.639  -0.517   0.321  1.00  0.00    -0.274 OA
HETATM   20  H   UNL     1       4.176   1.412   0.158  1.00  0.00     0.169 HD
ENDBRANCH  12  16
ENDBRANCH   9  10
ENDBRANCH   8   9
ENDBRANCH   7   8
ENDBRANCH   6   7
ENDBRANCH   5   6
ENDBRANCH   1   5
BRANCH   2  21
HETATM   21  C   UNL     1      -8.514   0.404   2.113  1.00  0.00     0.120 A 
HETATM   22  N   UNL     1      -9.839   0.132   2.307  1.00  0.00    -0.272 N 
HETATM   23  H   UNL     1     -10.464   0.591   2.963  1.00  0.00     0.189 HD
HETATM   24  N   UNL     1     -10.319  -0.850   1.530  1.00  0.00    -0.174 NA
HETATM   25  C   UNL     1      -9.271  -1.244   0.789  1.00  0.00     0.089 A 
HETATM   26  C   UNL     1      -8.117  -0.484   1.134  1.00  0.00     0.071 A 
BRANCH  25  27
HETATM   27  C   UNL     1      -9.392  -2.315  -0.207  1.00  0.00    -0.005 A 
HETATM   28  C   UNL     1      -8.382  -2.542  -1.158  1.00  0.00     0.017 A 
HETATM   29  C   UNL     1      -8.511  -3.565  -2.103  1.00  0.00     0.043 A 
HETATM   30  C   UNL     1      -9.647  -4.364  -2.101  1.00  0.00     0.116 A 
HETATM   31  F   UNL     1      -9.767  -5.343  -3.008  1.00  0.00    -0.206 F 
HETATM   32  C   UNL     1     -10.660  -4.160  -1.174  1.00  0.00     0.043 A 
HETATM   33  C   UNL     1     -10.533  -3.138  -0.231  1.00  0.00     0.017 A 
ENDBRANCH  25  27
ENDBRANCH   2  21
TORSDOF 9
