REMARK  2 active torsions:
REMARK  status: ('A' for Active; 'I' for Inactive)
REMARK    1  A    between atoms: C_2  and  N_3 
REMARK    2  A    between atoms: N_3  and  C_4 
ROOT
HETATM    1  C   UNL     1       4.770   0.198  -0.011  1.00  0.00     0.143 A 
HETATM    2  N   UNL     1       4.757   1.553  -0.030  1.00  0.00    -0.223 NA
HETATM    3  C   UNL     1       5.910   2.233  -0.007  1.00  0.00     0.236 A 
HETATM    4  N   UNL     1       7.140   1.732   0.038  1.00  0.00    -0.234 NA
HETATM    5  C   UNL     1       7.144   0.391   0.043  1.00  0.00     0.114 A 
HETATM    6  C   UNL     1       6.037  -0.451   0.007  1.00  0.00     0.053 A 
HETATM    7  S   UNL     1       8.626  -0.444   0.107  1.00  0.00    -0.073 SA
HETATM    8  C   UNL     1       7.848  -1.949   0.073  1.00  0.00    -0.008 A 
HETATM    9  C   UNL     1       6.470  -1.841  -0.012  1.00  0.00    -0.028 A 
HETATM   10  C   UNL     1       5.607  -3.072  -0.081  1.00  0.00     0.041 C 
HETATM   11  C   UNL     1       6.411  -4.344  -0.394  1.00  0.00     0.005 C 
HETATM   12  C   UNL     1       7.709  -4.412   0.416  1.00  0.00     0.005 C 
HETATM   13  C   UNL     1       8.628  -3.228   0.090  1.00  0.00     0.047 C 
ENDROOT
BRANCH   1  14
HETATM   14  N   UNL     1       3.565  -0.523   0.004  1.00  0.00    -0.340 N 
HETATM   15  H   UNL     1       3.696  -1.507   0.174  1.00  0.00     0.167 HD
BRANCH  14  16
HETATM   16  C   UNL     1       2.209  -0.139  -0.006  1.00  0.00     0.036 A 
HETATM   17  C   UNL     1       1.769   1.199  -0.094  1.00  0.00     0.032 A 
HETATM   18  C   UNL     1       0.406   1.528  -0.127  1.00  0.00     0.042 A 
HETATM   19  C   UNL     1      -0.504   0.500  -0.082  1.00  0.00     0.105 A 
HETATM   20  C   UNL     1      -0.100  -0.808  -0.009  1.00  0.00     0.107 A 
HETATM   21  O   UNL     1      -1.857   0.626  -0.109  1.00  0.00    -0.323 OA
HETATM   22  C   UNL     1       1.236  -1.156   0.027  1.00  0.00     0.069 A 
HETATM   23  O   UNL     1      -1.147  -1.676   0.017  1.00  0.00    -0.323 OA
HETATM   24  C   UNL     1      -2.259  -0.758  -0.049  1.00  0.00     0.352 A 
ENDBRANCH  14  16
ENDBRANCH   1  14
TORSDOF 2
