REMARK  7 active torsions:
REMARK  status: ('A' for Active; 'I' for Inactive)
REMARK       I    between atoms: N_2  and  C_3 
REMARK    1  A    between atoms: N_2  and  C_17 
REMARK       I    between atoms: C_3  and  N_4 
REMARK    2  A    between atoms: N_4  and  C_5 
REMARK    3  A    between atoms: N_6  and  C_7 
REMARK    4  A    between atoms: C_17  and  C_18 
REMARK    5  A    between atoms: C_18  and  C_19 
REMARK    6  A    between atoms: C_19  and  O_20 
REMARK    7  A    between atoms: C_19  and  C_21 
ROOT
HETATM    1  C   UNL     1       6.320   6.532  -0.656  1.00  0.00     0.154 C 
HETATM    2  N   UNL     1       5.233   5.582  -0.471  1.00  0.00    -0.343 N 
HETATM    3  C   UNL     1       4.393   5.358  -1.566  1.00  0.00     0.301 C 
HETATM    4  N   UNL     1       3.327   4.510  -1.297  1.00  0.00    -0.194 NA
HETATM    5  O   UNL     1       4.589   5.905  -2.650  1.00  0.00    -0.254 OA
HETATM    6  H   UNL     1       2.910   4.771  -0.410  1.00  0.00     0.140 HD
ENDROOT
BRANCH   2   7
HETATM    7  C   UNL     1       5.343   4.667   0.665  1.00  0.00     0.129 C 
BRANCH   7   8
HETATM    8  C   UNL     1       4.928   5.273   2.013  1.00  0.00     0.056 C 
BRANCH   8   9
HETATM    9  C   UNL     1       3.422   5.247   2.325  1.00  0.00     0.152 C 
BRANCH   9  10
HETATM   10  O   UNL     1       2.937   3.924   2.072  1.00  0.00    -0.391 OA
HETATM   11  H   UNL     1       3.286   3.350   2.776  1.00  0.00     0.210 HD
ENDBRANCH   9  10
BRANCH   9  12
HETATM   12  C   UNL     1       2.505   6.239   1.634  1.00  0.00    -0.030 A 
HETATM   13  C   UNL     1       1.118   5.993   1.615  1.00  0.00     0.010 A 
HETATM   14  C   UNL     1       0.227   6.893   1.027  1.00  0.00     0.001 A 
HETATM   15  C   UNL     1       0.705   8.062   0.448  1.00  0.00     0.000 A 
HETATM   16  C   UNL     1       2.070   8.335   0.470  1.00  0.00     0.001 A 
HETATM   17  C   UNL     1       2.960   7.438   1.070  1.00  0.00     0.010 A 
ENDBRANCH   9  12
ENDBRANCH   8   9
ENDBRANCH   7   8
ENDBRANCH   2   7
BRANCH   4  18
HETATM   18  C   UNL     1       2.400   4.330  -2.315  1.00  0.00     0.109 A 
HETATM   19  N   UNL     1       2.589   3.561  -3.450  1.00  0.00    -0.254 N 
HETATM   20  N   UNL     1       1.527   3.640  -4.292  1.00  0.00    -0.183 NA
HETATM   21  C   UNL     1       0.648   4.402  -3.643  1.00  0.00     0.142 A 
HETATM   22  C   UNL     1       1.118   4.818  -2.389  1.00  0.00     0.065 A 
BRANCH  19  23
HETATM   23  C   UNL     1       3.591   2.505  -3.634  1.00  0.00     0.111 C 
HETATM   24  C   UNL     1       3.068   1.260  -4.391  1.00  0.00     0.027 C 
HETATM   25  C   UNL     1       3.037   1.420  -5.915  1.00  0.00     0.002 C 
HETATM   26  C   UNL     1       4.357   1.942  -6.471  1.00  0.00     0.000 C 
HETATM   27  C   UNL     1       4.804   3.213  -5.761  1.00  0.00     0.002 C 
HETATM   28  C   UNL     1       4.905   2.994  -4.256  1.00  0.00     0.027 C 
ENDBRANCH  19  23
ENDBRANCH   4  18
TORSDOF 7
