REMARK  5 active torsions:
REMARK  status: ('A' for Active; 'I' for Inactive)
REMARK    1  A    between atoms: C_2  and  C_3 
REMARK    2  A    between atoms: C_6  and  C_7 
REMARK    3  A    between atoms: C_7  and  C_8 
REMARK       I    between atoms: C_8  and  N_9 
REMARK    4  A    between atoms: N_9  and  C_10 
REMARK    5  A    between atoms: C_17  and  C_18 
REMARK       I    between atoms: C_18  and  N_19 
ROOT
HETATM    1  C   UNL     1       6.491   1.166   5.014  1.00  0.00     0.035 A 
HETATM    2  C   UNL     1       6.687   0.930   6.383  1.00  0.00     0.046 A 
HETATM    3  C   UNL     1       7.683   0.020   6.798  1.00  0.00     0.030 A 
HETATM    4  C   UNL     1       8.468  -0.600   5.834  1.00  0.00     0.063 A 
HETATM    5  N   UNL     1       9.320  -1.412   6.529  1.00  0.00    -0.277 N 
HETATM    6  H   UNL     1      10.037  -2.020   6.148  1.00  0.00     0.189 HD
HETATM    7  N   UNL     1       9.148  -1.392   7.861  1.00  0.00    -0.168 NA
HETATM    8  C   UNL     1       8.137  -0.511   8.043  1.00  0.00     0.156 A 
HETATM    9  C   UNL     1       8.318  -0.370   4.465  1.00  0.00     0.034 A 
HETATM   10  C   UNL     1       7.305   0.518   4.077  1.00  0.00     0.032 A 
ENDROOT
BRANCH   1  11
HETATM   11  N   UNL     1       5.439   1.964   4.515  1.00  0.00    -0.327 N 
HETATM   12  C   UNL     1       4.583   2.763   5.254  1.00  0.00     0.226 C 
HETATM   13  O   UNL     1       4.796   3.193   6.384  1.00  0.00    -0.273 OA
HETATM   14  H   UNL     1       5.295   1.951   3.513  1.00  0.00     0.169 HD
BRANCH  12  15
HETATM   15  C   UNL     1       3.270   3.037   4.539  1.00  0.00     0.141 C 
BRANCH  15  16
HETATM   16  C   UNL     1       3.177   4.363   3.830  1.00  0.00    -0.049 A 
HETATM   17  C   UNL     1       2.769   4.415   2.490  1.00  0.00     0.008 A 
HETATM   18  C   UNL     1       2.552   5.642   1.857  1.00  0.00     0.007 A 
HETATM   19  C   UNL     1       2.722   6.844   2.554  1.00  0.00    -0.059 A 
HETATM   20  C   UNL     1       3.156   6.794   3.884  1.00  0.00     0.007 A 
HETATM   21  C   UNL     1       3.379   5.567   4.516  1.00  0.00     0.008 A 
BRANCH  19  22
HETATM   22  C   UNL     1       2.430   8.167   1.890  1.00  0.00     0.034 C 
HETATM   23  C   UNL     1       0.963   8.318   1.505  1.00  0.00     0.010 C 
ENDBRANCH  19  22
ENDBRANCH  15  16
ENDBRANCH  12  15
ENDBRANCH   1  11
BRANCH   8  24
HETATM   24  C   UNL     1       7.617  -0.215   9.386  1.00  0.00     0.270 C 
HETATM   25  N   UNL     1       8.249  -0.895  10.392  1.00  0.00    -0.365 N 
HETATM   26  H   UNL     1       8.991  -1.541  10.150  1.00  0.00     0.159 HD
HETATM   27  H   UNL     1       7.946  -0.770  11.344  1.00  0.00     0.159 HD
HETATM   28  O   UNL     1       6.693   0.554   9.625  1.00  0.00    -0.266 OA
ENDBRANCH   8  24
TORSDOF 5
