REMARK  2 active torsions:
REMARK  status: ('A' for Active; 'I' for Inactive)
REMARK    1  A    between atoms: C_4  and  C_18 
REMARK    2  A    between atoms: C_9  and  C_12 
ROOT
HETATM    1  O   UNL     1       0.975  -0.214   0.453  1.00  0.00    -0.267 OA
HETATM    2  C   UNL     1       2.181  -0.165   0.249  1.00  0.00     0.259 A 
HETATM    3  N   UNL     1       2.961  -1.289   0.180  1.00  0.00    -0.309 N 
HETATM    4  C   UNL     1       4.318  -1.260  -0.023  1.00  0.00     0.137 A 
HETATM    5  N   UNL     1       4.982  -0.162  -0.202  1.00  0.00    -0.232 NA
HETATM    6  C   UNL     1       4.274   1.050  -0.147  1.00  0.00     0.074 A 
HETATM    7  C   UNL     1       4.973   2.245  -0.304  1.00  0.00     0.033 A 
HETATM    8  C   UNL     1       4.304   3.475  -0.253  1.00  0.00     0.014 A 
HETATM    9  C   UNL     1       2.918   3.531  -0.048  1.00  0.00    -0.022 A 
HETATM   10  C   UNL     1       2.212   2.332   0.113  1.00  0.00     0.031 A 
HETATM   11  C   UNL     1       2.895   1.110   0.064  1.00  0.00     0.061 A 
HETATM   12  H   UNL     1       2.504  -2.173   0.366  1.00  0.00     0.170 HD
ENDROOT
BRANCH   4  13
HETATM   13  C   UNL     1       5.017  -2.613  -0.089  1.00  0.00     0.198 C 
HETATM   14  C   UNL     1       4.787  -3.246  -1.457  1.00  0.00     0.045 C 
HETATM   15  C   UNL     1       5.559  -4.556  -1.521  1.00  0.00     0.044 C 
HETATM   16  C   UNL     1       5.372  -5.343  -0.255  1.00  0.00    -0.025 A 
HETATM   17  C   UNL     1       5.747  -6.693  -0.208  1.00  0.00     0.010 A 
HETATM   18  C   UNL     1       4.856  -4.741   0.899  1.00  0.00     0.076 A 
HETATM   19  C   UNL     1       5.583  -7.431   0.965  1.00  0.00     0.001 A 
HETATM   20  C   UNL     1       5.045  -6.827   2.101  1.00  0.00     0.003 A 
HETATM   21  C   UNL     1       4.678  -5.483   2.065  1.00  0.00     0.037 A 
HETATM   22  O   UNL     1       4.465  -3.429   0.953  1.00  0.00    -0.338 OA
ENDBRANCH   4  13
BRANCH   9  23
HETATM   23  C   UNL     1       2.240   4.814   0.005  1.00  0.00     0.010 A 
HETATM   24  C   UNL     1       2.703   6.090   0.406  1.00  0.00     0.152 A 
HETATM   25  N   UNL     1       1.770   7.039   0.292  1.00  0.00    -0.187 NA
HETATM   26  N   UNL     1       0.704   6.375  -0.182  1.00  0.00    -0.289 N 
HETATM   27  H   UNL     1      -0.149   6.896  -0.357  1.00  0.00     0.188 HD
HETATM   28  C   UNL     1       0.934   5.043  -0.374  1.00  0.00     0.123 A 
ENDBRANCH   9  23
TORSDOF 2
