REMARK  6 active torsions:
REMARK  status: ('A' for Active; 'I' for Inactive)
REMARK    1  A    between atoms: C_3  and  O_4 
REMARK    2  A    between atoms: C_6  and  C_7 
REMARK    3  A    between atoms: C_7  and  C_8 
REMARK    4  A    between atoms: C_8  and  N_9 
REMARK       I    between atoms: N_9  and  C_10 
REMARK    5  A    between atoms: C_10  and  C_11 
REMARK    6  A    between atoms: C_13  and  C_14 
ROOT
HETATM    1  N   UNL     1      -3.658  -3.803  -0.565  1.00  0.00    -0.357 N 
HETATM    2  C   UNL     1      -5.020  -3.832  -0.332  1.00  0.00     0.251 C 
HETATM    3  O   UNL     1      -5.622  -4.843   0.010  1.00  0.00    -0.268 OA
HETATM    4  H   UNL     1      -3.289  -3.043  -1.119  1.00  0.00     0.162 HD
ENDROOT
BRANCH   2   5
HETATM    5  C   UNL     1      -5.768  -2.561  -0.549  1.00  0.00     0.032 A 
HETATM    6  C   UNL     1      -7.148  -2.643  -0.795  1.00  0.00     0.029 A 
HETATM    7  C   UNL     1      -7.914  -1.485  -0.987  1.00  0.00    -0.023 A 
HETATM    8  C   UNL     1      -7.276  -0.239  -0.922  1.00  0.00     0.012 A 
HETATM    9  C   UNL     1      -5.905  -0.150  -0.666  1.00  0.00     0.002 A 
HETATM   10  C   UNL     1      -5.151  -1.308  -0.474  1.00  0.00     0.017 A 
BRANCH   7  11
HETATM   11  C   UNL     1      -9.347  -1.561  -1.230  1.00  0.00    -0.002 A 
HETATM   12  C   UNL     1      -9.981  -2.609  -1.868  1.00  0.00     0.153 A 
HETATM   13  O   UNL     1     -11.320  -2.391  -1.947  1.00  0.00    -0.334 OA
HETATM   14  C   UNL     1     -11.558  -1.194  -1.355  1.00  0.00     0.142 A 
HETATM   15  C   UNL     1     -10.383  -0.640  -0.904  1.00  0.00     0.038 A 
ENDBRANCH   7  11
ENDBRANCH   2   5
BRANCH   1  16
HETATM   16  C   UNL     1      -2.886  -5.033  -0.510  1.00  0.00     0.127 C 
BRANCH  16  17
HETATM   17  C   UNL     1      -1.395  -4.765  -0.312  1.00  0.00     0.058 C 
BRANCH  17  18
HETATM   18  C   UNL     1      -0.604  -6.047  -0.258  1.00  0.00    -0.054 A 
HETATM   19  C   UNL     1      -0.396  -6.698   0.966  1.00  0.00     0.043 A 
HETATM   20  C   UNL     1       0.301  -7.902   1.006  1.00  0.00     0.066 A 
HETATM   21  C   UNL     1       0.798  -8.479  -0.158  1.00  0.00     0.036 A 
HETATM   22  C   UNL     1       0.593  -7.838  -1.380  1.00  0.00     0.003 A 
HETATM   23  C   UNL     1      -0.106  -6.630  -1.431  1.00  0.00     0.007 A 
BRANCH  20  24
HETATM   24  O   UNL     1       0.472  -8.495   2.222  1.00  0.00    -0.361 OA
HETATM   25  H   UNL     1       0.938  -9.337   2.092  1.00  0.00     0.217 HD
ENDBRANCH  20  24
ENDBRANCH  17  18
ENDBRANCH  16  17
ENDBRANCH   1  16
TORSDOF 6
