REMARK  8 active torsions:
REMARK  status: ('A' for Active; 'I' for Inactive)
REMARK    1  A    between atoms: O_2  and  C_3 
REMARK    2  A    between atoms: C_5  and  O_6 
REMARK    3  A    between atoms: C_8  and  C_9 
REMARK    4  A    between atoms: N_10  and  C_12 
REMARK    5  A    between atoms: C_12  and  C_13 
REMARK       I    between atoms: C_13  and  N_14 
REMARK    6  A    between atoms: N_14  and  C_15 
REMARK    7  A    between atoms: C_16  and  C_17 
REMARK    8  A    between atoms: C_17  and  C_18 
ROOT
HETATM    1  C   UNL     1       4.158  -5.739  -1.685  1.00  0.00     0.338 C 
ENDROOT
BRANCH   1   2
HETATM    2  N   UNL     1       4.753  -5.571  -3.080  1.00  0.00    -0.054 N 
HETATM    3  C   UNL     1       4.497  -4.181  -3.705  1.00  0.00     0.224 C 
HETATM    4  C   UNL     1       3.463  -4.488  -4.792  1.00  0.00     0.040 C 
HETATM    5  C   UNL     1       3.881  -5.847  -5.312  1.00  0.00     0.030 C 
HETATM    6  C   UNL     1       4.232  -6.610  -4.053  1.00  0.00     0.236 C 
HETATM    7  H   UNL     1       5.764  -5.668  -2.974  1.00  0.00     0.281 HD
BRANCH   3   8
HETATM    8  C   UNL     1       5.736  -3.495  -4.270  1.00  0.00     0.006 A 
HETATM    9  C   UNL     1       5.663  -2.114  -4.557  1.00  0.00     0.079 A 
HETATM   10  C   UNL     1       6.779  -1.436  -5.058  1.00  0.00     0.074 A 
HETATM   11  C   UNL     1       7.974  -2.110  -5.313  1.00  0.00     0.070 A 
HETATM   12  C   UNL     1       8.044  -3.479  -5.083  1.00  0.00     0.037 A 
HETATM   13  C   UNL     1       6.935  -4.168  -4.575  1.00  0.00     0.015 A 
BRANCH   9  14
HETATM   14  O   UNL     1       4.449  -1.523  -4.313  1.00  0.00    -0.355 OA
HETATM   15  C   UNL     1       4.223  -0.248  -4.914  1.00  0.00     0.210 C 
ENDBRANCH   9  14
BRANCH  11  16
HETATM   16  O   UNL     1       8.979  -1.325  -5.800  1.00  0.00    -0.356 OA
HETATM   17  C   UNL     1      10.259  -1.925  -5.962  1.00  0.00     0.210 C 
ENDBRANCH  11  16
ENDBRANCH   3   8
ENDBRANCH   1   2
BRANCH   1  18
HETATM   18  C   UNL     1       4.829  -4.862  -0.627  1.00  0.00     0.248 C 
HETATM   19  N   UNL     1       5.977  -5.424  -0.083  1.00  0.00    -0.325 N 
HETATM   20  H   UNL     1       6.498  -6.071  -0.659  1.00  0.00     0.169 HD
HETATM   21  O   UNL     1       4.390  -3.743  -0.385  1.00  0.00    -0.271 OA
BRANCH  19  22
HETATM   22  C   UNL     1       6.756  -4.762   0.896  1.00  0.00     0.041 A 
HETATM   23  C   UNL     1       6.241  -4.240   2.097  1.00  0.00    -0.027 A 
HETATM   24  C   UNL     1       7.122  -3.547   2.955  1.00  0.00     0.010 A 
HETATM   25  C   UNL     1       8.477  -3.416   2.655  1.00  0.00     0.001 A 
HETATM   26  C   UNL     1       8.986  -3.996   1.501  1.00  0.00     0.002 A 
HETATM   27  C   UNL     1       8.134  -4.676   0.632  1.00  0.00     0.030 A 
BRANCH  23  28
HETATM   28  C   UNL     1       4.845  -4.516   2.623  1.00  0.00     0.079 C 
BRANCH  28  29
HETATM   29  C   UNL     1       4.800  -5.684   3.590  1.00  0.00    -0.054 A 
HETATM   30  C   UNL     1       4.830  -5.465   4.975  1.00  0.00     0.007 A 
HETATM   31  C   UNL     1       4.819  -6.542   5.864  1.00  0.00     0.001 A 
HETATM   32  C   UNL     1       4.778  -7.848   5.380  1.00  0.00     0.000 A 
HETATM   33  C   UNL     1       4.748  -8.079   4.007  1.00  0.00     0.001 A 
HETATM   34  C   UNL     1       4.761  -7.004   3.116  1.00  0.00     0.007 A 
ENDBRANCH  28  29
ENDBRANCH  23  28
ENDBRANCH  19  22
ENDBRANCH   1  18
TORSDOF 8
