REMARK  5 active torsions:
REMARK  status: ('A' for Active; 'I' for Inactive)
REMARK    1  A    between atoms: C_6  and  N_7 
REMARK       I    between atoms: N_7  and  C_8 
REMARK    2  A    between atoms: C_8  and  C_9 
REMARK    3  A    between atoms: C_9  and  C_10 
REMARK    4  A    between atoms: C_12  and  O_13 
REMARK    5  A    between atoms: C_19  and  C_20 
ROOT
HETATM    1  C   UNL     1       1.317  -0.627   2.643  1.00  0.00     0.073 C 
HETATM    2  C   UNL     1       2.574  -0.706   1.857  1.00  0.00     0.065 A 
HETATM    3  N   UNL     1       2.715   0.029   0.747  1.00  0.00    -0.177 NA
HETATM    4  N   UNL     1       3.948  -0.278   0.310  1.00  0.00    -0.262 N 
HETATM    5  H   UNL     1       4.314   0.175  -0.523  1.00  0.00     0.191 HD
HETATM    6  C   UNL     1       4.591  -1.218   1.076  1.00  0.00     0.137 A 
HETATM    7  C   UNL     1       3.731  -1.494   2.121  1.00  0.00     0.046 A 
ENDROOT
BRANCH   6   8
HETATM    8  N   UNL     1       5.847  -1.720   0.786  1.00  0.00    -0.311 N 
HETATM    9  C   UNL     1       6.623  -1.214  -0.245  1.00  0.00     0.227 C 
HETATM   10  O   UNL     1       6.296  -0.262  -0.954  1.00  0.00    -0.273 OA
HETATM   11  H   UNL     1       6.219  -2.447   1.386  1.00  0.00     0.170 HD
BRANCH   9  12
HETATM   12  C   UNL     1       7.902  -1.993  -0.479  1.00  0.00     0.141 C 
BRANCH  12  13
HETATM   13  C   UNL     1       9.049  -1.771   0.484  1.00  0.00    -0.047 A 
HETATM   14  C   UNL     1       8.890  -1.325   1.808  1.00  0.00     0.044 A 
HETATM   15  C   UNL     1       9.984  -1.247   2.676  1.00  0.00     0.068 A 
HETATM   16  C   UNL     1      11.256  -1.584   2.213  1.00  0.00     0.037 A 
HETATM   17  C   UNL     1      11.437  -2.019   0.903  1.00  0.00     0.003 A 
HETATM   18  C   UNL     1      10.340  -2.122   0.049  1.00  0.00     0.007 A 
BRANCH  15  19
HETATM   19  O   UNL     1       9.940  -0.858   3.987  1.00  0.00    -0.356 OA
HETATM   20  C   UNL     1       8.654  -0.744   4.583  1.00  0.00     0.210 C 
ENDBRANCH  15  19
ENDBRANCH  12  13
ENDBRANCH   9  12
ENDBRANCH   6   8
BRANCH   7  21
HETATM   21  C   UNL     1       4.048  -2.347   3.248  1.00  0.00    -0.020 A 
HETATM   22  C   UNL     1       4.066  -1.805   4.540  1.00  0.00     0.014 A 
HETATM   23  C   UNL     1       4.399  -2.603   5.636  1.00  0.00     0.020 A 
HETATM   24  C   UNL     1       4.715  -3.945   5.440  1.00  0.00     0.011 A 
HETATM   25 BR   UNL     1       5.178  -5.024   6.922  1.00  0.00    -0.051 Br
HETATM   26  C   UNL     1       4.694  -4.499   4.161  1.00  0.00     0.020 A 
HETATM   27  C   UNL     1       4.356  -3.701   3.064  1.00  0.00     0.014 A 
ENDBRANCH   7  21
TORSDOF 5
