REMARK  6 active torsions:
REMARK  status: ('A' for Active; 'I' for Inactive)
REMARK    1  A    between atoms: C_3  and  O_4 
REMARK    2  A    between atoms: O_4  and  C_5 
REMARK    3  A    between atoms: C_5  and  C_6 
REMARK       I    between atoms: C_6  and  N_7 
REMARK    4  A    between atoms: N_7  and  C_8 
REMARK    5  A    between atoms: C_15  and  C_16 
REMARK       I    between atoms: C_16  and  N_17 
REMARK    6  A    between atoms: C_23  and  C_24 
ROOT
HETATM    1  C   UNL     1       2.302   4.867   0.002  1.00  0.00     0.246 C 
HETATM    2  N   UNL     1       1.739   4.949  -1.265  1.00  0.00    -0.325 N 
HETATM    3  O   UNL     1       2.001   5.544   0.978  1.00  0.00    -0.271 OA
HETATM    4  H   UNL     1       2.039   4.252  -1.935  1.00  0.00     0.169 HD
ENDROOT
BRANCH   2   5
HETATM    5  C   UNL     1       0.802   5.898  -1.730  1.00  0.00     0.035 A 
HETATM    6  C   UNL     1       0.252   6.908  -0.928  1.00  0.00     0.046 A 
HETATM    7  C   UNL     1      -0.654   7.834  -1.490  1.00  0.00     0.030 A 
HETATM    8  C   UNL     1      -0.976   7.723  -2.837  1.00  0.00     0.063 A 
HETATM    9  C   UNL     1      -1.400   8.958  -1.023  1.00  0.00     0.156 A 
HETATM   10  N   UNL     1      -1.850   8.745  -3.086  1.00  0.00    -0.277 N 
HETATM   11  C   UNL     1      -0.453   6.730  -3.666  1.00  0.00     0.034 A 
HETATM   12  H   UNL     1      -2.290   8.974  -3.970  1.00  0.00     0.189 HD
HETATM   13  N   UNL     1      -2.133   9.508  -2.018  1.00  0.00    -0.168 NA
HETATM   14  C   UNL     1       0.438   5.819  -3.082  1.00  0.00     0.032 A 
BRANCH   9  15
HETATM   15  C   UNL     1      -1.431   9.512   0.339  1.00  0.00     0.270 C 
HETATM   16  N   UNL     1      -2.259  10.591   0.484  1.00  0.00    -0.365 N 
HETATM   17  H   UNL     1      -2.778  10.917  -0.323  1.00  0.00     0.159 HD
HETATM   18  H   UNL     1      -2.353  11.029   1.386  1.00  0.00     0.159 HD
HETATM   19  O   UNL     1      -0.789   9.075   1.288  1.00  0.00    -0.266 OA
ENDBRANCH   9  15
ENDBRANCH   2   5
BRANCH   1  20
HETATM   20  C   UNL     1       3.433   3.841   0.080  1.00  0.00     0.278 C 
BRANCH  20  21
HETATM   21  O   UNL     1       2.906   2.545   0.339  1.00  0.00    -0.342 OA
BRANCH  21  22
HETATM   22  C   UNL     1       3.833   1.630   0.777  1.00  0.00     0.075 A 
HETATM   23  C   UNL     1       3.391   0.665   1.694  1.00  0.00    -0.029 A 
HETATM   24  C   UNL     1       1.975   0.655   2.196  1.00  0.00     0.051 C 
HETATM   25  C   UNL     1       4.290  -0.317   2.137  1.00  0.00     0.010 A 
HETATM   26  C   UNL     1       5.610  -0.333   1.682  1.00  0.00     0.008 A 
HETATM   27  C   UNL     1       6.060   0.622   0.763  1.00  0.00    -0.052 A 
HETATM   28  C   UNL     1       5.155   1.599   0.314  1.00  0.00     0.044 A 
BRANCH  27  29
HETATM   29  C   UNL     1       7.500   0.590   0.280  1.00  0.00     0.010 C 
HETATM   30  C   UNL     1       7.593   0.501  -1.246  1.00  0.00     0.015 C 
HETATM   31  C   UNL     1       8.282   1.797   0.804  1.00  0.00     0.015 C 
ENDBRANCH  27  29
ENDBRANCH  21  22
ENDBRANCH  20  21
ENDBRANCH   1  20
TORSDOF 6
