REMARK  6 active torsions:
REMARK  status: ('A' for Active; 'I' for Inactive)
REMARK    1  A    between atoms: C_3  and  C_4 
REMARK    2  A    between atoms: C_4  and  C_5 
REMARK    3  A    between atoms: N_8  and  C_10 
REMARK    4  A    between atoms: C_10  and  C_11 
REMARK    5  A    between atoms: N_24  and  C_25 
REMARK    6  A    between atoms: C_25  and  C_26 
ROOT
HETATM    1  C   UNL     1       1.310   2.545   0.105  1.00  0.00     0.164 C 
HETATM    2  N   UNL     1       0.551   3.590   0.774  1.00  0.00    -0.319 N 
HETATM    3  C   UNL     1       1.208   4.065   1.888  1.00  0.00     0.326 C 
HETATM    4  O   UNL     1       0.678   4.811   2.692  1.00  0.00    -0.247 OA
HETATM    5  N   UNL     1       2.459   3.543   1.925  1.00  0.00    -0.265 N 
HETATM    6  C   UNL     1       2.558   2.525   1.018  1.00  0.00     0.263 C 
HETATM    7  O   UNL     1       3.491   1.740   0.911  1.00  0.00    -0.270 OA
HETATM    8  H   UNL     1      -0.450   3.464   0.905  1.00  0.00     0.166 HD
ENDROOT
BRANCH   1   9
HETATM    9  C   UNL     1       0.511   1.246   0.159  1.00  0.00     0.072 A 
HETATM   10  C   UNL     1       1.103  -0.013   0.122  1.00  0.00     0.030 A 
HETATM   11  C   UNL     1       0.289  -1.142   0.174  1.00  0.00     0.003 A 
HETATM   12  C   UNL     1      -1.090  -0.994   0.248  1.00  0.00     0.019 A 
HETATM   13  C   UNL     1      -1.609   0.286   0.252  1.00  0.00     0.117 A 
HETATM   14  N   UNL     1      -0.849   1.404   0.189  1.00  0.00    -0.262 NA
ENDBRANCH   1   9
BRANCH   1  15
HETATM   15  C   UNL     1       1.727   2.957  -1.352  1.00  0.00     0.033 C 
HETATM   16  C   UNL     1       2.271   4.397  -1.484  1.00  0.00     0.036 C 
HETATM   17  C   UNL     1       1.210   5.495  -1.417  1.00  0.00     0.235 C 
HETATM   18  N   UNL     1       0.065   5.220  -2.365  1.00  0.00    -0.067 N 
HETATM   19  H   UNL     1       0.424   5.376  -3.318  1.00  0.00     0.280 HD
HETATM   20  C   UNL     1      -0.480   3.810  -2.299  1.00  0.00     0.235 C 
HETATM   21  C   UNL     1       0.638   2.794  -2.428  1.00  0.00     0.036 C 
BRANCH  18  22
HETATM   22  C   UNL     1      -1.094   6.200  -2.185  1.00  0.00     0.278 C 
BRANCH  22  23
HETATM   23  C   UNL     1      -0.742   7.654  -2.098  1.00  0.00     0.028 A 
HETATM   24  C   UNL     1      -0.170   8.377  -3.151  1.00  0.00     0.045 A 
HETATM   25 CL   UNL     1       0.223   7.605  -4.644  1.00  0.00    -0.084 Cl
HETATM   26  C   UNL     1       0.116   9.738  -3.009  1.00  0.00     0.024 A 
HETATM   27  C   UNL     1      -0.170  10.397  -1.813  1.00  0.00     0.005 A 
HETATM   28  C   UNL     1      -0.742   9.693  -0.757  1.00  0.00     0.043 A 
HETATM   29  C   UNL     1      -1.021   8.340  -0.910  1.00  0.00     0.126 A 
HETATM   30  F   UNL     1      -1.567   7.677   0.118  1.00  0.00    -0.205 F 
ENDBRANCH  22  23
ENDBRANCH  18  22
ENDBRANCH   1  15
BRANCH   5  31
HETATM   31  C   UNL     1       3.417   3.837   2.981  1.00  0.00     0.168 C 
BRANCH  31  32
HETATM   32  C   UNL     1       4.864   3.932   2.489  1.00  0.00     0.140 C 
HETATM   33  O   UNL     1       4.980   4.874   1.403  1.00  0.00    -0.384 OA
HETATM   34  C   UNL     1       6.362   5.259   1.384  1.00  0.00     0.168 C 
HETATM   35  C   UNL     1       6.746   5.393   2.840  1.00  0.00     0.029 C 
HETATM   36  C   UNL     1       5.836   4.418   3.560  1.00  0.00     0.036 C 
ENDBRANCH  31  32
ENDBRANCH   5  31
TORSDOF 6
