REMARK  7 active torsions:
REMARK  status: ('A' for Active; 'I' for Inactive)
REMARK    1  A    between atoms: O_2  and  C_3 
REMARK    2  A    between atoms: C_6  and  C_11 
REMARK    3  A    between atoms: C_8  and  O_9 
REMARK       I    between atoms: C_11  and  N_13 
REMARK    4  A    between atoms: N_13  and  C_14 
REMARK    5  A    between atoms: C_14  and  C_16 
REMARK    6  A    between atoms: C_20  and  C_22 
REMARK       I    between atoms: C_22  and  N_24 
REMARK    7  A    between atoms: N_24  and  C_25 
ROOT
HETATM    1  C   UNL     1       8.108   6.025  -3.025  1.00  0.00    -0.035 A 
HETATM    2  C   UNL     1       9.043   7.065  -3.170  1.00  0.00     0.009 A 
HETATM    3  C   UNL     1      10.253   6.852  -3.828  1.00  0.00     0.002 A 
HETATM    4  C   UNL     1      10.556   5.591  -4.335  1.00  0.00     0.017 A 
HETATM    5  C   UNL     1       9.654   4.530  -4.181  1.00  0.00     0.033 A 
HETATM    6  C   UNL     1       8.429   4.756  -3.537  1.00  0.00     0.026 A 
ENDROOT
BRANCH   1   7
HETATM    7  C   UNL     1       6.810   6.289  -2.281  1.00  0.00     0.114 C 
HETATM    8  C   UNL     1       5.557   5.674  -2.910  1.00  0.00     0.037 C 
BRANCH   7   9
HETATM    9  N   UNL     1       6.964   6.003  -0.859  1.00  0.00    -0.349 N 
HETATM   10  C   UNL     1       6.975   4.737  -0.314  1.00  0.00     0.252 C 
HETATM   11  O   UNL     1       6.800   3.714  -0.970  1.00  0.00    -0.268 OA
HETATM   12  H   UNL     1       7.351   6.759  -0.317  1.00  0.00     0.163 HD
BRANCH  10  13
HETATM   13  C   UNL     1       7.247   4.629   1.154  1.00  0.00     0.034 A 
HETATM   14  C   UNL     1       7.471   3.357   1.690  1.00  0.00     0.020 A 
HETATM   15  C   UNL     1       7.729   3.190   3.055  1.00  0.00     0.040 A 
HETATM   16  C   UNL     1       7.781   4.292   3.918  1.00  0.00     0.101 A 
HETATM   17  C   UNL     1       7.560   5.575   3.385  1.00  0.00     0.102 A 
HETATM   18  C   UNL     1       7.271   5.729   2.018  1.00  0.00     0.056 A 
BRANCH  16  19
HETATM   19  O   UNL     1       7.995   4.182   5.265  1.00  0.00    -0.353 OA
HETATM   20  C   UNL     1       8.337   2.904   5.787  1.00  0.00     0.210 C 
ENDBRANCH  16  19
BRANCH  17  21
HETATM   21  O   UNL     1       7.554   6.773   4.056  1.00  0.00    -0.353 OA
HETATM   22  C   UNL     1       8.299   6.857   5.264  1.00  0.00     0.210 C 
ENDBRANCH  17  21
ENDBRANCH  10  13
ENDBRANCH   7   9
ENDBRANCH   1   7
BRANCH   5  23
HETATM   23  C   UNL     1      10.037   3.200  -4.742  1.00  0.00     0.256 C 
HETATM   24  O   UNL     1      10.812   3.186  -5.693  1.00  0.00    -0.267 OA
HETATM   25  N   UNL     1       9.500   2.095  -4.102  1.00  0.00    -0.323 N 
HETATM   26  H   UNL     1       8.949   2.261  -3.269  1.00  0.00     0.169 HD
BRANCH  25  27
HETATM   27  C   UNL     1       9.693   0.737  -4.442  1.00  0.00     0.035 A 
HETATM   28  C   UNL     1      10.443   0.307  -5.537  1.00  0.00     0.030 A 
HETATM   29  C   UNL     1      10.598  -1.056  -5.804  1.00  0.00     0.010 A 
HETATM   30  C   UNL     1      10.005  -2.014  -4.977  1.00  0.00    -0.048 A 
HETATM   31  C   UNL     1      10.147  -3.481  -5.293  1.00  0.00     0.069 C 
HETATM   32  C   UNL     1       9.222  -1.600  -3.888  1.00  0.00    -0.022 A 
HETATM   33  C   UNL     1       9.768  -4.377  -4.107  1.00  0.00     0.277 C 
HETATM   34  N   UNL     1       8.476  -3.965  -3.543  1.00  0.00     0.088 N 
HETATM   35  C   UNL     1       8.018  -4.921  -2.537  1.00  0.00     0.310 C 
HETATM   36  C   UNL     1       8.589  -2.616  -2.958  1.00  0.00     0.311 C 
HETATM   37  C   UNL     1       9.084  -0.225  -3.623  1.00  0.00     0.039 A 
ENDBRANCH  25  27
ENDBRANCH   5  23
TORSDOF 7
