REMARK  5 active torsions:
REMARK  status: ('A' for Active; 'I' for Inactive)
REMARK    1  A    between atoms: C_3  and  O_4 
REMARK    2  A    between atoms: O_4  and  C_5 
REMARK    3  A    between atoms: C_10  and  N_11 
REMARK       I    between atoms: N_11  and  C_12 
REMARK       I    between atoms: C_12  and  N_13 
REMARK    4  A    between atoms: N_13  and  C_14 
REMARK    5  A    between atoms: C_14  and  C_15 
ROOT
HETATM    1  N   UNL     1       4.857  -2.700  -0.401  1.00  0.00    -0.309 N 
HETATM    2  C   UNL     1       5.976  -3.435  -0.595  1.00  0.00     0.321 C 
HETATM    3  N   UNL     1       7.188  -2.831  -0.594  1.00  0.00    -0.337 N 
HETATM    4  O   UNL     1       5.851  -4.651  -0.746  1.00  0.00    -0.247 OA
HETATM    5  H   UNL     1       4.064  -3.323  -0.316  1.00  0.00     0.170 HD
HETATM    6  H   UNL     1       7.294  -2.022  -0.001  1.00  0.00     0.164 HD
ENDROOT
BRANCH   1   7
HETATM    7  C   UNL     1       4.557  -1.329  -0.338  1.00  0.00     0.037 A 
HETATM    8  C   UNL     1       5.429  -0.286  -0.636  1.00  0.00     0.032 A 
HETATM    9  C   UNL     1       5.005   1.050  -0.529  1.00  0.00     0.039 A 
HETATM   10  C   UNL     1       3.697   1.360  -0.148  1.00  0.00     0.075 A 
HETATM   11  C   UNL     1       2.799   0.317   0.118  1.00  0.00    -0.026 A 
HETATM   12  C   UNL     1       1.376   0.602   0.515  1.00  0.00     0.051 C 
HETATM   13  C   UNL     1       3.240  -1.012   0.025  1.00  0.00     0.039 A 
BRANCH  10  14
HETATM   14  O   UNL     1       3.192   2.619   0.019  1.00  0.00    -0.346 OA
BRANCH  14  15
HETATM   15  C   UNL     1       3.850   3.742  -0.572  1.00  0.00     0.121 C 
HETATM   16  C   UNL     1       3.532   3.812  -2.063  1.00  0.00     0.040 C 
HETATM   17  C   UNL     1       3.302   4.981   0.133  1.00  0.00     0.040 C 
ENDBRANCH  14  15
ENDBRANCH  10  14
ENDBRANCH   1   7
BRANCH   3  18
HETATM   18  C   UNL     1       8.370  -3.664  -0.691  1.00  0.00     0.183 C 
BRANCH  18  19
HETATM   19  C   UNL     1       9.655  -2.888  -0.872  1.00  0.00     0.053 A 
HETATM   20  N   UNL     1       9.672  -1.565  -0.557  1.00  0.00    -0.264 NA
HETATM   21  C   UNL     1      10.842  -0.904  -0.712  1.00  0.00     0.118 A 
HETATM   22  C   UNL     1      12.011  -1.496  -1.150  1.00  0.00     0.043 A 
HETATM   23  C   UNL     1      11.973  -2.850  -1.443  1.00  0.00     0.037 A 
HETATM   24 CL   UNL     1      13.397  -3.652  -1.980  1.00  0.00    -0.084 Cl
HETATM   25  C   UNL     1      10.791  -3.565  -1.305  1.00  0.00     0.052 A 
ENDBRANCH  18  19
ENDBRANCH   3  18
TORSDOF 5
