REMARK  5 active torsions:
REMARK  status: ('A' for Active; 'I' for Inactive)
REMARK    1  A    between atoms: C_2  and  C_3 
REMARK    2  A    between atoms: C_3  and  C_4 
REMARK       I    between atoms: C_4  and  N_5 
REMARK    3  A    between atoms: N_5  and  C_6 
REMARK    4  A    between atoms: C_9  and  N_10 
REMARK       I    between atoms: N_10  and  C_11 
REMARK       I    between atoms: C_11  and  N_12 
REMARK    5  A    between atoms: N_12  and  C_13 
ROOT
HETATM    1  C   UNL     1       4.307   1.486  -0.810  1.00  0.00     0.043 C 
HETATM    2  C   UNL     1       4.858   2.758  -0.538  1.00  0.00    -0.008 C 
HETATM    3  C   UNL     1       5.636   3.048   0.725  1.00  0.00     0.053 C 
HETATM    4  C   UNL     1       4.583   3.834  -1.423  1.00  0.00     0.044 C 
HETATM    5  C   UNL     1       3.691   3.658  -2.486  1.00  0.00     0.030 C 
HETATM    6  C   UNL     1       3.066   2.431  -2.681  1.00  0.00     0.005 C 
HETATM    7  C   UNL     1       3.374   1.355  -1.852  1.00  0.00     0.030 C 
ENDROOT
BRANCH   4   8
HETATM    8  N   UNL     1       5.298   5.041  -1.258  1.00  0.00    -0.308 N 
HETATM    9  C   UNL     1       5.066   6.310  -1.719  1.00  0.00     0.325 C 
HETATM   10  N   UNL     1       3.758   6.622  -1.965  1.00  0.00    -0.305 N 
HETATM   11  O   UNL     1       6.013   7.091  -1.761  1.00  0.00    -0.247 OA
HETATM   12  H   UNL     1       3.090   6.037  -1.486  1.00  0.00     0.171 HD
HETATM   13  H   UNL     1       6.209   4.967  -0.821  1.00  0.00     0.170 HD
BRANCH  10  14
HETATM   14  C   UNL     1       3.290   7.832  -2.446  1.00  0.00     0.086 A 
HETATM   15  C   UNL     1       3.904   8.871  -3.206  1.00  0.00     0.079 A 
HETATM   16  C   UNL     1       5.272   8.960  -3.777  1.00  0.00     0.075 C 
HETATM   17  N   UNL     1       3.044   9.873  -3.448  1.00  0.00    -0.177 NA
HETATM   18  N   UNL     1       1.910   9.482  -2.860  1.00  0.00    -0.280 N 
HETATM   19  H   UNL     1       1.113  10.107  -2.906  1.00  0.00     0.189 HD
HETATM   20  C   UNL     1       1.987   8.255  -2.263  1.00  0.00     0.052 A 
HETATM   21  C   UNL     1       0.816   7.667  -1.574  1.00  0.00     0.072 C 
ENDBRANCH  10  14
ENDBRANCH   4   8
BRANCH   1  22
HETATM   22  N   UNL     1       4.590   0.290  -0.106  1.00  0.00    -0.327 N 
HETATM   23  C   UNL     1       5.789  -0.056   0.494  1.00  0.00     0.222 C 
HETATM   24  O   UNL     1       6.835   0.581   0.457  1.00  0.00    -0.273 OA
HETATM   25  H   UNL     1       3.968  -0.487  -0.293  1.00  0.00     0.169 HD
BRANCH  23  26
HETATM   26  C   UNL     1       5.735  -1.410   1.179  1.00  0.00     0.103 C 
BRANCH  26  27
HETATM   27  C   UNL     1       6.171  -2.538   0.249  1.00  0.00     0.005 C 
HETATM   28  C   UNL     1       7.667  -2.517  -0.037  1.00  0.00     0.005 C 
ENDBRANCH  26  27
ENDBRANCH  23  26
ENDBRANCH   1  22
TORSDOF 5
