REMARK  4 active torsions:
REMARK  status: ('A' for Active; 'I' for Inactive)
REMARK    1  A    between atoms: C_4  and  N_5 
REMARK    2  A    between atoms: C_9  and  N_10 
REMARK    3  A    between atoms: C_13  and  C_14 
REMARK    4  A    between atoms: C_22  and  C_23 
ROOT
HETATM    1  N   UNL     1       2.720   0.042  -0.167  1.00  0.00    -0.258 N 
HETATM    2  C   UNL     1       3.577   1.179  -0.078  1.00  0.00     0.333 A 
HETATM    3  O   UNL     1       3.338   2.353   0.127  1.00  0.00    -0.246 OA
HETATM    4  N   UNL     1       4.873   0.679  -0.250  1.00  0.00    -0.292 N 
HETATM    5  C   UNL     1       4.829  -0.677  -0.424  1.00  0.00     0.146 A 
HETATM    6  C   UNL     1       3.537  -1.066  -0.399  1.00  0.00     0.126 A 
HETATM    7  H   UNL     1       5.679   1.284  -0.181  1.00  0.00     0.172 HD
ENDROOT
BRANCH   5   8
HETATM    8  N   UNL     1       5.977  -1.436  -0.672  1.00  0.00    -0.317 N 
HETATM    9  C   UNL     1       6.873  -1.006  -1.594  1.00  0.00     0.099 A 
HETATM   10  C   UNL     1       8.016  -1.745  -1.891  1.00  0.00     0.030 A 
HETATM   11  C   UNL     1       8.273  -2.946  -1.227  1.00  0.00    -0.023 A 
HETATM   12  C   UNL     1       7.361  -3.344  -0.248  1.00  0.00     0.030 A 
HETATM   13  C   UNL     1       6.229  -2.577   0.018  1.00  0.00     0.099 A 
BRANCH  11  14
HETATM   14  C   UNL     1       9.447  -3.770  -1.559  1.00  0.00    -0.023 A 
HETATM   15  C   UNL     1      10.733  -3.218  -1.625  1.00  0.00     0.031 A 
HETATM   16  C   UNL     1      11.803  -4.037  -1.955  1.00  0.00     0.117 A 
HETATM   17  N   UNL     1      11.681  -5.351  -2.222  1.00  0.00    -0.273 NA
HETATM   18  C   UNL     1      10.443  -5.876  -2.156  1.00  0.00     0.117 A 
HETATM   19  C   UNL     1       9.314  -5.138  -1.834  1.00  0.00     0.031 A 
ENDBRANCH  11  14
ENDBRANCH   5   8
BRANCH   6  20
HETATM   20  C   UNL     1       3.044  -2.393  -0.811  1.00  0.00     0.292 C 
HETATM   21  O   UNL     1       3.766  -3.383  -0.821  1.00  0.00    -0.300 OA
ENDBRANCH   6  20
BRANCH   1  22
HETATM   22  C   UNL     1       1.311   0.115   0.009  1.00  0.00     0.044 A 
HETATM   23  C   UNL     1       0.608   1.285  -0.314  1.00  0.00     0.030 A 
HETATM   24  C   UNL     1      -0.781   1.356  -0.167  1.00  0.00     0.002 A 
HETATM   25  C   UNL     1      -1.490   0.263   0.321  1.00  0.00     0.000 A 
HETATM   26  C   UNL     1      -0.808  -0.896   0.673  1.00  0.00     0.002 A 
HETATM   27  C   UNL     1       0.581  -0.968   0.524  1.00  0.00     0.030 A 
ENDBRANCH   1  22
TORSDOF 4
