REMARK  7 active torsions:
REMARK  status: ('A' for Active; 'I' for Inactive)
REMARK    1  A    between atoms: O_2  and  C_3 
REMARK    2  A    between atoms: C_6  and  C_7 
REMARK    3  A    between atoms: C_11  and  C_12 
REMARK       I    between atoms: C_12  and  N_13 
REMARK    4  A    between atoms: N_13  and  N_14 
REMARK       I    between atoms: N_14  and  C_15 
REMARK    5  A    between atoms: C_15  and  C_16 
REMARK    6  A    between atoms: C_16  and  C_17 
REMARK    7  A    between atoms: C_17  and  C_18 
ROOT
HETATM    1  C   UNL     1       7.610   7.073  -1.814  1.00  0.00     0.288 C 
HETATM    2  N   UNL     1       8.696   6.337  -2.233  1.00  0.00    -0.262 N 
HETATM    3  O   UNL     1       7.579   8.299  -1.911  1.00  0.00    -0.264 OA
HETATM    4  H   UNL     1       8.767   5.326  -2.150  1.00  0.00     0.190 HD
ENDROOT
BRANCH   1   5
HETATM    5  C   UNL     1       6.520   6.311  -1.273  1.00  0.00     0.121 A 
HETATM    6  N   UNL     1       5.390   6.910  -0.790  1.00  0.00    -0.272 N 
HETATM    7  N   UNL     1       4.447   6.053  -0.374  1.00  0.00    -0.174 NA
HETATM    8  H   UNL     1       5.204   7.907  -0.738  1.00  0.00     0.189 HD
HETATM    9  C   UNL     1       4.981   4.837  -0.572  1.00  0.00     0.089 A 
HETATM   10  C   UNL     1       6.289   4.958  -1.122  1.00  0.00     0.071 A 
BRANCH   9  11
HETATM   11  C   UNL     1       4.239   3.609  -0.274  1.00  0.00    -0.005 A 
HETATM   12  C   UNL     1       2.838   3.625  -0.211  1.00  0.00     0.016 A 
HETATM   13  C   UNL     1       2.112   2.451   0.022  1.00  0.00     0.037 A 
HETATM   14  C   UNL     1       2.778   1.240   0.200  1.00  0.00     0.068 A 
HETATM   15  C   UNL     1       4.174   1.220   0.167  1.00  0.00     0.037 A 
HETATM   16  C   UNL     1       4.901   2.392  -0.071  1.00  0.00     0.016 A 
BRANCH  14  17
HETATM   17  O   UNL     1       2.192   0.024   0.420  1.00  0.00    -0.356 OA
HETATM   18  C   UNL     1       0.779  -0.039   0.270  1.00  0.00     0.210 C 
ENDBRANCH  14  17
ENDBRANCH   9  11
ENDBRANCH   1   5
BRANCH   2  19
HETATM   19  N   UNL     1       9.786   6.994  -2.810  1.00  0.00    -0.267 N 
HETATM   20  C   UNL     1      10.865   6.232  -3.199  1.00  0.00     0.236 C 
HETATM   21  O   UNL     1      10.921   5.019  -3.005  1.00  0.00    -0.272 OA
HETATM   22  H   UNL     1       9.666   7.980  -3.034  1.00  0.00     0.190 HD
BRANCH  20  23
HETATM   23  C   UNL     1      11.962   6.998  -3.901  1.00  0.00     0.109 C 
BRANCH  23  24
HETATM   24  C   UNL     1      12.653   7.981  -2.958  1.00  0.00     0.048 C 
BRANCH  24  25
HETATM   25  C   UNL     1      13.741   8.833  -3.578  1.00  0.00    -0.056 A 
HETATM   26  C   UNL     1      14.041  10.075  -2.991  1.00  0.00     0.031 A 
HETATM   27  C   UNL     1      15.063  10.876  -3.503  1.00  0.00     0.034 A 
HETATM   28 CL   UNL     1      15.409  12.393  -2.767  1.00  0.00    -0.084 Cl
HETATM   29  C   UNL     1      15.809  10.454  -4.599  1.00  0.00     0.024 A 
HETATM   30  C   UNL     1      15.532   9.220  -5.182  1.00  0.00     0.002 A 
HETATM   31  C   UNL     1      14.511   8.412  -4.671  1.00  0.00     0.007 A 
ENDBRANCH  24  25
ENDBRANCH  23  24
ENDBRANCH  20  23
ENDBRANCH   2  19
TORSDOF 7
