REMARK  5 active torsions:
REMARK  status: ('A' for Active; 'I' for Inactive)
REMARK    1  A    between atoms: C_3  and  N_4 
REMARK       I    between atoms: N_4  and  C_5 
REMARK       I    between atoms: C_5  and  N_6 
REMARK    2  A    between atoms: N_6  and  C_7 
REMARK    3  A    between atoms: C_7  and  C_8 
REMARK    4  A    between atoms: C_8  and  C_9 
REMARK    5  A    between atoms: N_15  and  C_16 
ROOT
HETATM    1  C   UNL     1       1.053  -0.276   1.690  1.00  0.00     0.054 C 
HETATM    2  C   UNL     1       2.389  -0.239   1.050  1.00  0.00     0.003 A 
HETATM    3  C   UNL     1       3.177   0.886   0.710  1.00  0.00     0.159 A 
HETATM    4  N   UNL     1       4.339   0.521   0.165  1.00  0.00    -0.149 NA
HETATM    5  N   UNL     1       4.312  -0.839   0.099  1.00  0.00    -0.241 N 
HETATM    6  C   UNL     1       3.157  -1.320   0.670  1.00  0.00     0.129 A 
ENDROOT
BRANCH   3   7
HETATM    7  N   UNL     1       2.810   2.195   0.939  1.00  0.00    -0.291 N 
HETATM    8  C   UNL     1       3.460   3.339   0.583  1.00  0.00     0.322 C 
HETATM    9  N   UNL     1       4.574   3.202  -0.183  1.00  0.00    -0.339 N 
HETATM   10  O   UNL     1       3.002   4.428   0.923  1.00  0.00    -0.247 OA
HETATM   11  H   UNL     1       4.934   2.251  -0.243  1.00  0.00     0.164 HD
HETATM   12  H   UNL     1       1.948   2.360   1.435  1.00  0.00     0.172 HD
BRANCH   9  13
HETATM   13  C   UNL     1       5.408   4.314  -0.604  1.00  0.00     0.082 C 
HETATM   14  C   UNL     1       6.123   3.961  -1.906  1.00  0.00     0.032 C 
BRANCH  13  15
HETATM   15  C   UNL     1       6.378   4.770   0.503  1.00  0.00     0.029 C 
BRANCH  15  16
HETATM   16  C   UNL     1       7.384   3.726   0.910  1.00  0.00    -0.013 A 
HETATM   17  C   UNL     1       8.731   3.636   0.237  1.00  0.00     0.005 A 
HETATM   18  C   UNL     1       8.630   4.152   1.645  1.00  0.00     0.005 A 
ENDBRANCH  15  16
ENDBRANCH  13  15
ENDBRANCH   9  13
ENDBRANCH   3   7
BRANCH   5  19
HETATM   19  C   UNL     1       5.428  -1.537  -0.456  1.00  0.00     0.079 A 
HETATM   20  C   UNL     1       5.412  -2.879  -0.870  1.00  0.00     0.062 A 
HETATM   21 CL   UNL     1       4.012  -3.889  -0.961  1.00  0.00    -0.082 Cl
HETATM   22  C   UNL     1       6.590  -3.473  -1.358  1.00  0.00     0.026 A 
HETATM   23  C   UNL     1       7.777  -2.748  -1.455  1.00  0.00     0.002 A 
HETATM   24  C   UNL     1       7.797  -1.413  -1.077  1.00  0.00     0.002 A 
HETATM   25  C   UNL     1       6.635  -0.812  -0.588  1.00  0.00     0.033 A 
ENDBRANCH   5  19
TORSDOF 5
