REMARK  2 active torsions:
REMARK  status: ('A' for Active; 'I' for Inactive)
REMARK    1  A    between atoms: C_2  and  C_3 
REMARK    2  A    between atoms: C_6  and  C_7 
ROOT
HETATM    1  C   UNL     1       4.266  -3.551   4.236  1.00  0.00     0.119 C 
HETATM    2  S   UNL     1       5.310  -2.110   3.931  1.00  0.00    -0.141 SA
HETATM    3  C   UNL     1       6.869  -2.681   4.662  1.00  0.00     0.136 C 
HETATM    4  C   UNL     1       7.641  -1.470   5.179  1.00  0.00     0.031 C 
HETATM    5  C   UNL     1       7.661  -3.418   3.610  1.00  0.00     0.236 C 
HETATM    6  O   UNL     1       8.772  -3.097   3.211  1.00  0.00    -0.272 OA
HETATM    7  N   UNL     1       7.197  -4.651   3.063  1.00  0.00    -0.311 N 
HETATM    8  C   UNL     1       6.005  -5.310   3.290  1.00  0.00     0.134 A 
HETATM    9  C   UNL     1       4.788  -4.890   3.808  1.00  0.00     0.032 A 
HETATM   10  N   UNL     1       5.834  -6.626   2.940  1.00  0.00    -0.262 N 
HETATM   11  H   UNL     1       6.507  -7.253   2.512  1.00  0.00     0.191 HD
HETATM   12  N   UNL     1       4.638  -7.123   3.244  1.00  0.00    -0.178 NA
HETATM   13  C   UNL     1       3.974  -6.081   3.747  1.00  0.00     0.062 A 
HETATM   14  C   UNL     1       2.553  -6.264   4.158  1.00  0.00     0.073 C 
HETATM   15  H   UNL     1       7.891  -5.086   2.462  1.00  0.00     0.170 HD
ENDROOT
BRANCH   1  16
HETATM   16  C   UNL     1       3.770  -3.629   5.674  1.00  0.00    -0.040 A 
HETATM   17  C   UNL     1       2.575  -2.957   5.999  1.00  0.00     0.009 A 
HETATM   18  C   UNL     1       2.044  -3.001   7.290  1.00  0.00     0.007 A 
HETATM   19  C   UNL     1       2.701  -3.704   8.302  1.00  0.00    -0.059 A 
HETATM   20  C   UNL     1       3.899  -4.360   7.998  1.00  0.00     0.007 A 
HETATM   21  C   UNL     1       4.427  -4.323   6.703  1.00  0.00     0.009 A 
BRANCH  19  22
HETATM   22  C   UNL     1       2.117  -3.772   9.691  1.00  0.00     0.034 C 
HETATM   23  C   UNL     1       1.469  -5.120   9.974  1.00  0.00     0.010 C 
ENDBRANCH  19  22
ENDBRANCH   1  16
TORSDOF 2
