REMARK  5 active torsions:
REMARK  status: ('A' for Active; 'I' for Inactive)
REMARK    1  A    between atoms: C_2  and  N_3 
REMARK    2  A    between atoms: C_2  and  C_21 
REMARK       I    between atoms: N_3  and  C_5 
REMARK       I    between atoms: C_5  and  N_6 
REMARK    3  A    between atoms: N_6  and  C_7 
REMARK    4  A    between atoms: C_7  and  C_8 
REMARK    5  A    between atoms: C_10  and  C_11 
ROOT
HETATM    1  N   UNL     1       3.119   0.624  -0.998  1.00  0.00    -0.218 N 
HETATM    2  H   UNL     1       3.752   1.408  -1.010  1.00  0.00     0.178 HD
HETATM    3  C   UNL     1       2.683   0.157  -2.195  1.00  0.00     0.670 C 
HETATM    4  N   UNL     1       1.717  -0.787  -2.247  1.00  0.00    -0.221 N 
HETATM    5  N   UNL     1       3.213   0.666  -3.341  1.00  0.00    -0.231 N 
HETATM    6  C   UNL     1       4.257   1.686  -3.398  1.00  0.00     0.165 C 
HETATM    7  H   UNL     1       1.204  -0.968  -1.396  1.00  0.00     0.178 HD
HETATM    8  H   UNL     1       2.882   0.296  -4.219  1.00  0.00     0.177 HD
ENDROOT
BRANCH   4   9
HETATM    9  C   UNL     1       1.458  -1.687  -3.373  1.00  0.00     0.199 C 
BRANCH   9  10
HETATM   10  C   UNL     1       2.464  -2.777  -3.320  1.00  0.00     0.077 A 
HETATM   11  N   UNL     1       3.566  -2.694  -2.484  1.00  0.00    -0.225 NA
HETATM   12  C   UNL     1       4.169  -3.862  -2.629  1.00  0.00     0.179 A 
HETATM   13  O   UNL     1       3.561  -4.687  -3.539  1.00  0.00    -0.301 OA
HETATM   14  C   UNL     1       2.479  -3.985  -3.974  1.00  0.00     0.173 A 
BRANCH  12  15
HETATM   15  C   UNL     1       5.345  -4.386  -1.940  1.00  0.00     0.017 A 
HETATM   16  C   UNL     1       6.080  -3.550  -1.084  1.00  0.00     0.016 A 
HETATM   17  C   UNL     1       7.193  -4.033  -0.391  1.00  0.00     0.001 A 
HETATM   18  C   UNL     1       7.584  -5.361  -0.543  1.00  0.00     0.000 A 
HETATM   19  C   UNL     1       6.867  -6.205  -1.389  1.00  0.00     0.001 A 
HETATM   20  C   UNL     1       5.755  -5.720  -2.084  1.00  0.00     0.016 A 
ENDBRANCH  12  15
ENDBRANCH   9  10
ENDBRANCH   4   9
BRANCH   1  21
HETATM   21  C   UNL     1       2.911  -0.055   0.294  1.00  0.00     0.135 C 
HETATM   22  C   UNL     1       3.933   0.432   1.318  1.00  0.00     0.038 C 
BRANCH  21  23
HETATM   23  C   UNL     1       1.505   0.152   0.780  1.00  0.00     0.005 A 
HETATM   24  S   UNL     1       0.717   1.670   0.641  1.00  0.00    -0.104 SA
HETATM   25  C   UNL     1      -0.704   1.077   1.380  1.00  0.00     0.050 A 
HETATM   26  C   UNL     1      -0.590  -0.249   1.728  1.00  0.00     0.008 A 
HETATM   27  C   UNL     1       0.684  -0.784   1.385  1.00  0.00     0.017 A 
ENDBRANCH  21  23
ENDBRANCH   1  21
TORSDOF 5
