REMARK  5 active torsions:
REMARK  status: ('A' for Active; 'I' for Inactive)
REMARK       I    between atoms: C_2  and  N_3 
REMARK    1  A    between atoms: C_2  and  O_16 
REMARK    2  A    between atoms: N_3  and  C_4 
REMARK    3  A    between atoms: C_7  and  C_10 
REMARK    4  A    between atoms: O_16  and  C_17 
REMARK    5  A    between atoms: C_17  and  C_18 
ROOT
HETATM    1  C   UNL     1       2.033  -2.157   0.691  1.00  0.00     0.036 A 
HETATM    2  C   UNL     1       0.656  -2.279   0.874  1.00  0.00     0.030 A 
HETATM    3  C   UNL     1       0.121  -3.398   1.526  1.00  0.00     0.014 A 
HETATM    4  C   UNL     1       0.952  -4.417   2.006  1.00  0.00    -0.023 A 
HETATM    5  C   UNL     1       2.334  -4.285   1.833  1.00  0.00     0.014 A 
HETATM    6  C   UNL     1       2.869  -3.164   1.186  1.00  0.00     0.030 A 
ENDROOT
BRANCH   1   7
HETATM    7  N   UNL     1       2.643  -1.087   0.015  1.00  0.00    -0.303 N 
HETATM    8  C   UNL     1       2.048  -0.031  -0.617  1.00  0.00     0.365 C 
HETATM    9  O   UNL     1       0.857   0.232  -0.675  1.00  0.00    -0.238 OA
HETATM   10  H   UNL     1       3.649  -1.091  -0.075  1.00  0.00     0.171 HD
BRANCH   8  11
HETATM   11  O   UNL     1       3.024   0.694  -1.221  1.00  0.00    -0.299 OA
BRANCH  11  12
HETATM   12  C   UNL     1       2.586   1.798  -2.024  1.00  0.00     0.219 C 
BRANCH  12  13
HETATM   13  C   UNL     1       2.981   3.091  -1.360  1.00  0.00    -0.034 A 
HETATM   14  C   UNL     1       4.191   3.721  -1.683  1.00  0.00     0.009 A 
HETATM   15  C   UNL     1       4.548   4.923  -1.069  1.00  0.00     0.001 A 
HETATM   16  C   UNL     1       3.704   5.500  -0.122  1.00  0.00     0.000 A 
HETATM   17  C   UNL     1       2.506   4.873   0.218  1.00  0.00     0.001 A 
HETATM   18  C   UNL     1       2.148   3.672  -0.395  1.00  0.00     0.009 A 
ENDBRANCH  12  13
ENDBRANCH  11  12
ENDBRANCH   8  11
ENDBRANCH   1   7
BRANCH   4  19
HETATM   19  C   UNL     1       0.404  -5.597   2.651  1.00  0.00     0.010 A 
HETATM   20  C   UNL     1       0.890  -6.925   2.717  1.00  0.00     0.152 A 
HETATM   21  N   UNL     1       0.093  -7.736   3.418  1.00  0.00    -0.187 NA
HETATM   22  N   UNL     1      -0.909  -6.931   3.804  1.00  0.00    -0.289 N 
HETATM   23  H   UNL     1      -1.657  -7.329   4.363  1.00  0.00     0.188 HD
HETATM   24  C   UNL     1      -0.770  -5.643   3.374  1.00  0.00     0.123 A 
ENDBRANCH   4  19
TORSDOF 5
