REMARK  7 active torsions:
REMARK  status: ('A' for Active; 'I' for Inactive)
REMARK    1  A    between atoms: O_2  and  C_3 
REMARK    2  A    between atoms: C_5  and  C_6 
REMARK    3  A    between atoms: C_6  and  O_7 
REMARK    4  A    between atoms: C_6  and  C_8 
REMARK    5  A    between atoms: C_8  and  N_9 
REMARK       I    between atoms: N_9  and  C_10 
REMARK    6  A    between atoms: C_10  and  C_11 
REMARK    7  A    between atoms: C_12  and  C_13 
ROOT
HETATM    1  C   UNL     1      -0.899   4.948   2.635  1.00  0.00     0.089 C 
HETATM    2  C   UNL     1      -2.369   5.431   2.602  1.00  0.00     0.068 C 
HETATM    3  C   UNL     1      -2.900   5.477   1.164  1.00  0.00     0.013 C 
HETATM    4  C   UNL     1      -2.830   4.088   0.526  1.00  0.00     0.001 C 
HETATM    5  C   UNL     1      -1.445   3.453   0.637  1.00  0.00     0.001 C 
HETATM    6  C   UNL     1      -0.879   3.511   2.062  1.00  0.00     0.015 C 
ENDROOT
BRANCH   1   7
HETATM    7  C   UNL     1       0.162   5.788   1.888  1.00  0.00     0.222 C 
HETATM    8  N   UNL     1       0.047   7.151   1.963  1.00  0.00    -0.358 N 
HETATM    9  H   UNL     1      -0.516   7.506   2.739  1.00  0.00     0.162 HD
HETATM   10  O   UNL     1       1.106   5.268   1.293  1.00  0.00    -0.273 OA
BRANCH   8  11
HETATM   11  C   UNL     1       1.088   8.050   1.476  1.00  0.00     0.159 C 
BRANCH  11  12
HETATM   12  C   UNL     1       1.321   7.977  -0.051  1.00  0.00     0.169 C 
BRANCH  12  13
HETATM   13  C   UNL     1       2.334   9.013  -0.505  1.00  0.00    -0.025 A 
HETATM   14  C   UNL     1       3.687   8.868  -0.136  1.00  0.00     0.046 A 
HETATM   15  C   UNL     1       4.641   9.815  -0.516  1.00  0.00     0.068 A 
HETATM   16  C   UNL     1       4.248  10.909  -1.287  1.00  0.00     0.037 A 
HETATM   17  C   UNL     1       2.917  11.062  -1.673  1.00  0.00     0.003 A 
HETATM   18  C   UNL     1       1.966  10.121  -1.281  1.00  0.00     0.010 A 
BRANCH  15  19
HETATM   19  O   UNL     1       5.973   9.787  -0.202  1.00  0.00    -0.356 OA
HETATM   20  C   UNL     1       6.416   8.724   0.631  1.00  0.00     0.210 C 
ENDBRANCH  15  19
ENDBRANCH  12  13
BRANCH  12  21
HETATM   21  O   UNL     1       0.064   8.164  -0.717  1.00  0.00    -0.389 OA
HETATM   22  H   UNL     1      -0.539   7.541  -0.274  1.00  0.00     0.210 HD
ENDBRANCH  12  21
ENDBRANCH  11  12
ENDBRANCH   8  11
ENDBRANCH   1   7
BRANCH   2  23
HETATM   23  C   UNL     1      -2.641   6.689   3.377  1.00  0.00     0.110 A 
HETATM   24  N   UNL     1      -1.751   7.494   3.925  1.00  0.00    -0.233 NA
HETATM   25  C   UNL     1      -2.471   8.455   4.595  1.00  0.00     0.087 A 
HETATM   26  C   UNL     1      -3.835   8.240   4.446  1.00  0.00     0.062 A 
HETATM   27  C   UNL     1      -2.018   9.538   5.358  1.00  0.00     0.057 A 
HETATM   28  N   UNL     1      -3.918   7.114   3.667  1.00  0.00    -0.342 N 
HETATM   29  C   UNL     1      -4.808   9.059   5.021  1.00  0.00     0.034 A 
HETATM   30  H   UNL     1      -4.772   6.663   3.373  1.00  0.00     0.167 HD
HETATM   31  C   UNL     1      -4.343  10.139   5.783  1.00  0.00     0.026 A 
HETATM   32  C   UNL     1      -2.975  10.370   5.947  1.00  0.00     0.036 A 
HETATM   33 CL   UNL     1      -2.454  11.709   6.899  1.00  0.00    -0.084 Cl
ENDBRANCH   2  23
TORSDOF 7
