REMARK  4 active torsions:
REMARK  status: ('A' for Active; 'I' for Inactive)
REMARK    1  A    between atoms: C_2  and  O_3 
REMARK    2  A    between atoms: O_3  and  C_4 
REMARK    3  A    between atoms: C_7  and  N_8 
REMARK       I    between atoms: N_8  and  C_9 
REMARK    4  A    between atoms: C_9  and  C_10 
ROOT
HETATM    1  N   UNL     1       2.492   6.303  -1.382  1.00  0.00    -0.323 N 
HETATM    2  C   UNL     1       2.665   6.856  -2.639  1.00  0.00     0.257 C 
HETATM    3  O   UNL     1       2.824   6.243  -3.688  1.00  0.00    -0.267 OA
HETATM    4  H   UNL     1       2.284   6.925  -0.615  1.00  0.00     0.169 HD
ENDROOT
BRANCH   1   5
HETATM    5  C   UNL     1       2.538   4.933  -1.037  1.00  0.00     0.035 A 
HETATM    6  C   UNL     1       2.738   3.899  -1.953  1.00  0.00     0.032 A 
HETATM    7  C   UNL     1       2.792   2.567  -1.524  1.00  0.00     0.039 A 
HETATM    8  C   UNL     1       2.676   2.263  -0.171  1.00  0.00     0.069 A 
HETATM    9  C   UNL     1       2.437   3.282   0.745  1.00  0.00     0.039 A 
HETATM   10  C   UNL     1       2.374   4.611   0.317  1.00  0.00     0.032 A 
BRANCH   8  11
HETATM   11  O   UNL     1       2.704   0.991   0.326  1.00  0.00    -0.347 OA
BRANCH  11  12
HETATM   12  C   UNL     1       3.790   0.175  -0.139  1.00  0.00     0.120 C 
HETATM   13  C   UNL     1       3.202  -1.140  -0.637  1.00  0.00     0.040 C 
HETATM   14  C   UNL     1       4.732  -0.064   1.037  1.00  0.00     0.040 C 
ENDBRANCH  11  12
ENDBRANCH   8  11
ENDBRANCH   1   5
BRANCH   2  15
HETATM   15  C   UNL     1       2.637   8.341  -2.706  1.00  0.00     0.051 A 
HETATM   16  C   UNL     1       2.314   8.941  -3.921  1.00  0.00     0.133 A 
HETATM   17  N   UNL     1       2.257  10.283  -4.115  1.00  0.00    -0.271 NA
HETATM   18  C   UNL     1       2.553  11.063  -3.051  1.00  0.00     0.135 A 
HETATM   19  C   UNL     1       2.904  10.558  -1.808  1.00  0.00     0.029 A 
HETATM   20 BR   UNL     1       3.315  11.718  -0.379  1.00  0.00    -0.050 Br
HETATM   21  C   UNL     1       2.954   9.176  -1.630  1.00  0.00     0.039 A 
ENDBRANCH   2  15
TORSDOF 4
