REMARK  2 active torsions:
REMARK  status: ('A' for Active; 'I' for Inactive)
REMARK    1  A    between atoms: C_4  and  N_5 
REMARK    2  A    between atoms: C_12  and  C_13 
ROOT
HETATM    1  N   UNL     1       2.849   0.067  -0.220  1.00  0.00    -0.236 N 
HETATM    2  N   UNL     1       3.605   1.197  -0.604  1.00  0.00    -0.179 NA
HETATM    3  C   UNL     1       4.928   0.798  -0.586  1.00  0.00     0.119 A 
HETATM    4  C   UNL     1       5.060  -0.503  -0.276  1.00  0.00     0.123 A 
HETATM    5  C   UNL     1       3.709  -1.025  -0.024  1.00  0.00     0.280 A 
HETATM    6  O   UNL     1       3.451  -2.171   0.301  1.00  0.00    -0.265 OA
HETATM    7  N   UNL     1       6.026   1.585  -0.798  1.00  0.00    -0.344 N 
HETATM    8  C   UNL     1       7.311   1.095  -0.688  1.00  0.00     0.049 A 
HETATM    9  C   UNL     1       7.550  -0.195  -0.381  1.00  0.00     0.086 A 
HETATM   10  C   UNL     1       6.389  -1.109  -0.160  1.00  0.00     0.193 A 
HETATM   11  O   UNL     1       6.583  -2.288   0.105  1.00  0.00    -0.287 OA
HETATM   12  H   UNL     1       3.464   1.987   0.026  1.00  0.00     0.155 HD
HETATM   13  H   UNL     1       5.887   2.557  -1.048  1.00  0.00     0.167 HD
ENDROOT
BRANCH   8  14
HETATM   14  C   UNL     1       8.436   2.028  -0.913  1.00  0.00     0.012 A 
HETATM   15  C   UNL     1       8.632   3.197  -0.155  1.00  0.00     0.046 A 
HETATM   16 CL   UNL     1       7.573   3.647   1.140  1.00  0.00    -0.083 Cl
HETATM   17  C   UNL     1       9.714   4.044  -0.418  1.00  0.00     0.025 A 
HETATM   18  C   UNL     1      10.615   3.739  -1.437  1.00  0.00     0.002 A 
HETATM   19  C   UNL     1      10.434   2.587  -2.198  1.00  0.00     0.001 A 
HETATM   20  C   UNL     1       9.353   1.741  -1.941  1.00  0.00     0.015 A 
ENDBRANCH   8  14
BRANCH   1  21
HETATM   21  C   UNL     1       1.443   0.143  -0.112  1.00  0.00     0.055 A 
HETATM   22  C   UNL     1       0.688  -0.946   0.341  1.00  0.00     0.031 A 
HETATM   23  C   UNL     1      -0.703  -0.858   0.462  1.00  0.00     0.002 A 
HETATM   24  C   UNL     1      -1.362   0.321   0.129  1.00  0.00     0.000 A 
HETATM   25  C   UNL     1      -0.631   1.412  -0.331  1.00  0.00     0.002 A 
HETATM   26  C   UNL     1       0.760   1.323  -0.452  1.00  0.00     0.031 A 
ENDBRANCH   1  21
TORSDOF 2
