REMARK  6 active torsions:
REMARK  status: ('A' for Active; 'I' for Inactive)
REMARK    1  A    between atoms: C_3  and  C_4 
REMARK    2  A    between atoms: N_5  and  C_6 
REMARK    3  A    between atoms: C_11  and  S_12 
REMARK    4  A    between atoms: S_12  and  C_13 
REMARK    5  A    between atoms: C_13  and  C_14 
REMARK       I    between atoms: C_14  and  N_15 
REMARK    6  A    between atoms: N_15  and  C_16 
ROOT
HETATM    1  S   UNL     1       1.372   6.115  -1.608  1.00  0.00    -0.081 SA
ENDROOT
BRANCH   1   2
HETATM    2  C   UNL     1       1.817   4.658  -0.790  1.00  0.00     0.192 C 
HETATM    3  N   UNL     1       0.961   3.857  -0.077  1.00  0.00    -0.302 N 
HETATM    4  C   UNL     1       1.522   2.590  -0.198  1.00  0.00     0.166 C 
HETATM    5  N   UNL     1       2.759   2.721  -0.644  1.00  0.00    -0.128 NA
HETATM    6  N   UNL     1       2.940   4.020  -1.027  1.00  0.00    -0.122 NA
BRANCH   3   7
HETATM    7  C   UNL     1      -0.302   4.172   0.570  1.00  0.00     0.094 C 
HETATM    8  C   UNL     1      -0.448   3.532   1.964  1.00  0.00     0.026 C 
HETATM    9  C   UNL     1      -1.615   4.255   2.620  1.00  0.00     0.002 C 
HETATM   10  C   UNL     1      -1.672   5.628   1.971  1.00  0.00     0.002 C 
HETATM   11  C   UNL     1      -0.568   5.646   0.920  1.00  0.00     0.026 C 
ENDBRANCH   3   7
BRANCH   4  12
HETATM   12  C   UNL     1       0.830   1.315  -0.015  1.00  0.00     0.034 A 
HETATM   13  C   UNL     1      -0.275   1.025  -0.837  1.00  0.00     0.017 A 
HETATM   14  C   UNL     1      -0.948  -0.194  -0.734  1.00  0.00     0.001 A 
HETATM   15  C   UNL     1      -0.524  -1.142   0.191  1.00  0.00     0.002 A 
HETATM   16  C   UNL     1       0.575  -0.874   1.010  1.00  0.00     0.025 A 
HETATM   17  C   UNL     1       1.254   0.346   0.906  1.00  0.00     0.048 A 
HETATM   18 CL   UNL     1       2.584   0.614   1.977  1.00  0.00    -0.083 Cl
ENDBRANCH   4  12
ENDBRANCH   1   2
BRANCH   1  19
HETATM   19  C   UNL     1       1.818   5.655  -3.313  1.00  0.00     0.185 C 
BRANCH  19  20
HETATM   20  C   UNL     1       1.116   4.366  -3.735  1.00  0.00     0.231 C 
HETATM   21  N   UNL     1       1.939   3.254  -3.659  1.00  0.00    -0.326 N 
HETATM   22  H   UNL     1       2.799   3.376  -3.122  1.00  0.00     0.169 HD
HETATM   23  O   UNL     1      -0.069   4.363  -4.061  1.00  0.00    -0.272 OA
BRANCH  21  24
HETATM   24  C   UNL     1       1.622   1.917  -3.975  1.00  0.00     0.037 A 
HETATM   25  C   UNL     1       0.428   1.526  -4.589  1.00  0.00     0.061 A 
HETATM   26  C   UNL     1       0.246   0.176  -4.794  1.00  0.00     0.065 A 
HETATM   27  C   UNL     1       1.200  -0.773  -4.434  1.00  0.00     0.063 A 
HETATM   28  N   UNL     1      -0.837  -0.499  -5.347  1.00  0.00    -0.306 N 
HETATM   29  N   UNL     1       0.707  -2.028  -4.769  1.00  0.00    -0.307 N 
HETATM   30  C   UNL     1       2.389  -0.425  -3.848  1.00  0.00     0.034 A 
HETATM   31  C   UNL     1      -0.565  -1.875  -5.337  1.00  0.00     0.325 A 
HETATM   32  H   UNL     1       1.160  -2.917  -4.636  1.00  0.00     0.170 HD
HETATM   33  O   UNL     1      -1.295  -2.764  -5.737  1.00  0.00    -0.247 OA
HETATM   34  C   UNL     1       2.593   0.941  -3.618  1.00  0.00     0.032 A 
HETATM   35  H   UNL     1      -1.688  -0.096  -5.706  1.00  0.00     0.170 HD
ENDBRANCH  21  24
ENDBRANCH  19  20
ENDBRANCH   1  19
TORSDOF 6
