REMARK  6 active torsions:
REMARK  status: ('A' for Active; 'I' for Inactive)
REMARK    1  A    between atoms: C_2  and  N_3 
REMARK    2  A    between atoms: N_6  and  C_8 
REMARK    3  A    between atoms: C_8  and  C_9 
REMARK       I    between atoms: C_9  and  N_10 
REMARK       I    between atoms: N_10  and  C_11 
REMARK       I    between atoms: C_11  and  N_12 
REMARK    4  A    between atoms: N_12  and  C_13 
REMARK    5  A    between atoms: C_13  and  C_14 
REMARK    6  A    between atoms: C_14  and  C_15 
ROOT
HETATM    1  C   UNL     1       1.165   7.598   0.681  1.00  0.00     0.251 C 
HETATM    2  N   UNL     1       1.239   8.778   1.370  1.00  0.00    -0.278 N 
HETATM    3  C   UNL     1       0.964   8.932   2.706  1.00  0.00     0.322 C 
HETATM    4  N   UNL     1       0.874  10.245   3.079  1.00  0.00    -0.343 N 
HETATM    5  O   UNL     1       0.860   7.987   3.478  1.00  0.00    -0.247 OA
HETATM    6  O   UNL     1       1.095   7.591  -0.552  1.00  0.00    -0.271 OA
HETATM    7  H   UNL     1       1.233   9.608   0.795  1.00  0.00     0.173 HD
HETATM    8  H   UNL     1       0.634  10.918   2.362  1.00  0.00     0.164 HD
ENDROOT
BRANCH   1   9
HETATM    9  C   UNL     1       1.130   6.269   1.452  1.00  0.00     0.337 C 
BRANCH   9  10
HETATM   10  N   UNL     1       1.240   5.086   0.485  1.00  0.00    -0.060 N 
HETATM   11  C   UNL     1       2.665   4.882  -0.034  1.00  0.00     0.255 C 
HETATM   12  C   UNL     1       2.683   3.753  -1.081  1.00  0.00     0.150 C 
HETATM   13  N   UNL     1       2.098   2.531  -0.511  1.00  0.00    -0.378 N 
HETATM   14  C   UNL     1       0.736   2.651   0.029  1.00  0.00     0.150 C 
HETATM   15  C   UNL     1       0.673   3.799   1.064  1.00  0.00     0.255 C 
HETATM   16  H   UNL     1       0.675   5.352  -0.337  1.00  0.00     0.280 HD
BRANCH  13  17
HETATM   17  C   UNL     1       2.807   1.347  -0.425  1.00  0.00     0.030 A 
HETATM   18  C   UNL     1       4.198   1.329  -0.219  1.00  0.00     0.032 A 
HETATM   19  C   UNL     1       4.913   0.130  -0.121  1.00  0.00     0.044 A 
HETATM   20  C   UNL     1       4.243  -1.077  -0.234  1.00  0.00     0.116 A 
HETATM   21  C   UNL     1       2.875  -1.104  -0.445  1.00  0.00     0.044 A 
HETATM   22  F   UNL     1       4.924  -2.226  -0.140  1.00  0.00    -0.206 F 
HETATM   23  C   UNL     1       2.167   0.100  -0.538  1.00  0.00     0.032 A 
ENDBRANCH  13  17
ENDBRANCH   9  10
ENDBRANCH   1   9
BRANCH   4  24
HETATM   24  C   UNL     1       0.413  10.588   4.419  1.00  0.00     0.129 C 
BRANCH  24  25
HETATM   25  C   UNL     1       0.358  12.095   4.686  1.00  0.00     0.060 C 
BRANCH  25  26
HETATM   26  C   UNL     1      -0.306  12.916   3.614  1.00  0.00    -0.029 A 
HETATM   27  C   UNL     1      -1.541  12.672   2.921  1.00  0.00     0.001 A 
HETATM   28  C   UNL     1      -1.709  13.704   1.992  1.00  0.00     0.043 A 
HETATM   29  C   UNL     1      -2.528  11.667   2.976  1.00  0.00     0.056 A 
HETATM   30  C   UNL     1      -2.798  13.773   1.112  1.00  0.00     0.033 A 
HETATM   31  N   UNL     1      -0.654  14.570   2.150  1.00  0.00    -0.365 N 
HETATM   32  C   UNL     1      -3.747  12.751   1.174  1.00  0.00     0.044 A 
HETATM   33  C   UNL     1      -3.608  11.723   2.094  1.00  0.00     0.117 A 
HETATM   34  F   UNL     1      -4.527  10.748   2.131  1.00  0.00    -0.206 F 
HETATM   35  H   UNL     1      -0.534  15.431   1.632  1.00  0.00     0.165 HD
HETATM   36  C   UNL     1       0.202  14.098   3.106  1.00  0.00     0.096 A 
ENDBRANCH  25  26
ENDBRANCH  24  25
ENDBRANCH   4  24
TORSDOF 6
