REMARK  5 active torsions:
REMARK  status: ('A' for Active; 'I' for Inactive)
REMARK    1  A    between atoms: C_8  and  N_9 
REMARK       I    between atoms: N_9  and  C_10 
REMARK    2  A    between atoms: C_10  and  C_11 
REMARK    3  A    between atoms: C_11  and  N_12 
REMARK    4  A    between atoms: N_12  and  C_13 
REMARK    5  A    between atoms: C_13  and  C_14 
ROOT
HETATM    1  C   UNL     1      -1.260   2.374  -1.627  1.00  0.00     0.372 C 
ENDROOT
BRANCH   1   2
HETATM    2  C   UNL     1      -2.083   1.997  -2.870  1.00  0.00     0.250 C 
HETATM    3  N   UNL     1      -2.192   0.633  -3.028  1.00  0.00    -0.322 N 
HETATM    4  H   UNL     1      -1.725   0.089  -2.305  1.00  0.00     0.169 HD
HETATM    5  O   UNL     1      -2.580   2.869  -3.574  1.00  0.00    -0.271 OA
BRANCH   3   6
HETATM    6  C   UNL     1      -2.812  -0.066  -4.046  1.00  0.00     0.085 A 
HETATM    7  C   UNL     1      -2.807  -1.448  -4.077  1.00  0.00     0.052 A 
HETATM    8  C   UNL     1      -2.229  -2.467  -3.169  1.00  0.00     0.072 C 
HETATM    9  N   UNL     1      -3.489  -1.800  -5.206  1.00  0.00    -0.280 N 
HETATM   10  H   UNL     1      -3.685  -2.731  -5.556  1.00  0.00     0.189 HD
HETATM   11  N   UNL     1      -3.935  -0.759  -5.914  1.00  0.00    -0.177 NA
HETATM   12  C   UNL     1      -3.533   0.315  -5.215  1.00  0.00     0.079 A 
HETATM   13  C   UNL     1      -3.879   1.658  -5.743  1.00  0.00     0.075 C 
ENDBRANCH   3   6
ENDBRANCH   1   2
BRANCH   1  14
HETATM   14  N   UNL     1      -0.312   1.288  -1.288  1.00  0.00     0.100 N 
HETATM   15  H   UNL     1       0.297   1.142  -2.097  1.00  0.00     0.317 HD
BRANCH  14  16
HETATM   16  C   UNL     1       0.549   1.575  -0.123  1.00  0.00     0.251 C 
HETATM   17  C   UNL     1       1.626   2.618  -0.468  1.00  0.00     0.048 C 
BRANCH  16  18
HETATM   18  C   UNL     1      -0.238   1.834   1.159  1.00  0.00    -0.002 A 
HETATM   19  C   UNL     1      -0.845   0.781   1.886  1.00  0.00     0.064 A 
HETATM   20 CL   UNL     1      -0.710  -0.862   1.330  1.00  0.00    -0.082 Cl
HETATM   21  C   UNL     1      -1.564   1.057   3.064  1.00  0.00     0.056 A 
HETATM   22 CL   UNL     1      -2.319  -0.181   4.010  1.00  0.00    -0.083 Cl
HETATM   23  C   UNL     1      -1.695   2.369   3.523  1.00  0.00     0.026 A 
HETATM   24  C   UNL     1      -1.117   3.414   2.811  1.00  0.00     0.002 A 
HETATM   25  C   UNL     1      -0.400   3.150   1.643  1.00  0.00     0.011 A 
ENDBRANCH  16  18
ENDBRANCH  14  16
ENDBRANCH   1  14
TORSDOF 5
