REMARK  11 active torsions:
REMARK  status: ('A' for Active; 'I' for Inactive)
REMARK    1  A    between atoms: O_1  and  C_2 
REMARK    2  A    between atoms: C_2  and  C_3 
REMARK    3  A    between atoms: C_3  and  O_4 
REMARK    4  A    between atoms: O_4  and  C_5 
REMARK    5  A    between atoms: C_7  and  C_25 
REMARK    6  A    between atoms: C_10  and  N_11 
REMARK       I    between atoms: N_11  and  C_12 
REMARK       I    between atoms: C_12  and  N_14 
REMARK    7  A    between atoms: N_14  and  C_15 
REMARK    8  A    between atoms: N_14  and  C_18 
REMARK    9  A    between atoms: C_15  and  C_16 
REMARK   10  A    between atoms: C_16  and  O_17 
REMARK   11  A    between atoms: C_18  and  C_19 
ROOT
HETATM    1  C   UNL     1       4.581  -0.237   3.388  1.00  0.00     0.096 A 
HETATM    2  C   UNL     1       5.134   0.934   3.922  1.00  0.00     0.051 A 
HETATM    3  C   UNL     1       6.492   0.992   4.271  1.00  0.00    -0.020 A 
HETATM    4  C   UNL     1       7.288  -0.148   4.115  1.00  0.00     0.015 A 
HETATM    5  C   UNL     1       6.749  -1.317   3.575  1.00  0.00     0.033 A 
HETATM    6  C   UNL     1       5.415  -1.345   3.156  1.00  0.00     0.069 A 
ENDROOT
BRANCH   6   7
HETATM    7  N   UNL     1       4.960  -2.517   2.505  1.00  0.00    -0.306 N 
HETATM    8  C   UNL     1       4.430  -2.448   1.226  1.00  0.00     0.323 C 
HETATM    9  O   UNL     1       4.346  -1.412   0.569  1.00  0.00    -0.247 OA
HETATM   10  N   UNL     1       4.091  -3.687   0.684  1.00  0.00    -0.328 N 
HETATM   11  H   UNL     1       5.552  -3.334   2.622  1.00  0.00     0.171 HD
BRANCH  10  12
HETATM   12  C   UNL     1       3.957  -4.920   1.472  1.00  0.00     0.153 C 
BRANCH  12  13
HETATM   13  C   UNL     1       5.252  -5.734   1.507  1.00  0.00     0.184 C 
BRANCH  13  14
HETATM   14  O   UNL     1       6.345  -4.925   1.946  1.00  0.00    -0.399 OA
HETATM   15  H   UNL     1       6.660  -4.450   1.152  1.00  0.00     0.209 HD
ENDBRANCH  13  14
ENDBRANCH  12  13
ENDBRANCH  10  12
BRANCH  10  16
HETATM   16  C   UNL     1       3.878  -3.769  -0.760  1.00  0.00     0.166 C 
BRANCH  16  17
HETATM   17  C   UNL     1       2.439  -3.914  -1.197  1.00  0.00    -0.040 A 
HETATM   18  C   UNL     1       1.386  -3.294  -0.512  1.00  0.00     0.009 A 
HETATM   19  C   UNL     1       0.075  -3.390  -0.985  1.00  0.00     0.001 A 
HETATM   20  C   UNL     1      -0.196  -4.090  -2.159  1.00  0.00     0.000 A 
HETATM   21  C   UNL     1       0.843  -4.694  -2.863  1.00  0.00     0.001 A 
HETATM   22  C   UNL     1       2.152  -4.604  -2.387  1.00  0.00     0.009 A 
ENDBRANCH  16  17
ENDBRANCH  10  16
ENDBRANCH   6   7
BRANCH   1  23
HETATM   23  O   UNL     1       3.247  -0.390   3.100  1.00  0.00    -0.347 OA
BRANCH  23  24
HETATM   24  C   UNL     1       2.343   0.490   3.765  1.00  0.00     0.201 C 
BRANCH  24  25
HETATM   25  C   UNL     1       0.934  -0.076   3.638  1.00  0.00     0.190 C 
BRANCH  25  26
HETATM   26  O   UNL     1       0.005   0.759   4.320  1.00  0.00    -0.399 OA
HETATM   27  H   UNL     1      -0.873   0.356   4.203  1.00  0.00     0.209 HD
ENDBRANCH  25  26
ENDBRANCH  24  25
ENDBRANCH  23  24
ENDBRANCH   1  23
BRANCH   3  28
HETATM   28  C   UNL     1       7.081   2.221   4.768  1.00  0.00     0.010 A 
HETATM   29  C   UNL     1       8.340   2.809   4.508  1.00  0.00     0.152 A 
HETATM   30  N   UNL     1       8.519   3.957   5.167  1.00  0.00    -0.187 NA
HETATM   31  N   UNL     1       7.370   4.111   5.845  1.00  0.00    -0.289 N 
HETATM   32  H   UNL     1       7.264   4.933   6.430  1.00  0.00     0.188 HD
HETATM   33  C   UNL     1       6.477   3.099   5.642  1.00  0.00     0.123 A 
ENDBRANCH   3  28
TORSDOF 11
