REMARK  6 active torsions:
REMARK  status: ('A' for Active; 'I' for Inactive)
REMARK    1  A    between atoms: C_2  and  O_3 
REMARK    2  A    between atoms: C_2  and  C_4 
REMARK    3  A    between atoms: C_6  and  C_16 
REMARK    4  A    between atoms: C_9  and  C_10 
REMARK       I    between atoms: C_16  and  N_18 
REMARK    5  A    between atoms: N_18  and  C_19 
REMARK    6  A    between atoms: C_19  and  C_21 
ROOT
HETATM    1  C   UNL     1       1.992   4.213  -1.483  1.00  0.00    -0.018 A 
HETATM    2  C   UNL     1       2.167   5.276  -0.570  1.00  0.00     0.027 A 
HETATM    3  C   UNL     1       3.440   5.775  -0.253  1.00  0.00     0.032 A 
HETATM    4  C   UNL     1       4.566   5.196  -0.840  1.00  0.00     0.018 A 
HETATM    5  C   UNL     1       4.412   4.159  -1.764  1.00  0.00     0.014 A 
HETATM    6  C   UNL     1       3.137   3.669  -2.098  1.00  0.00    -0.014 A 
ENDROOT
BRANCH   3   7
HETATM    7  C   UNL     1       3.528   6.909   0.710  1.00  0.00     0.252 C 
HETATM    8  O   UNL     1       2.617   7.109   1.506  1.00  0.00    -0.268 OA
HETATM    9  N   UNL     1       4.641   7.719   0.619  1.00  0.00    -0.349 N 
HETATM   10  H   UNL     1       5.269   7.611  -0.163  1.00  0.00     0.163 HD
BRANCH   9  11
HETATM   11  C   UNL     1       4.736   8.950   1.389  1.00  0.00     0.114 C 
HETATM   12  C   UNL     1       3.955  10.079   0.712  1.00  0.00     0.037 C 
BRANCH  11  13
HETATM   13  C   UNL     1       6.191   9.331   1.608  1.00  0.00    -0.036 A 
HETATM   14  C   UNL     1       6.699   9.399   2.918  1.00  0.00     0.012 A 
HETATM   15  C   UNL     1       8.027   9.761   3.149  1.00  0.00     0.043 A 
HETATM   16  C   UNL     1       8.855  10.051   2.073  1.00  0.00     0.116 A 
HETATM   17  F   UNL     1      10.129  10.400   2.294  1.00  0.00    -0.206 F 
HETATM   18  C   UNL     1       8.380   9.986   0.769  1.00  0.00     0.043 A 
HETATM   19  C   UNL     1       7.050   9.629   0.535  1.00  0.00     0.012 A 
ENDBRANCH  11  13
ENDBRANCH   9  11
ENDBRANCH   3   7
BRANCH   1  20
HETATM   20  C   UNL     1       0.584   3.746  -1.813  1.00  0.00     0.148 C 
HETATM   21  C   UNL     1      -0.066   4.615  -2.881  1.00  0.00     0.044 C 
BRANCH  20  22
HETATM   22  O   UNL     1      -0.246   3.769  -0.649  1.00  0.00    -0.391 OA
HETATM   23  H   UNL     1       0.287   3.436   0.093  1.00  0.00     0.210 HD
ENDBRANCH  20  22
ENDBRANCH   1  20
BRANCH   6  24
HETATM   24  C   UNL     1       3.061   2.630  -3.102  1.00  0.00     0.011 A 
HETATM   25  C   UNL     1       3.267   2.689  -4.496  1.00  0.00     0.152 A 
HETATM   26  N   UNL     1       3.127   1.496  -5.081  1.00  0.00    -0.187 NA
HETATM   27  N   UNL     1       2.843   0.672  -4.058  1.00  0.00    -0.289 N 
HETATM   28  H   UNL     1       2.690  -0.310  -4.261  1.00  0.00     0.188 HD
HETATM   29  C   UNL     1       2.807   1.302  -2.846  1.00  0.00     0.123 A 
ENDBRANCH   6  24
TORSDOF 6
