REMARK  5 active torsions:
REMARK  status: ('A' for Active; 'I' for Inactive)
REMARK    1  A    between atoms: C_3  and  N_4 
REMARK    2  A    between atoms: N_5  and  C_6 
REMARK    3  A    between atoms: C_6  and  C_7 
REMARK    4  A    between atoms: C_7  and  C_8 
REMARK    5  A    between atoms: C_19  and  C_20 
ROOT
HETATM    1  C   UNL     1       0.956  -0.291   1.000  1.00  0.00     0.175 C 
HETATM    2  N   UNL     1       2.322  -0.197   0.508  1.00  0.00    -0.186 N 
HETATM    3  C   UNL     1       2.985   0.944   0.358  1.00  0.00     0.680 C 
HETATM    4  N   UNL     1       4.278   0.675   0.217  1.00  0.00    -0.184 N 
HETATM    5  C   UNL     1       4.418  -0.700   0.093  1.00  0.00     0.140 C 
HETATM    6  C   UNL     1       3.170  -1.277   0.198  1.00  0.00     0.077 C 
ENDROOT
BRANCH   4   7
HETATM    7  C   UNL     1       5.405   1.630   0.254  1.00  0.00     0.231 C 
BRANCH   7   8
HETATM    8  C   UNL     1       5.271   2.772  -0.748  1.00  0.00     0.178 C 
HETATM    9  O   UNL     1       4.178   3.265  -1.035  1.00  0.00    -0.290 OA
BRANCH   8  10
HETATM   10  C   UNL     1       6.503   3.341  -1.356  1.00  0.00     0.014 A 
HETATM   11  C   UNL     1       7.726   3.339  -0.675  1.00  0.00     0.055 A 
HETATM   12  C   UNL     1       8.809   3.911  -1.313  1.00  0.00     0.106 A 
HETATM   13  C   UNL     1       8.712   4.464  -2.568  1.00  0.00     0.105 A 
HETATM   14  O   UNL     1      10.064   4.007  -0.800  1.00  0.00    -0.323 OA
HETATM   15  O   UNL     1       9.893   4.973  -3.003  1.00  0.00    -0.323 OA
HETATM   16  C   UNL     1       7.522   4.484  -3.260  1.00  0.00     0.040 A 
HETATM   17  C   UNL     1      10.745   4.704  -1.869  1.00  0.00     0.352 A 
HETATM   18  C   UNL     1       6.401   3.920  -2.642  1.00  0.00     0.018 A 
ENDBRANCH   8  10
ENDBRANCH   7   8
ENDBRANCH   4   7
BRANCH   3  19
HETATM   19  N   UNL     1       2.426   2.149   0.368  1.00  0.00    -0.234 N 
HETATM   20  H   UNL     1       1.430   2.275   0.441  1.00  0.00     0.174 HD
HETATM   21  H   UNL     1       2.957   2.929  -0.020  1.00  0.00     0.174 HD
ENDBRANCH   3  19
BRANCH   6  22
HETATM   22  C   UNL     1       2.859  -2.737   0.028  1.00  0.00    -0.007 A 
HETATM   23  C   UNL     1       3.871  -3.695   0.182  1.00  0.00     0.014 A 
HETATM   24  C   UNL     1       3.587  -5.052   0.011  1.00  0.00     0.001 A 
HETATM   25  C   UNL     1       2.299  -5.460  -0.327  1.00  0.00     0.000 A 
HETATM   26  C   UNL     1       1.294  -4.512  -0.501  1.00  0.00     0.001 A 
HETATM   27  C   UNL     1       1.572  -3.154  -0.326  1.00  0.00     0.014 A 
ENDBRANCH   6  22
TORSDOF 5
