REMARK  4 active torsions:
REMARK  status: ('A' for Active; 'I' for Inactive)
REMARK    1  A    between atoms: C_5  and  C_6 
REMARK    2  A    between atoms: C_6  and  N_7 
REMARK    3  A    between atoms: N_13  and  C_15 
REMARK    4  A    between atoms: C_19  and  C_20 
ROOT
HETATM    1  N   UNL     1       5.043  -2.327  -0.238  1.00  0.00    -0.064 N 
HETATM    2  H   UNL     1       5.168  -2.756  -1.175  1.00  0.00     0.280 HD
HETATM    3  C   UNL     1       5.311  -3.428   0.742  1.00  0.00     0.236 C 
HETATM    4  C   UNL     1       4.971  -2.990   2.171  1.00  0.00     0.039 C 
HETATM    5  C   UNL     1       3.568  -2.339   2.357  1.00  0.00    -0.013 C 
HETATM    6  C   UNL     1       2.419  -3.388   2.366  1.00  0.00     0.245 C 
HETATM    7  N   UNL     1       2.423  -4.238   3.617  1.00  0.00    -0.065 N 
HETATM    8  H   UNL     1       3.288  -4.792   3.678  1.00  0.00     0.280 HD
HETATM    9  C   UNL     1       2.341  -3.413   4.900  1.00  0.00     0.244 C 
HETATM   10  C   UNL     1       3.520  -2.438   4.945  1.00  0.00     0.045 C 
HETATM   11  C   UNL     1       3.525  -1.545   3.694  1.00  0.00     0.022 C 
HETATM   12  C   UNL     1       3.332  -1.305   1.213  1.00  0.00     0.039 C 
HETATM   13  C   UNL     1       3.640  -1.820  -0.187  1.00  0.00     0.236 C 
ENDROOT
BRANCH   7  14
HETATM   14  C   UNL     1       1.291  -5.232   3.593  1.00  0.00     0.188 A 
HETATM   15  C   UNL     1       1.521  -6.508   2.834  1.00  0.00     0.035 A 
HETATM   16  C   UNL     1       1.501  -6.520   4.336  1.00  0.00     0.035 A 
ENDBRANCH   7  14
BRANCH  10  17
HETATM   17  C   UNL     1       3.510  -1.614   6.216  1.00  0.00    -0.052 A 
HETATM   18  C   UNL     1       4.575  -1.728   7.124  1.00  0.00     0.007 A 
HETATM   19  C   UNL     1       4.594  -0.974   8.298  1.00  0.00     0.001 A 
HETATM   20  C   UNL     1       3.551  -0.097   8.582  1.00  0.00     0.000 A 
HETATM   21  C   UNL     1       2.487   0.027   7.693  1.00  0.00     0.001 A 
HETATM   22  C   UNL     1       2.464  -0.726   6.517  1.00  0.00     0.007 A 
ENDBRANCH  10  17
BRANCH   1  23
HETATM   23  C   UNL     1       6.122  -1.218  -0.269  1.00  0.00     0.323 C 
BRANCH  23  24
HETATM   24  C   UNL     1       7.307  -1.622  -1.061  1.00  0.00     0.198 A 
HETATM   25  O   UNL     1       8.443  -0.897  -0.906  1.00  0.00    -0.194 OA
HETATM   26  N   UNL     1       9.377  -1.459  -1.770  1.00  0.00    -0.112 NA
HETATM   27  C   UNL     1       8.706  -2.457  -2.360  1.00  0.00     0.152 A 
HETATM   28  C   UNL     1       9.307  -3.308  -3.407  1.00  0.00     0.096 C 
HETATM   29  N   UNL     1       7.406  -2.609  -1.925  1.00  0.00    -0.208 NA
ENDBRANCH  23  24
ENDBRANCH   1  23
TORSDOF 4
