REMARK  2 active torsions:
REMARK  status: ('A' for Active; 'I' for Inactive)
REMARK    1  A    between atoms: C_5  and  C_6 
REMARK    2  A    between atoms: C_17  and  O_18 
ROOT
HETATM    1  C   UNL     1       1.327  -2.924  -0.142  1.00  0.00     0.200 C 
HETATM    2  N   UNL     1       2.229  -3.471   0.838  1.00  0.00    -0.336 N 
HETATM    3  C   UNL     1       2.577  -4.798   0.779  1.00  0.00     0.255 C 
HETATM    4  O   UNL     1       2.893  -5.417   1.786  1.00  0.00    -0.268 OA
HETATM    5  C   UNL     1       2.611  -5.396  -0.568  1.00  0.00     0.053 A 
HETATM    6  C   UNL     1       2.251  -4.584  -1.649  1.00  0.00     0.026 A 
HETATM    7  N   UNL     1       1.793  -3.270  -1.474  1.00  0.00    -0.267 NA
HETATM    8  C   UNL     1       3.073  -6.701  -0.756  1.00  0.00     0.019 A 
HETATM    9  C   UNL     1       3.198  -7.203  -2.051  1.00  0.00     0.001 A 
HETATM   10  C   UNL     1       2.873  -6.396  -3.142  1.00  0.00     0.002 A 
HETATM   11  C   UNL     1       2.409  -5.092  -2.942  1.00  0.00     0.024 A 
HETATM   12  H   UNL     1       2.081  -3.169   1.794  1.00  0.00     0.164 HD
HETATM   13  H   UNL     1       2.467  -2.599  -1.839  1.00  0.00     0.130 HD
ENDROOT
BRANCH   1  14
HETATM   14  C   UNL     1       1.237  -1.413  -0.013  1.00  0.00     0.023 A 
HETATM   15  C   UNL     1      -0.021  -0.727  -0.030  1.00  0.00    -0.014 A 
HETATM   16  C   UNL     1      -0.028   0.691   0.087  1.00  0.00    -0.025 A 
HETATM   17  C   UNL     1      -1.286  -1.357  -0.161  1.00  0.00     0.013 A 
HETATM   18  C   UNL     1      -1.239   1.402   0.097  1.00  0.00     0.012 A 
HETATM   19  C   UNL     1       1.176   1.399   0.187  1.00  0.00     0.015 A 
HETATM   20  C   UNL     1      -2.460   0.745  -0.015  1.00  0.00     0.001 A 
HETATM   21  C   UNL     1      -2.483  -0.634  -0.149  1.00  0.00     0.001 A 
HETATM   22  C   UNL     1       2.395   0.735   0.175  1.00  0.00     0.038 A 
HETATM   23  C   UNL     1       2.421  -0.649   0.084  1.00  0.00     0.076 A 
BRANCH  23  24
HETATM   24  O   UNL     1       3.670  -1.212   0.086  1.00  0.00    -0.360 OA
HETATM   25  H   UNL     1       3.591  -2.165   0.290  1.00  0.00     0.217 HD
ENDBRANCH  23  24
ENDBRANCH   1  14
TORSDOF 2
