REMARK  8 active torsions:
REMARK  status: ('A' for Active; 'I' for Inactive)
REMARK    1  A    between atoms: C_4  and  C_5 
REMARK    2  A    between atoms: C_5  and  N_6 
REMARK    3  A    between atoms: N_6  and  C_9 
REMARK    4  A    between atoms: C_9  and  C_10 
REMARK    5  A    between atoms: C_10  and  C_11 
REMARK    6  A    between atoms: C_11  and  C_12 
REMARK    7  A    between atoms: C_17  and  O_18 
REMARK    8  A    between atoms: C_21  and  O_22 
ROOT
HETATM    1  C   UNL     1       2.815   5.834   3.977  1.00  0.00     0.010 A 
HETATM    2  N   UNL     1       2.389   5.619   5.267  1.00  0.00    -0.359 N 
HETATM    3  H   UNL     1       2.084   4.735   5.652  1.00  0.00     0.166 HD
HETATM    4  C   UNL     1       2.398   6.795   5.980  1.00  0.00     0.048 A 
HETATM    5  C   UNL     1       2.858   7.798   5.131  1.00  0.00     0.026 A 
HETATM    6  C   UNL     1       2.965   9.123   5.613  1.00  0.00     0.083 A 
HETATM    7  C   UNL     1       2.589   9.379   6.945  1.00  0.00     0.074 A 
HETATM    8  C   UNL     1       2.118   8.358   7.775  1.00  0.00     0.073 A 
HETATM    9  C   UNL     1       2.027   7.044   7.304  1.00  0.00     0.067 A 
HETATM   10  C   UNL     1       3.118   7.178   3.874  1.00  0.00     0.041 A 
ENDROOT
BRANCH   1  11
HETATM   11  C   UNL     1       2.858   4.748   2.961  1.00  0.00     0.059 C 
BRANCH  11  12
HETATM   12  C   UNL     1       4.293   4.435   2.527  1.00  0.00     0.033 C 
BRANCH  12  13
HETATM   13  C   UNL     1       4.363   3.365   1.443  1.00  0.00     0.233 C 
BRANCH  13  14
HETATM   14  N   UNL     1       3.832   3.902   0.154  1.00  0.00    -0.067 N 
HETATM   15  H   UNL     1       4.342   4.767  -0.077  1.00  0.00     0.277 HD
HETATM   16  H   UNL     1       2.850   4.192   0.246  1.00  0.00     0.277 HD
BRANCH  14  17
HETATM   17  C   UNL     1       3.925   3.006  -1.052  1.00  0.00     0.223 C 
HETATM   18  C   UNL     1       3.000   1.802  -0.879  1.00  0.00     0.046 C 
BRANCH  17  19
HETATM   19  C   UNL     1       3.596   3.763  -2.302  1.00  0.00     0.032 A 
HETATM   20  S   UNL     1       2.271   4.858  -2.390  1.00  0.00    -0.076 SA
HETATM   21  C   UNL     1       2.658   5.193  -4.030  1.00  0.00     0.071 A 
HETATM   22  C   UNL     1       1.850   6.159  -4.827  1.00  0.00     0.078 C 
HETATM   23  N   UNL     1       3.704   4.547  -4.495  1.00  0.00    -0.257 NA
HETATM   24  C   UNL     1       4.232   3.724  -3.526  1.00  0.00     0.134 A 
ENDBRANCH  17  19
ENDBRANCH  14  17
ENDBRANCH  13  14
ENDBRANCH  12  13
ENDBRANCH  11  12
ENDBRANCH   1  11
BRANCH   6  25
HETATM   25  O   UNL     1       3.432  10.062   4.730  1.00  0.00    -0.355 OA
HETATM   26  C   UNL     1       3.468  11.413   5.173  1.00  0.00     0.210 C 
ENDBRANCH   6  25
BRANCH   8  27
HETATM   27  O   UNL     1       1.720   8.504   9.078  1.00  0.00    -0.356 OA
HETATM   28  C   UNL     1       1.606   9.831   9.578  1.00  0.00     0.210 C 
ENDBRANCH   8  27
TORSDOF 8
