REMARK  2 active torsions:
REMARK  status: ('A' for Active; 'I' for Inactive)
REMARK    1  A    between atoms: C_5  and  C_6 
REMARK    2  A    between atoms: C_17  and  O_18 
ROOT
HETATM    1  C   UNL     1       1.356  -3.165  -0.056  1.00  0.00     0.200 C 
HETATM    2  N   UNL     1       0.025  -3.693  -0.158  1.00  0.00    -0.336 N 
HETATM    3  C   UNL     1      -0.294  -4.993   0.131  1.00  0.00     0.255 C 
HETATM    4  O   UNL     1      -1.348  -5.497  -0.246  1.00  0.00    -0.268 OA
HETATM    5  C   UNL     1       0.689  -5.754   0.918  1.00  0.00     0.053 A 
HETATM    6  C   UNL     1       1.814  -5.071   1.383  1.00  0.00     0.026 A 
HETATM    7  N   UNL     1       1.974  -3.695   1.160  1.00  0.00    -0.267 NA
HETATM    8  C   UNL     1       0.491  -7.110   1.200  1.00  0.00     0.019 A 
HETATM    9  C   UNL     1       1.417  -7.791   1.987  1.00  0.00     0.001 A 
HETATM   10  C   UNL     1       2.521  -7.112   2.500  1.00  0.00     0.002 A 
HETATM   11  C   UNL     1       2.709  -5.756   2.213  1.00  0.00     0.024 A 
HETATM   12  H   UNL     1      -0.568  -3.299  -0.872  1.00  0.00     0.164 HD
HETATM   13  H   UNL     1       2.950  -3.438   1.245  1.00  0.00     0.130 HD
ENDROOT
BRANCH   1  14
HETATM   14  C   UNL     1       2.285  -3.293  -1.270  1.00  0.00     0.023 A 
HETATM   15  C   UNL     1       3.562  -2.622  -1.260  1.00  0.00    -0.014 A 
HETATM   16  C   UNL     1       4.483  -2.864  -2.315  1.00  0.00    -0.025 A 
HETATM   17  C   UNL     1       3.987  -1.705  -0.260  1.00  0.00     0.013 A 
HETATM   18  C   UNL     1       5.758  -2.273  -2.308  1.00  0.00     0.012 A 
HETATM   19  C   UNL     1       4.125  -3.689  -3.384  1.00  0.00     0.015 A 
HETATM   20  C   UNL     1       6.147  -1.413  -1.286  1.00  0.00     0.001 A 
HETATM   21  C   UNL     1       5.256  -1.119  -0.267  1.00  0.00     0.001 A 
HETATM   22  C   UNL     1       2.861  -4.261  -3.445  1.00  0.00     0.038 A 
HETATM   23  C   UNL     1       1.955  -4.057  -2.407  1.00  0.00     0.076 A 
BRANCH  23  24
HETATM   24  O   UNL     1       0.707  -4.590  -2.550  1.00  0.00    -0.360 OA
HETATM   25  H   UNL     1       0.686  -5.213  -3.295  1.00  0.00     0.217 HD
ENDBRANCH  23  24
ENDBRANCH   1  14
TORSDOF 2
