REMARK  4 active torsions:
REMARK  status: ('A' for Active; 'I' for Inactive)
REMARK    1  A    between atoms: C_8  and  N_9 
REMARK       I    between atoms: N_9  and  C_10 
REMARK       I    between atoms: C_10  and  N_11 
REMARK    2  A    between atoms: N_11  and  C_12 
REMARK    3  A    between atoms: C_14  and  C_15 
REMARK       I    between atoms: C_15  and  N_16 
REMARK    4  A    between atoms: N_16  and  C_17 
ROOT
HETATM    1  C   UNL     1       0.553  -0.334  -0.506  1.00  0.00     0.037 A 
HETATM    2  C   UNL     1      -0.256   0.777  -0.265  1.00  0.00     0.048 A 
HETATM    3  C   UNL     1       0.187   2.076  -0.577  1.00  0.00     0.055 A 
HETATM    4  C   UNL     1       1.436   2.262  -1.174  1.00  0.00     0.049 A 
HETATM    5 CL   UNL     1       2.093   3.816  -1.534  1.00  0.00    -0.083 Cl
HETATM    6  C   UNL     1       2.233   1.148  -1.452  1.00  0.00     0.027 A 
HETATM    7  C   UNL     1       1.795  -0.140  -1.120  1.00  0.00     0.031 A 
ENDROOT
BRANCH   1   8
HETATM    8  N   UNL     1       0.199  -1.655  -0.156  1.00  0.00    -0.309 N 
HETATM    9  C   UNL     1      -0.887  -2.052   0.618  1.00  0.00     0.325 C 
HETATM   10  N   UNL     1      -0.900  -3.425   0.777  1.00  0.00    -0.305 N 
HETATM   11  O   UNL     1      -1.697  -1.279   1.108  1.00  0.00    -0.247 OA
HETATM   12  H   UNL     1      -0.224  -3.960   0.258  1.00  0.00     0.171 HD
HETATM   13  H   UNL     1       0.870  -2.371  -0.389  1.00  0.00     0.170 HD
BRANCH  10  14
HETATM   14  C   UNL     1      -1.778  -4.175   1.548  1.00  0.00     0.086 A 
HETATM   15  C   UNL     1      -1.676  -5.554   1.618  1.00  0.00     0.052 A 
HETATM   16  C   UNL     1      -0.743  -6.527   1.004  1.00  0.00     0.072 C 
HETATM   17  N   UNL     1      -2.672  -5.962   2.457  1.00  0.00    -0.280 N 
HETATM   18  H   UNL     1      -2.901  -6.906   2.748  1.00  0.00     0.189 HD
HETATM   19  N   UNL     1      -3.413  -4.964   2.941  1.00  0.00    -0.177 NA
HETATM   20  C   UNL     1      -2.882  -3.858   2.397  1.00  0.00     0.079 A 
HETATM   21  C   UNL     1      -3.499  -2.554   2.752  1.00  0.00     0.075 C 
ENDBRANCH  10  14
ENDBRANCH   1   8
BRANCH   3  22
HETATM   22  C   UNL     1      -0.716   3.210  -0.265  1.00  0.00     0.253 C 
HETATM   23  N   UNL     1      -1.238   3.196   1.016  1.00  0.00    -0.352 N 
HETATM   24  H   UNL     1      -0.960   2.466   1.662  1.00  0.00     0.163 HD
HETATM   25  O   UNL     1      -0.971   4.056  -1.112  1.00  0.00    -0.268 OA
BRANCH  23  26
HETATM   26  C   UNL     1      -2.189   4.161   1.463  1.00  0.00     0.084 A 
HETATM   27  C   UNL     1      -3.662   3.864   1.395  1.00  0.00     0.027 A 
HETATM   28  C   UNL     1      -2.973   3.929   2.727  1.00  0.00     0.027 A 
ENDBRANCH  23  26
ENDBRANCH   3  22
TORSDOF 4
