REMARK  5 active torsions:
REMARK  status: ('A' for Active; 'I' for Inactive)
REMARK    1  A    between atoms: C_8  and  C_9 
REMARK    2  A    between atoms: N_10  and  N_11 
REMARK       I    between atoms: N_11  and  C_12 
REMARK    3  A    between atoms: C_12  and  C_13 
REMARK    4  A    between atoms: C_13  and  O_14 
REMARK    5  A    between atoms: O_14  and  C_15 
ROOT
HETATM    1  N   UNL     1      -1.210  -5.214   0.076  1.00  0.00    -0.246 N 
HETATM    2  C   UNL     1      -0.431  -6.199  -0.517  1.00  0.00     0.261 C 
HETATM    3  O   UNL     1       0.652  -6.036  -1.076  1.00  0.00    -0.269 OA
HETATM    4  H   UNL     1      -1.970  -5.533   0.676  1.00  0.00     0.192 HD
ENDROOT
BRANCH   1   5
HETATM    5  N   UNL     1      -0.879  -3.891   0.253  1.00  0.00    -0.184 NA
HETATM    6  C   UNL     1       0.011  -3.351  -0.516  1.00  0.00     0.152 C 
BRANCH   6   7
HETATM    7  C   UNL     1       0.401  -1.971  -0.302  1.00  0.00     0.011 A 
HETATM    8  C   UNL     1       1.486  -1.281  -0.934  1.00  0.00     0.004 A 
HETATM    9  C   UNL     1       2.469  -1.649  -1.878  1.00  0.00     0.014 A 
HETATM   10  C   UNL     1       1.500   0.023  -0.436  1.00  0.00     0.043 A 
HETATM   11  C   UNL     1       3.422  -0.709  -2.286  1.00  0.00     0.001 A 
HETATM   12  C   UNL     1       3.406   0.585  -1.772  1.00  0.00     0.002 A 
HETATM   13  C   UNL     1       2.443   0.977  -0.838  1.00  0.00     0.030 A 
HETATM   14  N   UNL     1       0.463   0.124   0.462  1.00  0.00    -0.364 N 
HETATM   15  H   UNL     1       0.234   0.960   0.981  1.00  0.00     0.165 HD
HETATM   16  C   UNL     1      -0.200  -1.069   0.557  1.00  0.00     0.102 A 
ENDBRANCH   6   7
ENDBRANCH   1   5
BRANCH   2  17
HETATM   17  C   UNL     1      -1.086  -7.579  -0.486  1.00  0.00     0.280 C 
BRANCH  17  18
HETATM   18  O   UNL     1      -1.999  -7.707   0.600  1.00  0.00    -0.341 OA
BRANCH  18  19
HETATM   19  C   UNL     1      -2.332  -8.994   0.941  1.00  0.00     0.086 A 
HETATM   20  C   UNL     1      -2.673  -9.245   2.280  1.00  0.00     0.045 A 
HETATM   21 BR   UNL     1      -2.654  -7.859   3.579  1.00  0.00    -0.048 Br
HETATM   22  C   UNL     1      -3.021 -10.532   2.699  1.00  0.00     0.046 A 
HETATM   23  C   UNL     1      -3.042 -11.571   1.774  1.00  0.00     0.035 A 
HETATM   24 CL   UNL     1      -3.462 -13.161   2.281  1.00  0.00    -0.084 Cl
HETATM   25  C   UNL     1      -2.730 -11.334   0.437  1.00  0.00     0.026 A 
HETATM   26  C   UNL     1      -2.381 -10.046   0.020  1.00  0.00     0.040 A 
ENDBRANCH  18  19
ENDBRANCH  17  18
ENDBRANCH   2  17
TORSDOF 5
