REMARK  2 active torsions:
REMARK  status: ('A' for Active; 'I' for Inactive)
REMARK    1  A    between atoms: C_4  and  C_5 
REMARK    2  A    between atoms: N_11  and  C_12 
ROOT
HETATM    1  C   UNL     1       2.931   0.357  -0.168  1.00  0.00     0.069 A 
HETATM    2  N   UNL     1       3.748  -0.749  -0.329  1.00  0.00    -0.343 N 
HETATM    3  C   UNL     1       5.098  -0.628  -0.491  1.00  0.00     0.119 A 
HETATM    4  C   UNL     1       5.696   0.573  -0.423  1.00  0.00     0.125 A 
HETATM    5  C   UNL     1       7.144   0.336  -0.548  1.00  0.00     0.280 A 
HETATM    6  O   UNL     1       7.999   1.203  -0.508  1.00  0.00    -0.265 OA
HETATM    7  N   UNL     1       7.280  -1.052  -0.701  1.00  0.00    -0.236 N 
HETATM    8  N   UNL     1       6.002  -1.651  -0.701  1.00  0.00    -0.179 NA
HETATM    9  C   UNL     1       4.919   1.798  -0.196  1.00  0.00     0.215 A 
HETATM   10  O   UNL     1       5.449   2.898  -0.097  1.00  0.00    -0.285 OA
HETATM   11  C   UNL     1       3.426   1.613  -0.092  1.00  0.00     0.112 A 
HETATM   12 CL   UNL     1       2.466   3.030   0.111  1.00  0.00    -0.077 Cl
HETATM   13  H   UNL     1       3.313  -1.645  -0.527  1.00  0.00     0.167 HD
HETATM   14  H   UNL     1       5.911  -2.368   0.019  1.00  0.00     0.155 HD
ENDROOT
BRANCH   1  15
HETATM   15  C   UNL     1       1.489   0.071  -0.090  1.00  0.00    -0.008 A 
HETATM   16  C   UNL     1       0.724  -0.024  -1.260  1.00  0.00     0.014 A 
HETATM   17  C   UNL     1      -0.641  -0.304  -1.184  1.00  0.00     0.001 A 
HETATM   18  C   UNL     1      -1.248  -0.492   0.058  1.00  0.00     0.000 A 
HETATM   19  C   UNL     1      -0.492  -0.400   1.226  1.00  0.00     0.001 A 
HETATM   20  C   UNL     1       0.874  -0.121   1.154  1.00  0.00     0.014 A 
ENDBRANCH   1  15
BRANCH   7  21
HETATM   21  C   UNL     1       8.442  -1.832  -0.886  1.00  0.00     0.055 A 
HETATM   22  C   UNL     1       9.719  -1.265  -0.798  1.00  0.00     0.031 A 
HETATM   23  C   UNL     1      10.867  -2.047  -0.971  1.00  0.00     0.002 A 
HETATM   24  C   UNL     1      10.754  -3.408  -1.238  1.00  0.00     0.000 A 
HETATM   25  C   UNL     1       9.494  -3.988  -1.336  1.00  0.00     0.002 A 
HETATM   26  C   UNL     1       8.347  -3.206  -1.162  1.00  0.00     0.031 A 
ENDBRANCH   7  21
TORSDOF 2
