REMARK  11 active torsions:
REMARK  status: ('A' for Active; 'I' for Inactive)
REMARK    1  A    between atoms: C_2  and  C_3 
REMARK    2  A    between atoms: C_3  and  N_4 
REMARK    3  A    between atoms: N_4  and  C_6 
REMARK    4  A    between atoms: N_4  and  C_30 
REMARK    5  A    between atoms: C_6  and  C_7 
REMARK    6  A    between atoms: N_8  and  C_9 
REMARK    7  A    between atoms: C_13  and  N_14 
REMARK    8  A    between atoms: C_17  and  C_18 
REMARK       I    between atoms: C_18  and  N_19 
REMARK    9  A    between atoms: N_19  and  N_20 
REMARK   10  A    between atoms: C_21  and  C_22 
REMARK   11  A    between atoms: C_30  and  C_31 
ROOT
HETATM    1  C   UNL     1       4.625  -1.276  -0.143  1.00  0.00     0.096 A 
HETATM    2  N   UNL     1       4.743  -2.662  -0.193  1.00  0.00    -0.215 N 
HETATM    3  N   UNL     1       4.527  -3.164   1.052  1.00  0.00     0.012 NA
HETATM    4  N   UNL     1       4.197  -2.179   1.870  1.00  0.00    -0.152 NA
HETATM    5  C   UNL     1       4.250  -1.011   1.169  1.00  0.00     0.170 A 
ENDROOT
BRANCH   5   6
HETATM    6  C   UNL     1       3.918   0.290   1.735  1.00  0.00     0.293 C 
HETATM    7  N   UNL     1       3.555   0.254   3.067  1.00  0.00    -0.242 N 
HETATM    8  H   UNL     1       3.551  -0.625   3.579  1.00  0.00     0.192 HD
HETATM    9  O   UNL     1       3.922   1.291   1.022  1.00  0.00    -0.264 OA
BRANCH   7  10
HETATM   10  N   UNL     1       3.101   1.394   3.656  1.00  0.00    -0.184 NA
HETATM   11  C   UNL     1       2.706   1.290   4.884  1.00  0.00     0.150 C 
BRANCH  11  12
HETATM   12  C   UNL     1       2.173   2.458   5.615  1.00  0.00    -0.016 A 
HETATM   13  C   UNL     1       1.697   2.284   6.916  1.00  0.00     0.032 A 
HETATM   14  C   UNL     1       1.177   3.382   7.601  1.00  0.00     0.011 A 
HETATM   15 BR   UNL     1       0.522   3.159   9.361  1.00  0.00    -0.051 Br
HETATM   16  C   UNL     1       1.132   4.642   7.003  1.00  0.00     0.019 A 
HETATM   17  C   UNL     1       1.611   4.810   5.704  1.00  0.00     0.002 A 
HETATM   18  C   UNL     1       2.131   3.719   5.008  1.00  0.00     0.013 A 
ENDBRANCH  11  12
ENDBRANCH   7  10
ENDBRANCH   5   6
BRANCH   1  19
HETATM   19  C   UNL     1       4.938  -0.334  -1.249  1.00  0.00     0.296 C 
BRANCH  19  20
HETATM   20  N   UNL     1       3.826  -0.093  -2.265  1.00  0.00    -0.066 N 
HETATM   21  H   UNL     1       3.605  -1.011  -2.670  1.00  0.00     0.280 HD
BRANCH  20  22
HETATM   22  C   UNL     1       4.328   0.816  -3.385  1.00  0.00     0.235 C 
BRANCH  22  23
HETATM   23  C   UNL     1       5.121   0.051  -4.443  1.00  0.00     0.023 C 
HETATM   24  C   UNL     1       4.258  -0.858  -5.305  1.00  0.00     0.007 C 
ENDBRANCH  22  23
ENDBRANCH  20  22
BRANCH  20  25
HETATM   25  C   UNL     1       2.568   0.476  -1.623  1.00  0.00     0.235 C 
BRANCH  25  26
HETATM   26  C   UNL     1       1.331   0.351  -2.513  1.00  0.00     0.023 C 
HETATM   27  C   UNL     1       0.954  -1.084  -2.846  1.00  0.00     0.007 C 
ENDBRANCH  25  26
ENDBRANCH  20  25
ENDBRANCH  19  20
ENDBRANCH   1  19
BRANCH   2  28
HETATM   28  C   UNL     1       4.982  -3.492  -1.313  1.00  0.00     0.225 A 
HETATM   29  N   UNL     1       5.019  -2.960  -2.537  1.00  0.00    -0.081 NA
HETATM   30  O   UNL     1       5.256  -4.061  -3.368  1.00  0.00    -0.103 OA
HETATM   31  N   UNL     1       5.328  -5.236  -2.634  1.00  0.00    -0.083 NA
HETATM   32  C   UNL     1       5.156  -4.886  -1.361  1.00  0.00     0.201 A 
BRANCH  32  33
HETATM   33  N   UNL     1       5.161  -5.741  -0.328  1.00  0.00    -0.379 N 
HETATM   34  H   UNL     1       5.248  -6.742  -0.488  1.00  0.00     0.158 HD
HETATM   35  H   UNL     1       4.955  -5.478   0.634  1.00  0.00     0.158 HD
ENDBRANCH  32  33
ENDBRANCH   2  28
TORSDOF 11
