REMARK  6 active torsions:
REMARK  status: ('A' for Active; 'I' for Inactive)
REMARK    1  A    between atoms: C_5  and  N_6 
REMARK    2  A    between atoms: C_17  and  N_18 
REMARK    3  A    between atoms: C_17  and  C_29 
REMARK       I    between atoms: N_18  and  C_19 
REMARK    4  A    between atoms: C_19  and  C_20 
REMARK    5  A    between atoms: C_20  and  C_21 
REMARK    6  A    between atoms: C_21  and  C_22 
ROOT
HETATM    1  N   UNL     1       6.990   0.267  -0.393  1.00  0.00    -0.248 N 
HETATM    2  C   UNL     1       7.653  -0.950  -0.679  1.00  0.00     0.335 A 
HETATM    3  O   UNL     1       7.161  -2.077  -0.640  1.00  0.00    -0.246 OA
HETATM    4  N   UNL     1       8.972  -0.840  -1.073  1.00  0.00    -0.274 N 
HETATM    5  C   UNL     1       9.675   0.309  -1.288  1.00  0.00     0.262 A 
HETATM    6  O   UNL     1      10.816   0.339  -1.726  1.00  0.00    -0.267 OA
HETATM    7  C   UNL     1       8.959   1.516  -0.942  1.00  0.00     0.101 A 
HETATM    8  C   UNL     1       7.693   1.449  -0.528  1.00  0.00     0.134 A 
HETATM    9  N   UNL     1       7.277   2.705  -0.212  1.00  0.00    -0.309 N 
HETATM   10  C   UNL     1       8.256   3.655  -0.479  1.00  0.00     0.266 A 
HETATM   11  O   UNL     1       8.106   4.861  -0.367  1.00  0.00    -0.270 OA
HETATM   12  C   UNL     1       9.519   2.906  -0.933  1.00  0.00     0.249 A 
HETATM   13  H   UNL     1       9.424  -1.709  -1.319  1.00  0.00     0.173 HD
HETATM   14  H   UNL     1       6.362   2.960   0.132  1.00  0.00     0.170 HD
ENDROOT
BRANCH  12  15
HETATM   15  N   UNL     1      10.021   3.332  -2.253  1.00  0.00    -0.332 N 
HETATM   16  C   UNL     1       9.302   3.208  -3.416  1.00  0.00     0.219 C 
HETATM   17  O   UNL     1       8.134   2.840  -3.445  1.00  0.00    -0.274 OA
HETATM   18  H   UNL     1      11.020   3.494  -2.328  1.00  0.00     0.164 HD
BRANCH  16  19
HETATM   19  C   UNL     1      10.098   3.509  -4.665  1.00  0.00     0.107 C 
BRANCH  19  20
HETATM   20  C   UNL     1      10.963   2.306  -5.036  1.00  0.00     0.047 C 
BRANCH  20  21
HETATM   21  C   UNL     1      11.914   2.598  -6.171  1.00  0.00    -0.058 A 
HETATM   22  C   UNL     1      13.300   2.557  -5.963  1.00  0.00     0.007 A 
HETATM   23  C   UNL     1      14.182   2.813  -7.014  1.00  0.00     0.001 A 
HETATM   24  C   UNL     1      13.689   3.112  -8.283  1.00  0.00     0.000 A 
HETATM   25  C   UNL     1      12.314   3.151  -8.502  1.00  0.00     0.001 A 
HETATM   26  C   UNL     1      11.430   2.893  -7.453  1.00  0.00     0.007 A 
ENDBRANCH  20  21
ENDBRANCH  19  20
ENDBRANCH  16  19
ENDBRANCH  12  15
BRANCH  12  27
HETATM   27  C   UNL     1      10.528   3.109   0.206  1.00  0.00     0.426 C 
HETATM   28  F   UNL     1      10.060   2.683   1.402  1.00  0.00    -0.167 F 
HETATM   29  F   UNL     1      11.674   2.425  -0.035  1.00  0.00    -0.167 F 
HETATM   30  F   UNL     1      10.889   4.405   0.343  1.00  0.00    -0.167 F 
ENDBRANCH  12  27
BRANCH   1  31
HETATM   31  C   UNL     1       5.612   0.218   0.021  1.00  0.00     0.045 A 
HETATM   32  C   UNL     1       5.168  -0.756   0.926  1.00  0.00     0.031 A 
HETATM   33  C   UNL     1       3.840  -0.783   1.365  1.00  0.00     0.009 A 
HETATM   34  C   UNL     1       2.917   0.153   0.892  1.00  0.00    -0.062 A 
HETATM   35  C   UNL     1       1.504   0.143   1.394  1.00  0.00     0.048 C 
HETATM   36  C   UNL     1       3.347   1.122  -0.019  1.00  0.00     0.009 A 
HETATM   37  C   UNL     1       4.677   1.148  -0.456  1.00  0.00     0.031 A 
ENDBRANCH   1  31
TORSDOF 6
