REMARK  9 active torsions:
REMARK  status: ('A' for Active; 'I' for Inactive)
REMARK    1  A    between atoms: C_4  and  S_5 
REMARK    2  A    between atoms: S_5  and  C_6 
REMARK    3  A    between atoms: C_6  and  C_7 
REMARK       I    between atoms: C_7  and  N_8 
REMARK    4  A    between atoms: C_13  and  C_14 
REMARK    5  A    between atoms: C_14  and  C_15 
REMARK    6  A    between atoms: C_15  and  C_16 
REMARK       I    between atoms: C_16  and  N_17 
REMARK    7  A    between atoms: N_17  and  C_18 
REMARK    8  A    between atoms: C_19  and  O_20 
REMARK    9  A    between atoms: C_24  and  C_25 
ROOT
HETATM    1  C   UNL     1       0.956  -2.213   0.307  1.00  0.00     0.108 C 
ENDROOT
BRANCH   1   2
HETATM    2  C   UNL     1       0.233  -1.023   0.955  1.00  0.00     0.052 C 
BRANCH   2   3
HETATM    3  C   UNL     1      -0.175  -1.137   2.407  1.00  0.00    -0.009 A 
HETATM    4  C   UNL     1      -1.515  -1.059   2.801  1.00  0.00     0.042 A 
HETATM    5  C   UNL     1      -2.640  -0.859   1.825  1.00  0.00     0.071 C 
HETATM    6  N   UNL     1      -1.907  -1.124   4.092  1.00  0.00    -0.228 NA
HETATM    7  C   UNL     1      -0.955  -1.288   5.015  1.00  0.00     0.189 A 
HETATM    8  N   UNL     1       0.354  -1.351   4.751  1.00  0.00    -0.228 NA
HETATM    9  C   UNL     1       0.735  -1.267   3.456  1.00  0.00     0.042 A 
HETATM   10  C   UNL     1       2.219  -1.340   3.246  1.00  0.00     0.071 C 
BRANCH   7  11
HETATM   11  S   UNL     1      -1.438  -1.360   6.720  1.00  0.00    -0.081 SA
BRANCH  11  12
HETATM   12  C   UNL     1      -3.148  -1.948   6.506  1.00  0.00     0.185 C 
BRANCH  12  13
HETATM   13  C   UNL     1      -3.824  -2.091   7.854  1.00  0.00     0.225 C 
HETATM   14  N   UNL     1      -3.901  -0.953   8.609  1.00  0.00    -0.370 N 
HETATM   15  H   UNL     1      -3.244  -0.200   8.446  1.00  0.00     0.159 HD
HETATM   16  H   UNL     1      -4.273  -1.059   9.543  1.00  0.00     0.159 HD
HETATM   17  O   UNL     1      -4.349  -3.130   8.243  1.00  0.00    -0.273 OA
ENDBRANCH  12  13
ENDBRANCH  11  12
ENDBRANCH   7  11
ENDBRANCH   2   3
ENDBRANCH   1   2
BRANCH   1  18
HETATM   18  C   UNL     1       0.231  -3.538   0.446  1.00  0.00     0.222 C 
HETATM   19  N   UNL     1       0.919  -4.701   0.259  1.00  0.00    -0.325 N 
HETATM   20  H   UNL     1       0.464  -5.503   0.689  1.00  0.00     0.169 HD
HETATM   21  O   UNL     1      -0.951  -3.598   0.788  1.00  0.00    -0.273 OA
BRANCH  19  22
HETATM   22  C   UNL     1       2.130  -5.009  -0.394  1.00  0.00     0.069 A 
HETATM   23  C   UNL     1       2.760  -6.216  -0.039  1.00  0.00     0.095 A 
HETATM   24  C   UNL     1       3.930  -6.598  -0.694  1.00  0.00     0.039 A 
HETATM   25  C   UNL     1       4.458  -5.801  -1.714  1.00  0.00     0.011 A 
HETATM   26  C   UNL     1       3.832  -4.609  -2.118  1.00  0.00    -0.048 A 
HETATM   27  C   UNL     1       2.661  -4.232  -1.432  1.00  0.00     0.040 A 
BRANCH  23  28
HETATM   28  O   UNL     1       2.146  -6.939   0.956  1.00  0.00    -0.354 OA
HETATM   29  C   UNL     1       2.871  -8.037   1.497  1.00  0.00     0.210 C 
ENDBRANCH  23  28
BRANCH  26  30
HETATM   30  C   UNL     1       4.402  -3.798  -3.297  1.00  0.00    -0.024 C 
HETATM   31  C   UNL     1       4.379  -4.665  -4.575  1.00  0.00     0.019 C 
HETATM   32  C   UNL     1       3.614  -2.505  -3.610  1.00  0.00     0.019 C 
HETATM   33  C   UNL     1       5.856  -3.381  -2.993  1.00  0.00     0.019 C 
ENDBRANCH  26  30
ENDBRANCH  19  22
ENDBRANCH   1  18
TORSDOF 9
