REMARK  10 active torsions:
REMARK  status: ('A' for Active; 'I' for Inactive)
REMARK    1  A    between atoms: C_2  and  C_3 
REMARK    2  A    between atoms: C_3  and  C_4 
REMARK    3  A    between atoms: C_4  and  O_5 
REMARK    4  A    between atoms: O_5  and  C_6 
REMARK    5  A    between atoms: C_8  and  C_9 
REMARK       I    between atoms: C_9  and  N_10 
REMARK    6  A    between atoms: N_10  and  C_11 
REMARK    7  A    between atoms: C_11  and  N_12 
REMARK    8  A    between atoms: N_12  and  C_13 
REMARK    9  A    between atoms: C_15  and  O_16 
REMARK   10  A    between atoms: C_17  and  C_18 
ROOT
HETATM    1  N   UNL     1      10.869   2.527   2.954  1.00  0.00    -0.333 N 
HETATM    2  H   UNL     1       9.904   2.615   2.627  1.00  0.00     0.168 HD
ENDROOT
BRANCH   1   3
HETATM    3  C   UNL     1      11.608   3.664   2.740  1.00  0.00     0.179 C 
HETATM    4  S   UNL     1      13.267   3.870   2.756  1.00  0.00    -0.040 SA
BRANCH   3   5
HETATM    5  N   UNL     1      10.860   4.797   2.455  1.00  0.00    -0.299 N 
HETATM    6  C   UNL     1       9.478   4.935   2.424  1.00  0.00     0.257 C 
HETATM    7  O   UNL     1       8.715   3.972   2.377  1.00  0.00    -0.267 OA
HETATM    8  H   UNL     1      11.437   5.614   2.321  1.00  0.00     0.171 HD
BRANCH   6   9
HETATM    9  C   UNL     1       8.934   6.325   2.382  1.00  0.00     0.035 A 
HETATM   10  C   UNL     1       9.697   7.447   2.725  1.00  0.00     0.053 A 
HETATM   11  C   UNL     1       9.123   8.717   2.656  1.00  0.00     0.069 A 
HETATM   12  C   UNL     1       7.786   8.887   2.310  1.00  0.00     0.037 A 
HETATM   13  C   UNL     1       7.016   7.772   1.990  1.00  0.00     0.004 A 
HETATM   14  C   UNL     1       7.588   6.497   2.021  1.00  0.00     0.017 A 
BRANCH  11  15
HETATM   15  O   UNL     1       9.868   9.809   3.002  1.00  0.00    -0.351 OA
BRANCH  15  16
HETATM   16  C   UNL     1      10.647  10.275   1.892  1.00  0.00     0.175 C 
BRANCH  16  17
HETATM   17  C   UNL     1      12.093  10.479   2.339  1.00  0.00     0.026 C 
BRANCH  17  18
HETATM   18  C   UNL     1      12.223  11.562   3.412  1.00  0.00    -0.002 C 
HETATM   19  C   UNL     1      13.672  11.755   3.831  1.00  0.00     0.005 C 
ENDBRANCH  17  18
ENDBRANCH  16  17
ENDBRANCH  15  16
ENDBRANCH  11  15
ENDBRANCH   6   9
ENDBRANCH   3   5
ENDBRANCH   1   3
BRANCH   1  20
HETATM   20  C   UNL     1      11.187   1.266   3.499  1.00  0.00     0.036 A 
HETATM   21  C   UNL     1      12.314   0.991   4.271  1.00  0.00     0.067 A 
HETATM   22  C   UNL     1      12.504  -0.282   4.831  1.00  0.00     0.082 A 
HETATM   23  C   UNL     1      11.568  -1.309   4.641  1.00  0.00     0.050 A 
HETATM   24  C   UNL     1      10.446  -1.024   3.849  1.00  0.00     0.021 A 
HETATM   25  C   UNL     1      10.250   0.247   3.298  1.00  0.00     0.030 A 
BRANCH  22  26
HETATM   26  O   UNL     1      13.635  -0.504   5.573  1.00  0.00    -0.360 OA
HETATM   27  H   UNL     1      14.184   0.297   5.577  1.00  0.00     0.217 HD
ENDBRANCH  22  26
BRANCH  23  28
HETATM   28  C   UNL     1      11.677  -2.645   5.228  1.00  0.00     0.183 A 
HETATM   29  O   UNL     1      12.438  -2.776   6.362  1.00  0.00    -0.289 OA
HETATM   30  C   UNL     1      12.289  -4.083   6.715  1.00  0.00     0.107 A 
HETATM   31  C   UNL     1      11.445  -4.677   5.795  1.00  0.00     0.093 A 
HETATM   32  C   UNL     1      12.860  -4.729   7.805  1.00  0.00     0.046 A 
HETATM   33  N   UNL     1      11.052  -3.754   4.860  1.00  0.00    -0.221 NA
HETATM   34  C   UNL     1      11.124  -6.030   5.948  1.00  0.00     0.035 A 
HETATM   35  C   UNL     1      11.678  -6.723   7.036  1.00  0.00     0.009 A 
HETATM   36  C   UNL     1      12.539  -6.090   7.953  1.00  0.00    -0.059 A 
HETATM   37  C   UNL     1      13.083  -6.869   9.117  1.00  0.00     0.048 C 
ENDBRANCH  23  28
ENDBRANCH   1  20
TORSDOF 10
