REMARK  9 active torsions:
REMARK  status: ('A' for Active; 'I' for Inactive)
REMARK    1  A    between atoms: C_2  and  O_3 
REMARK    2  A    between atoms: O_3  and  C_4 
REMARK    3  A    between atoms: C_7  and  C_8 
REMARK    4  A    between atoms: C_9  and  C_10 
REMARK       I    between atoms: C_10  and  N_11 
REMARK    5  A    between atoms: N_11  and  C_12 
REMARK    6  A    between atoms: C_22  and  S_23 
REMARK    7  A    between atoms: S_23  and  C_24 
REMARK    8  A    between atoms: C_24  and  C_25 
REMARK       I    between atoms: C_25  and  N_26 
REMARK    9  A    between atoms: N_26  and  C_27 
ROOT
HETATM    1  C   UNL     1       8.245  -0.525  -2.989  1.00  0.00     0.104 C 
HETATM    2  C   UNL     1       8.667   0.681  -2.148  1.00  0.00     0.046 C 
HETATM    3  C   UNL     1       9.668   0.588  -1.242  1.00  0.00     0.019 C 
HETATM    4  C   UNL     1      10.107   1.677  -0.296  1.00  0.00     0.069 C 
HETATM    5  N   UNL     1      10.349  -0.605  -1.121  1.00  0.00    -0.353 N 
HETATM    6  C   UNL     1      10.005  -1.792  -1.730  1.00  0.00     0.087 C 
HETATM    7  C   UNL     1       8.934  -1.828  -2.555  1.00  0.00     0.055 C 
HETATM    8  C   UNL     1       8.494  -3.122  -3.220  1.00  0.00     0.019 C 
HETATM    9  N   UNL     1       8.129  -4.196  -3.772  1.00  0.00    -0.096 N 
HETATM   10  H   UNL     1      11.228  -0.624  -0.600  1.00  0.00     0.166 HD
ENDROOT
BRANCH   1  11
HETATM   11  C   UNL     1       8.543  -0.321  -4.485  1.00  0.00    -0.044 A 
HETATM   12  C   UNL     1       9.773   0.199  -4.927  1.00  0.00     0.011 A 
HETATM   13  C   UNL     1      10.096   0.214  -6.287  1.00  0.00     0.037 A 
HETATM   14  C   UNL     1       9.222  -0.335  -7.222  1.00  0.00     0.068 A 
HETATM   15  C   UNL     1       7.978  -0.804  -6.801  1.00  0.00     0.037 A 
HETATM   16  C   UNL     1       7.636  -0.795  -5.446  1.00  0.00     0.011 A 
BRANCH  14  17
HETATM   17  O   UNL     1       9.479  -0.460  -8.559  1.00  0.00    -0.352 OA
BRANCH  17  18
HETATM   18  C   UNL     1      10.859  -0.532  -8.922  1.00  0.00     0.171 C 
HETATM   19  C   UNL     1      10.960  -1.160 -10.300  1.00  0.00     0.034 C 
ENDBRANCH  17  18
ENDBRANCH  14  17
ENDBRANCH   1  11
BRANCH   6  20
HETATM   20  S   UNL     1      11.014  -3.201  -1.461  1.00  0.00    -0.102 SA
BRANCH  20  21
HETATM   21  C   UNL     1      12.149  -3.036  -2.882  1.00  0.00     0.184 C 
BRANCH  21  22
HETATM   22  C   UNL     1      12.945  -1.727  -2.881  1.00  0.00     0.231 C 
HETATM   23  N   UNL     1      13.380  -1.388  -4.158  1.00  0.00    -0.326 N 
HETATM   24  H   UNL     1      12.875  -1.828  -4.918  1.00  0.00     0.169 HD
HETATM   25  O   UNL     1      13.140  -1.070  -1.862  1.00  0.00    -0.272 OA
BRANCH  23  26
HETATM   26  C   UNL     1      14.192  -0.291  -4.540  1.00  0.00     0.040 A 
HETATM   27  C   UNL     1      15.197   0.316  -3.767  1.00  0.00    -0.035 A 
HETATM   28  C   UNL     1      15.693  -0.199  -2.445  1.00  0.00     0.050 C 
HETATM   29  C   UNL     1      15.852   1.460  -4.275  1.00  0.00     0.009 A 
HETATM   30  C   UNL     1      15.574   1.954  -5.548  1.00  0.00     0.001 A 
HETATM   31  C   UNL     1      14.645   1.303  -6.345  1.00  0.00     0.002 A 
HETATM   32  C   UNL     1      13.973   0.184  -5.847  1.00  0.00     0.030 A 
ENDBRANCH  23  26
ENDBRANCH  21  22
ENDBRANCH  20  21
ENDBRANCH   6  20
BRANCH   2  33
HETATM   33  C   UNL     1       7.887   1.932  -2.375  1.00  0.00     0.255 C 
HETATM   34  N   UNL     1       8.696   3.024  -2.617  1.00  0.00    -0.323 N 
HETATM   35  H   UNL     1       9.692   2.851  -2.655  1.00  0.00     0.169 HD
HETATM   36  O   UNL     1       6.664   1.889  -2.365  1.00  0.00    -0.268 OA
BRANCH  34  37
HETATM   37  C   UNL     1       8.313   4.374  -2.739  1.00  0.00     0.035 A 
HETATM   38  C   UNL     1       6.989   4.811  -2.753  1.00  0.00     0.029 A 
HETATM   39  C   UNL     1       6.699   6.176  -2.842  1.00  0.00     0.002 A 
HETATM   40  C   UNL     1       7.728   7.113  -2.911  1.00  0.00     0.000 A 
HETATM   41  C   UNL     1       9.052   6.686  -2.900  1.00  0.00     0.002 A 
HETATM   42  C   UNL     1       9.343   5.322  -2.820  1.00  0.00     0.029 A 
ENDBRANCH  34  37
ENDBRANCH   2  33
TORSDOF 9
