REMARK  7 active torsions:
REMARK  status: ('A' for Active; 'I' for Inactive)
REMARK    1  A    between atoms: C_3  and  C_4 
REMARK       I    between atoms: C_4  and  N_5 
REMARK    2  A    between atoms: N_5  and  C_6 
REMARK    3  A    between atoms: C_6  and  C_7 
REMARK    4  A    between atoms: C_7  and  O_8 
REMARK    5  A    between atoms: C_7  and  C_9 
REMARK    6  A    between atoms: C_18  and  N_19 
REMARK       I    between atoms: N_19  and  C_20 
REMARK    7  A    between atoms: C_20  and  C_21 
ROOT
HETATM    1  C   UNL     1      -1.462   5.012   1.427  1.00  0.00     0.050 C 
HETATM    2  C   UNL     1      -1.296   5.176   2.904  1.00  0.00    -0.037 A 
HETATM    3  C   UNL     1      -1.180   4.134   3.817  1.00  0.00     0.080 A 
HETATM    4  S   UNL     1      -1.032   4.729   5.420  1.00  0.00    -0.066 SA
HETATM    5  C   UNL     1      -1.042   6.342   4.922  1.00  0.00     0.078 A 
HETATM    6  C   UNL     1      -1.212   6.452   3.561  1.00  0.00     0.045 A 
ENDROOT
BRANCH   3   7
HETATM    7  C   UNL     1      -1.133   2.698   3.549  1.00  0.00     0.259 C 
HETATM    8  N   UNL     1      -1.247   1.887   4.655  1.00  0.00    -0.354 N 
HETATM    9  H   UNL     1      -1.533   2.314   5.528  1.00  0.00     0.162 HD
HETATM   10  O   UNL     1      -1.000   2.222   2.423  1.00  0.00    -0.267 OA
BRANCH   8  11
HETATM   11  C   UNL     1      -1.188   0.440   4.582  1.00  0.00     0.159 C 
BRANCH  11  12
HETATM   12  C   UNL     1      -1.061  -0.230   5.965  1.00  0.00     0.169 C 
BRANCH  12  13
HETATM   13  O   UNL     1      -2.227   0.059   6.744  1.00  0.00    -0.389 OA
HETATM   14  H   UNL     1      -2.051  -0.267   7.644  1.00  0.00     0.210 HD
ENDBRANCH  12  13
BRANCH  12  15
HETATM   15  C   UNL     1       0.196   0.167   6.721  1.00  0.00    -0.028 A 
HETATM   16  C   UNL     1       1.386  -0.555   6.526  1.00  0.00     0.013 A 
HETATM   17  C   UNL     1       2.554  -0.193   7.201  1.00  0.00     0.043 A 
HETATM   18  C   UNL     1       2.540   0.893   8.067  1.00  0.00     0.116 A 
HETATM   19  F   UNL     1       3.662   1.237   8.713  1.00  0.00    -0.206 F 
HETATM   20  C   UNL     1       1.380   1.628   8.270  1.00  0.00     0.043 A 
HETATM   21  C   UNL     1       0.211   1.267   7.599  1.00  0.00     0.013 A 
ENDBRANCH  12  15
ENDBRANCH  11  12
ENDBRANCH   8  11
ENDBRANCH   3   7
BRANCH   5  22
HETATM   22  N   UNL     1      -0.854   7.394   5.800  1.00  0.00    -0.317 N 
HETATM   23  C   UNL     1      -0.736   7.318   7.174  1.00  0.00     0.258 C 
HETATM   24  O   UNL     1      -0.887   6.318   7.869  1.00  0.00    -0.267 OA
HETATM   25  H   UNL     1      -0.799   8.310   5.370  1.00  0.00     0.169 HD
BRANCH  23  26
HETATM   26  C   UNL     1      -0.331   8.580   7.871  1.00  0.00     0.054 A 
HETATM   27  C   UNL     1      -0.631   9.884   7.449  1.00  0.00     0.049 A 
HETATM   28 CL   UNL     1      -1.601  10.247   6.064  1.00  0.00    -0.083 Cl
HETATM   29  C   UNL     1      -0.159  10.985   8.179  1.00  0.00     0.025 A 
HETATM   30  C   UNL     1       0.602  10.800   9.333  1.00  0.00     0.002 A 
HETATM   31  C   UNL     1       0.891   9.513   9.772  1.00  0.00     0.001 A 
HETATM   32  C   UNL     1       0.426   8.413   9.048  1.00  0.00     0.019 A 
ENDBRANCH  23  26
ENDBRANCH   5  22
TORSDOF 7
