REMARK  7 active torsions:
REMARK  status: ('A' for Active; 'I' for Inactive)
REMARK    1  A    between atoms: C_2  and  C_3 
REMARK    2  A    between atoms: C_3  and  C_4 
REMARK    3  A    between atoms: C_5  and  O_6 
REMARK    4  A    between atoms: O_6  and  C_7 
REMARK    5  A    between atoms: C_7  and  C_8 
REMARK       I    between atoms: C_8  and  N_9 
REMARK    6  A    between atoms: N_9  and  C_10 
REMARK    7  A    between atoms: C_17  and  C_18 
REMARK       I    between atoms: C_18  and  N_19 
ROOT
HETATM    1  C   UNL     1      -0.349  -0.089   3.042  1.00  0.00     0.246 C 
HETATM    2  N   UNL     1      -0.632  -0.572   4.291  1.00  0.00    -0.325 N 
HETATM    3  O   UNL     1      -0.507  -0.860   2.090  1.00  0.00    -0.271 OA
HETATM    4  H   UNL     1      -0.719  -1.583   4.285  1.00  0.00     0.169 HD
ENDROOT
BRANCH   2   5
HETATM    5  C   UNL     1      -0.869   0.073   5.513  1.00  0.00     0.035 A 
HETATM    6  C   UNL     1      -1.371   1.377   5.605  1.00  0.00     0.046 A 
HETATM    7  C   UNL     1      -1.624   1.934   6.877  1.00  0.00     0.030 A 
HETATM    8  C   UNL     1      -1.374   1.168   8.009  1.00  0.00     0.063 A 
HETATM    9  C   UNL     1      -2.135   3.170   7.372  1.00  0.00     0.156 A 
HETATM   10  N   UNL     1      -1.702   1.969   9.067  1.00  0.00    -0.277 N 
HETATM   11  C   UNL     1      -0.899  -0.143   7.951  1.00  0.00     0.034 A 
HETATM   12  H   UNL     1      -1.639   1.741  10.053  1.00  0.00     0.189 HD
HETATM   13  N   UNL     1      -2.175   3.179   8.723  1.00  0.00    -0.168 NA
HETATM   14  C   UNL     1      -0.672  -0.680   6.677  1.00  0.00     0.032 A 
BRANCH   9  15
HETATM   15  C   UNL     1      -2.588   4.323   6.581  1.00  0.00     0.270 C 
HETATM   16  N   UNL     1      -3.067   5.362   7.330  1.00  0.00    -0.365 N 
HETATM   17  H   UNL     1      -3.081   5.268   8.339  1.00  0.00     0.159 HD
HETATM   18  H   UNL     1      -3.415   6.191   6.875  1.00  0.00     0.159 HD
HETATM   19  O   UNL     1      -2.558   4.375   5.356  1.00  0.00    -0.266 OA
ENDBRANCH   9  15
ENDBRANCH   2   5
BRANCH   1  20
HETATM   20  C   UNL     1       0.273   1.304   2.862  1.00  0.00     0.278 C 
BRANCH  20  21
HETATM   21  O   UNL     1       1.608   1.274   2.358  1.00  0.00    -0.342 OA
BRANCH  21  22
HETATM   22  C   UNL     1       1.801   0.919   1.049  1.00  0.00     0.076 A 
HETATM   23  C   UNL     1       2.970   0.176   0.757  1.00  0.00    -0.021 A 
HETATM   24  C   UNL     1       3.221  -0.151  -0.587  1.00  0.00     0.010 A 
HETATM   25  C   UNL     1       2.352   0.247  -1.605  1.00  0.00     0.001 A 
HETATM   26  C   UNL     1       1.216   0.986  -1.302  1.00  0.00     0.003 A 
HETATM   27  C   UNL     1       0.944   1.329   0.021  1.00  0.00     0.037 A 
BRANCH  23  28
HETATM   28  C   UNL     1       3.908  -0.259   1.887  1.00  0.00     0.017 C 
HETATM   29  C   UNL     1       3.288  -1.401   2.704  1.00  0.00     0.015 C 
BRANCH  28  30
HETATM   30  C   UNL     1       5.373  -0.572   1.488  1.00  0.00     0.004 C 
HETATM   31  C   UNL     1       5.663  -2.006   1.054  1.00  0.00     0.006 C 
ENDBRANCH  28  30
ENDBRANCH  23  28
ENDBRANCH  21  22
ENDBRANCH  20  21
ENDBRANCH   1  20
TORSDOF 7
