REMARK  8 active torsions:
REMARK  status: ('A' for Active; 'I' for Inactive)
REMARK    1  A    between atoms: C_2  and  C_3 
REMARK    2  A    between atoms: C_3  and  O_4 
REMARK    3  A    between atoms: O_4  and  C_5 
REMARK    4  A    between atoms: C_6  and  O_7 
REMARK    5  A    between atoms: O_7  and  C_8 
REMARK    6  A    between atoms: C_8  and  C_9 
REMARK    7  A    between atoms: C_12  and  N_13 
REMARK       I    between atoms: N_13  and  C_14 
REMARK    8  A    between atoms: C_14  and  C_15 
ROOT
HETATM    1  N   UNL     1       7.153  -5.928  -2.270  1.00  0.00    -0.322 N 
HETATM    2  C   UNL     1       8.253  -6.006  -3.100  1.00  0.00     0.277 C 
HETATM    3  O   UNL     1       8.929  -5.099  -3.555  1.00  0.00    -0.266 OA
HETATM    4  H   UNL     1       6.679  -6.815  -2.119  1.00  0.00     0.169 HD
ENDROOT
BRANCH   1   5
HETATM    5  C   UNL     1       6.560  -4.778  -1.722  1.00  0.00     0.037 A 
HETATM    6  C   UNL     1       7.073  -3.487  -1.875  1.00  0.00     0.069 A 
HETATM    7  C   UNL     1       6.418  -2.385  -1.306  1.00  0.00     0.104 A 
HETATM    8  C   UNL     1       5.231  -2.577  -0.573  1.00  0.00     0.102 A 
HETATM    9  C   UNL     1       4.729  -3.870  -0.409  1.00  0.00     0.042 A 
HETATM   10  C   UNL     1       5.389  -4.960  -0.981  1.00  0.00     0.032 A 
BRANCH   7  11
HETATM   11  O   UNL     1       6.847  -1.084  -1.419  1.00  0.00    -0.348 OA
BRANCH  11  12
HETATM   12  C   UNL     1       8.059  -0.836  -2.126  1.00  0.00     0.175 C 
BRANCH  12  13
HETATM   13  C   UNL     1       8.322   0.668  -2.142  1.00  0.00     0.022 C 
HETATM   14  C   UNL     1       8.522   1.240  -0.746  1.00  0.00     0.007 C 
ENDBRANCH  12  13
ENDBRANCH  11  12
ENDBRANCH   7  11
BRANCH   8  15
HETATM   15  O   UNL     1       4.650  -1.449  -0.051  1.00  0.00    -0.348 OA
BRANCH  15  16
HETATM   16  C   UNL     1       3.348  -1.576   0.516  1.00  0.00     0.175 C 
BRANCH  16  17
HETATM   17  C   UNL     1       2.854  -0.178   0.875  1.00  0.00     0.022 C 
HETATM   18  C   UNL     1       1.463  -0.210   1.484  1.00  0.00     0.007 C 
ENDBRANCH  16  17
ENDBRANCH  15  16
ENDBRANCH   8  15
ENDBRANCH   1   5
BRANCH   2  19
HETATM   19  C   UNL     1       8.575  -7.456  -3.467  1.00  0.00     0.156 A 
HETATM   20  N   UNL     1       7.540  -8.227  -3.661  1.00  0.00    -0.166 NA
HETATM   21  N   UNL     1       7.763  -9.528  -3.994  1.00  0.00    -0.242 N 
HETATM   22  C   UNL     1       8.992 -10.122  -4.157  1.00  0.00     0.272 A 
HETATM   23  H   UNL     1       6.946 -10.104  -4.176  1.00  0.00     0.192 HD
HETATM   24  O   UNL     1       9.112 -11.298  -4.480  1.00  0.00    -0.266 OA
HETATM   25  C   UNL     1      10.164  -9.267  -3.906  1.00  0.00     0.046 A 
HETATM   26  C   UNL     1       9.973  -7.931  -3.552  1.00  0.00     0.016 A 
HETATM   27  C   UNL     1      11.454  -9.803  -4.006  1.00  0.00     0.018 A 
HETATM   28  C   UNL     1      11.088  -7.130  -3.279  1.00  0.00     0.015 A 
HETATM   29  C   UNL     1      12.377  -7.664  -3.379  1.00  0.00     0.001 A 
HETATM   30  C   UNL     1      12.560  -8.997  -3.744  1.00  0.00     0.001 A 
ENDBRANCH   2  19
TORSDOF 8
