REMARK  3 active torsions:
REMARK  status: ('A' for Active; 'I' for Inactive)
REMARK       I    between atoms: N_2  and  C_3 
REMARK    1  A    between atoms: C_3  and  C_4 
REMARK    2  A    between atoms: C_7  and  N_8 
REMARK       I    between atoms: N_8  and  C_9 
REMARK    3  A    between atoms: C_9  and  C_10 
ROOT
HETATM    1  N   UNL     1       0.416  -3.116   5.470  1.00  0.00    -0.321 N 
HETATM    2  C   UNL     1      -0.556  -2.584   6.299  1.00  0.00     0.280 C 
HETATM    3  O   UNL     1      -0.995  -1.441   6.240  1.00  0.00    -0.265 OA
HETATM    4  H   UNL     1       0.638  -4.090   5.651  1.00  0.00     0.169 HD
ENDROOT
BRANCH   1   5
HETATM    5  C   UNL     1       1.147  -2.471   4.456  1.00  0.00     0.035 A 
HETATM    6  C   UNL     1       0.991  -1.125   4.117  1.00  0.00     0.030 A 
HETATM    7  C   UNL     1       1.787  -0.543   3.122  1.00  0.00     0.019 A 
HETATM    8  C   UNL     1       2.751  -1.306   2.457  1.00  0.00     0.032 A 
HETATM    9  C   UNL     1       2.889  -2.661   2.768  1.00  0.00     0.019 A 
HETATM   10  C   UNL     1       2.095  -3.237   3.766  1.00  0.00     0.030 A 
BRANCH   8  11
HETATM   11  C   UNL     1       3.635  -0.720   1.414  1.00  0.00     0.251 C 
HETATM   12  N   UNL     1       3.958   0.613   1.570  1.00  0.00    -0.361 N 
HETATM   13  C   UNL     1       4.902   1.244   0.684  1.00  0.00     0.149 C 
HETATM   14  H   UNL     1       3.767   1.060   2.456  1.00  0.00     0.162 HD
HETATM   15  O   UNL     1       4.069  -1.422   0.508  1.00  0.00    -0.268 OA
ENDBRANCH   8  11
ENDBRANCH   1   5
BRANCH   2  16
HETATM   16  C   UNL     1      -1.022  -3.533   7.294  1.00  0.00     0.144 A 
HETATM   17  O   UNL     1      -0.479  -4.793   7.331  1.00  0.00    -0.304 OA
HETATM   18  C   UNL     1      -1.066  -5.452   8.368  1.00  0.00     0.086 A 
HETATM   19  C   UNL     1      -1.993  -4.633   9.001  1.00  0.00     0.001 A 
HETATM   20  C   UNL     1      -0.785  -6.759   8.757  1.00  0.00     0.038 A 
HETATM   21  C   UNL     1      -1.963  -3.402   8.299  1.00  0.00     0.057 A 
HETATM   22  C   UNL     1      -2.699  -5.143  10.105  1.00  0.00     0.014 A 
HETATM   23  C   UNL     1      -2.435  -6.456  10.523  1.00  0.00     0.001 A 
HETATM   24  C   UNL     1      -1.495  -7.248   9.859  1.00  0.00     0.003 A 
ENDBRANCH   2  16
TORSDOF 3
