REMARK  7 active torsions:
REMARK  status: ('A' for Active; 'I' for Inactive)
REMARK    1  A    between atoms: O_2  and  C_3 
REMARK    2  A    between atoms: C_4  and  N_5 
REMARK    3  A    between atoms: N_5  and  C_6 
REMARK    4  A    between atoms: C_8  and  N_9 
REMARK    5  A    between atoms: C_11  and  C_12 
REMARK    6  A    between atoms: C_12  and  N_13 
REMARK    7  A    between atoms: N_17  and  C_18 
ROOT
HETATM    1  C   UNL     1       0.914   6.413  -0.993  1.00  0.00     0.731 A 
HETATM    2  N   UNL     1       0.873   5.111  -0.736  1.00  0.00    -0.031 NA
HETATM    3  C   UNL     1       1.827   4.627   0.040  1.00  0.00     0.219 A 
HETATM    4  N   UNL     1       2.851   5.328   0.510  1.00  0.00    -0.200 NA
HETATM    5  C   UNL     1       2.834   6.617   0.168  1.00  0.00     0.174 A 
HETATM    6  N   UNL     1       1.902   7.201  -0.571  1.00  0.00    -0.045 NA
ENDROOT
BRANCH   5   7
HETATM    7  C   UNL     1       4.107   7.398   0.428  1.00  0.00     0.316 C 
BRANCH   7   8
HETATM    8  N   UNL     1       5.382   6.601   0.093  1.00  0.00    -0.061 N 
HETATM    9  H   UNL     1       5.271   5.736   0.648  1.00  0.00     0.280 HD
HETATM   10  C   UNL     1       5.449   6.183  -1.372  1.00  0.00     0.255 C 
HETATM   11  C   UNL     1       6.683   5.277  -1.606  1.00  0.00     0.152 C 
HETATM   12  N   UNL     1       7.934   5.912  -1.133  1.00  0.00    -0.364 N 
HETATM   13  C   UNL     1       7.893   6.459   0.245  1.00  0.00     0.152 C 
HETATM   14  C   UNL     1       6.641   7.326   0.522  1.00  0.00     0.255 C 
BRANCH  12  15
HETATM   15  C   UNL     1       8.781   6.449  -2.080  1.00  0.00     0.102 A 
HETATM   16  N   UNL     1       9.336   5.605  -2.969  1.00  0.00    -0.352 N 
HETATM   17  H   UNL     1       9.137   4.614  -2.856  1.00  0.00     0.166 HD
HETATM   18  C   UNL     1      10.185   5.985  -3.936  1.00  0.00     0.089 A 
HETATM   19  C   UNL     1      10.536   7.319  -4.061  1.00  0.00     0.017 A 
HETATM   20  C   UNL     1      10.008   8.235  -3.161  1.00  0.00     0.005 A 
HETATM   21  C   UNL     1       9.136   7.800  -2.162  1.00  0.00     0.048 A 
ENDBRANCH  12  15
ENDBRANCH   7   8
ENDBRANCH   5   7
BRANCH   3  22
HETATM   22  N   UNL     1       1.792   3.282   0.336  1.00  0.00    -0.270 NA
HETATM   23  H   UNL     1       0.861   2.915   0.162  1.00  0.00     0.127 HD
HETATM   24  H   UNL     1       2.153   3.084   1.260  1.00  0.00     0.127 HD
ENDBRANCH   3  22
BRANCH   1  25
HETATM   25  N   UNL     1      -0.067   6.926  -1.825  1.00  0.00    -0.185 N 
HETATM   26  H   UNL     1      -0.624   6.213  -2.283  1.00  0.00     0.184 HD
BRANCH  25  27
HETATM   27  C   UNL     1      -0.526   8.239  -2.046  1.00  0.00     0.084 A 
HETATM   28  C   UNL     1      -1.191   8.537  -3.258  1.00  0.00     0.095 A 
HETATM   29  C   UNL     1      -1.650   9.835  -3.509  1.00  0.00     0.041 A 
HETATM   30  C   UNL     1      -1.425  10.850  -2.578  1.00  0.00     0.026 A 
HETATM   31  C   UNL     1      -0.741  10.569  -1.401  1.00  0.00     0.036 A 
HETATM   32  C   UNL     1      -0.288   9.277  -1.136  1.00  0.00     0.056 A 
HETATM   33 CL   UNL     1      -0.447  11.819  -0.256  1.00  0.00    -0.084 Cl
BRANCH  28  34
HETATM   34  O   UNL     1      -1.342   7.476  -4.120  1.00  0.00    -0.354 OA
HETATM   35  C   UNL     1      -1.692   7.794  -5.464  1.00  0.00     0.210 C 
ENDBRANCH  28  34
ENDBRANCH  25  27
ENDBRANCH   1  25
TORSDOF 7
