REMARK  8 active torsions:
REMARK  status: ('A' for Active; 'I' for Inactive)
REMARK    1  A    between atoms: O_2  and  C_3 
REMARK    2  A    between atoms: C_4  and  O_5 
REMARK    3  A    between atoms: C_13  and  C_14 
REMARK    4  A    between atoms: C_14  and  N_15 
REMARK    5  A    between atoms: N_15  and  C_16 
REMARK    6  A    between atoms: C_17  and  C_18 
REMARK       I    between atoms: C_18  and  N_19 
REMARK    7  A    between atoms: N_19  and  C_20 
REMARK    8  A    between atoms: C_20  and  C_21 
ROOT
HETATM    1  N   UNL     1       8.316  -3.904  -4.673  1.00  0.00    -0.285 NA
HETATM    2  H   UNL     1       8.987  -3.583  -3.966  1.00  0.00     0.128 HD
ENDROOT
BRANCH   1   3
HETATM    3  C   UNL     1       7.125  -4.502  -4.043  1.00  0.00     0.171 C 
BRANCH   3   4
HETATM    4  C   UNL     1       6.320  -3.537  -3.180  1.00  0.00     0.120 A 
HETATM    5  N   UNL     1       6.736  -2.237  -3.091  1.00  0.00    -0.310 N 
HETATM    6  C   UNL     1       6.072  -1.288  -2.353  1.00  0.00     0.259 A 
HETATM    7  H   UNL     1       7.547  -1.920  -3.608  1.00  0.00     0.170 HD
HETATM    8  C   UNL     1       4.864  -1.749  -1.653  1.00  0.00     0.064 A 
HETATM    9  O   UNL     1       6.440  -0.123  -2.278  1.00  0.00    -0.267 OA
HETATM   10  C   UNL     1       4.511  -3.087  -1.798  1.00  0.00     0.077 A 
HETATM   11  C   UNL     1       4.088  -0.873  -0.894  1.00  0.00     0.059 A 
HETATM   12  C   UNL     1       3.359  -3.551  -1.158  1.00  0.00     0.072 A 
HETATM   13  N   UNL     1       5.267  -3.984  -2.569  1.00  0.00    -0.233 NA
HETATM   14  C   UNL     1       2.572  -2.691  -0.378  1.00  0.00     0.103 A 
HETATM   15  C   UNL     1       2.922  -1.334  -0.279  1.00  0.00     0.102 A 
BRANCH  14  16
HETATM   16  O   UNL     1       1.444  -3.127   0.267  1.00  0.00    -0.353 OA
HETATM   17  C   UNL     1       1.550  -4.417   0.862  1.00  0.00     0.210 C 
ENDBRANCH  14  16
BRANCH  15  18
HETATM   18  O   UNL     1       2.257  -0.377   0.443  1.00  0.00    -0.353 OA
HETATM   19  C   UNL     1       0.836  -0.432   0.370  1.00  0.00     0.210 C 
ENDBRANCH  15  18
ENDBRANCH   3   4
ENDBRANCH   1   3
BRANCH   1  20
HETATM   20  C   UNL     1       9.041  -4.730  -5.585  1.00  0.00     0.024 A 
HETATM   21  C   UNL     1      10.191  -4.243  -6.258  1.00  0.00     0.053 A 
HETATM   22  C   UNL     1      10.920  -5.074  -7.132  1.00  0.00     0.019 A 
HETATM   23  C   UNL     1      10.516  -6.382  -7.375  1.00  0.00     0.001 A 
HETATM   24  C   UNL     1       9.382  -6.871  -6.745  1.00  0.00     0.002 A 
HETATM   25  C   UNL     1       8.656  -6.057  -5.866  1.00  0.00     0.024 A 
BRANCH  21  26
HETATM   26  C   UNL     1      10.700  -2.846  -6.142  1.00  0.00     0.253 C 
HETATM   27  N   UNL     1       9.753  -1.875  -5.935  1.00  0.00    -0.351 N 
HETATM   28  H   UNL     1       8.791  -2.165  -5.794  1.00  0.00     0.163 HD
HETATM   29  O   UNL     1      11.894  -2.606  -6.278  1.00  0.00    -0.268 OA
BRANCH  27  30
HETATM   30  C   UNL     1      10.088  -0.474  -5.872  1.00  0.00     0.187 C 
BRANCH  30  31
HETATM   31  C   UNL     1      10.162  -0.063  -4.452  1.00  0.00     0.070 A 
HETATM   32  O   UNL     1       9.070   0.575  -3.947  1.00  0.00    -0.325 OA
HETATM   33  C   UNL     1       9.358   0.897  -2.659  1.00  0.00     0.142 A 
HETATM   34  C   UNL     1      10.615   0.454  -2.322  1.00  0.00     0.027 A 
HETATM   35  C   UNL     1      11.136  -0.171  -3.480  1.00  0.00     0.036 A 
ENDBRANCH  30  31
ENDBRANCH  27  30
ENDBRANCH  21  26
ENDBRANCH   1  20
TORSDOF 8
