REMARK  12 active torsions:
REMARK  status: ('A' for Active; 'I' for Inactive)
REMARK    1  A    between atoms: C_2  and  N_3 
REMARK    2  A    between atoms: N_3  and  C_5 
REMARK    3  A    between atoms: N_3  and  C_37 
REMARK    4  A    between atoms: C_5  and  C_6 
REMARK    5  A    between atoms: C_6  and  C_7 
REMARK    6  A    between atoms: C_7  and  N_8 
REMARK    7  A    between atoms: N_8  and  C_9 
REMARK    8  A    between atoms: C_9  and  N_10 
REMARK    9  A    between atoms: N_10  and  C_11 
REMARK   10  A    between atoms: N_10  and  C_26 
REMARK   11  A    between atoms: C_11  and  C_12 
REMARK   12  A    between atoms: C_26  and  C_27 
ROOT
HETATM    1  N   UNL     1      -1.109   4.996   3.347  1.00  0.00    -0.350 N 
ENDROOT
BRANCH   1   2
HETATM    2  C   UNL     1      -1.593   4.324   2.208  1.00  0.00     0.170 C 
HETATM    3  S   UNL     1      -0.816   3.038   1.451  1.00  0.00    -0.041 SA
BRANCH   2   4
HETATM    4  N   UNL     1      -2.822   4.786   1.762  1.00  0.00    -0.367 N 
HETATM    5  H   UNL     1      -3.016   5.763   1.950  1.00  0.00     0.161 HD
BRANCH   4   6
HETATM    6  C   UNL     1      -3.628   4.165   0.723  1.00  0.00     0.123 C 
BRANCH   6   7
HETATM    7  C   UNL     1      -4.999   4.824   0.611  1.00  0.00     0.047 C 
BRANCH   7   8
HETATM    8  C   UNL     1      -5.909   3.984  -0.274  1.00  0.00     0.236 C 
BRANCH   8   9
HETATM    9  N   UNL     1      -7.217   4.682  -0.617  1.00  0.00    -0.072 N 
HETATM   10  H   UNL     1      -7.785   3.972  -1.099  1.00  0.00     0.279 HD
BRANCH   9  11
HETATM   11  C   UNL     1      -7.082   5.829  -1.608  1.00  0.00     0.230 C 
HETATM   12  C   UNL     1      -6.542   5.352  -2.944  1.00  0.00     0.034 C 
ENDBRANCH   9  11
BRANCH   9  13
HETATM   13  C   UNL     1      -8.047   5.116   0.581  1.00  0.00     0.230 C 
HETATM   14  C   UNL     1      -8.410   3.939   1.468  1.00  0.00     0.034 C 
ENDBRANCH   9  13
ENDBRANCH   8   9
ENDBRANCH   7   8
ENDBRANCH   6   7
ENDBRANCH   4   6
ENDBRANCH   2   4
ENDBRANCH   1   2
BRANCH   1  15
HETATM   15  C   UNL     1      -1.924   5.951   4.122  1.00  0.00     0.169 C 
BRANCH  15  16
HETATM   16  C   UNL     1      -3.198   5.342   4.648  1.00  0.00     0.029 A 
HETATM   17  C   UNL     1      -4.468   6.024   4.251  1.00  0.00     0.253 A 
HETATM   18  O   UNL     1      -4.486   6.927   3.416  1.00  0.00    -0.268 OA
HETATM   19  N   UNL     1      -5.633   5.575   4.812  1.00  0.00    -0.322 N 
HETATM   20  C   UNL     1      -5.710   4.445   5.634  1.00  0.00     0.048 A 
HETATM   21  H   UNL     1      -6.470   6.090   4.582  1.00  0.00     0.169 HD
HETATM   22  C   UNL     1      -4.525   3.742   5.943  1.00  0.00    -0.006 A 
HETATM   23  C   UNL     1      -6.953   4.023   6.108  1.00  0.00     0.070 A 
HETATM   24  C   UNL     1      -4.584   2.593   6.738  1.00  0.00     0.053 A 
HETATM   25  C   UNL     1      -3.251   4.251   5.434  1.00  0.00     0.028 A 
HETATM   26  C   UNL     1      -5.824   2.190   7.189  1.00  0.00     0.106 A 
HETATM   27  C   UNL     1      -6.973   2.884   6.884  1.00  0.00     0.107 A 
HETATM   28  O   UNL     1      -6.072   1.099   7.962  1.00  0.00    -0.323 OA
HETATM   29  O   UNL     1      -8.083   2.313   7.421  1.00  0.00    -0.323 OA
HETATM   30  C   UNL     1      -7.503   1.193   8.125  1.00  0.00     0.352 A 
ENDBRANCH  15  16
ENDBRANCH   1  15
BRANCH   1  31
HETATM   31  C   UNL     1       0.330   4.979   3.691  1.00  0.00     0.164 C 
BRANCH  31  32
HETATM   32  C   UNL     1       0.715   3.966   4.747  1.00  0.00    -0.037 A 
HETATM   33  C   UNL     1       0.446   4.196   6.107  1.00  0.00     0.048 A 
HETATM   34  C   UNL     1       0.834   3.239   7.024  1.00  0.00     0.105 A 
HETATM   35  C   UNL     1       1.481   2.088   6.645  1.00  0.00     0.105 A 
HETATM   36  O   UNL     1       0.640   3.305   8.368  1.00  0.00    -0.323 OA
HETATM   37  O   UNL     1       1.779   1.286   7.701  1.00  0.00    -0.323 OA
HETATM   38  C   UNL     1       1.779   1.829   5.328  1.00  0.00     0.040 A 
HETATM   39  C   UNL     1       1.263   2.073   8.793  1.00  0.00     0.352 A 
HETATM   40  C   UNL     1       1.394   2.779   4.377  1.00  0.00     0.012 A 
ENDBRANCH  31  32
ENDBRANCH   1  31
TORSDOF 12
