REMARK  8 active torsions:
REMARK  status: ('A' for Active; 'I' for Inactive)
REMARK    1  A    between atoms: C_12  and  S_13 
REMARK    2  A    between atoms: S_13  and  C_14 
REMARK    3  A    between atoms: C_14  and  C_15 
REMARK       I    between atoms: C_15  and  N_16 
REMARK    4  A    between atoms: N_16  and  C_17 
REMARK    5  A    between atoms: C_17  and  C_18 
REMARK    6  A    between atoms: C_18  and  C_19 
REMARK    7  A    between atoms: C_21  and  O_22 
REMARK    8  A    between atoms: C_24  and  O_25 
ROOT
HETATM    1  C   UNL     1       9.583  -0.411   0.272  1.00  0.00     0.185 C 
ENDROOT
BRANCH   1   2
HETATM    2  S   UNL     1       8.742  -0.435  -1.339  1.00  0.00    -0.080 SA
BRANCH   2   3
HETATM    3  C   UNL     1       7.260  -1.228  -0.922  1.00  0.00     0.197 A 
HETATM    4  N   UNL     1       6.293  -1.712  -1.789  1.00  0.00    -0.271 N 
HETATM    5  C   UNL     1       6.095  -1.648  -3.199  1.00  0.00     0.054 A 
HETATM    6  C   UNL     1       5.413  -2.381  -0.946  1.00  0.00     0.159 A 
HETATM    7  C   UNL     1       4.997  -2.375  -3.722  1.00  0.00    -0.003 A 
HETATM    8  C   UNL     1       6.907  -0.898  -4.057  1.00  0.00     0.031 A 
HETATM    9  C   UNL     1       4.103  -3.138  -2.812  1.00  0.00    -0.046 A 
HETATM   10  C   UNL     1       4.771  -2.347  -5.109  1.00  0.00     0.014 A 
HETATM   11  C   UNL     1       2.957  -3.934  -3.370  1.00  0.00     0.049 C 
HETATM   12  C   UNL     1       4.328  -3.102  -1.488  1.00  0.00     0.060 A 
HETATM   13  C   UNL     1       5.597  -1.609  -5.957  1.00  0.00     0.001 A 
HETATM   14  C   UNL     1       6.657  -0.883  -5.431  1.00  0.00     0.002 A 
HETATM   15  N   UNL     1       5.773  -2.223   0.309  1.00  0.00    -0.129 NA
HETATM   16  N   UNL     1       6.929  -1.499   0.323  1.00  0.00    -0.122 NA
ENDBRANCH   2   3
ENDBRANCH   1   2
BRANCH   1  17
HETATM   17  C   UNL     1      10.823   0.460   0.186  1.00  0.00     0.227 C 
HETATM   18  N   UNL     1      10.710   1.815   0.361  1.00  0.00    -0.360 N 
HETATM   19  H   UNL     1      11.594   2.288   0.203  1.00  0.00     0.162 HD
HETATM   20  O   UNL     1      11.943  -0.015  -0.012  1.00  0.00    -0.273 OA
BRANCH  18  21
HETATM   21  C   UNL     1       9.494   2.605   0.258  1.00  0.00     0.127 C 
BRANCH  21  22
HETATM   22  C   UNL     1       9.574   3.898   1.069  1.00  0.00     0.058 C 
BRANCH  22  23
HETATM   23  C   UNL     1       8.281   4.672   0.980  1.00  0.00    -0.054 A 
HETATM   24  C   UNL     1       7.140   4.217   1.661  1.00  0.00     0.046 A 
HETATM   25  C   UNL     1       5.917   4.885   1.540  1.00  0.00     0.102 A 
HETATM   26  C   UNL     1       5.834   6.049   0.752  1.00  0.00     0.101 A 
HETATM   27  C   UNL     1       6.974   6.509   0.086  1.00  0.00     0.040 A 
HETATM   28  C   UNL     1       8.187   5.822   0.193  1.00  0.00     0.010 A 
BRANCH  25  29
HETATM   29  O   UNL     1       4.761   4.486   2.166  1.00  0.00    -0.353 OA
HETATM   30  C   UNL     1       4.704   3.136   2.610  1.00  0.00     0.210 C 
ENDBRANCH  25  29
BRANCH  26  31
HETATM   31  O   UNL     1       4.602   6.651   0.692  1.00  0.00    -0.353 OA
HETATM   32  C   UNL     1       4.461   7.782  -0.154  1.00  0.00     0.210 C 
ENDBRANCH  26  31
ENDBRANCH  22  23
ENDBRANCH  21  22
ENDBRANCH  18  21
ENDBRANCH   1  17
TORSDOF 8
