REMARK  5 active torsions:
REMARK  status: ('A' for Active; 'I' for Inactive)
REMARK    1  A    between atoms: C_2  and  C_3 
REMARK    2  A    between atoms: C_7  and  N_8 
REMARK    3  A    between atoms: C_13  and  N_14 
REMARK       I    between atoms: N_14  and  C_15 
REMARK    4  A    between atoms: C_15  and  C_16 
REMARK       I    between atoms: C_16  and  N_17 
REMARK    5  A    between atoms: N_17  and  C_18 
ROOT
HETATM    1  N   UNL     1      -0.578  -6.077  -0.383  1.00  0.00    -0.045 N 
HETATM    2  N   UNL     1      -1.914  -5.810  -0.356  1.00  0.00    -0.156 NA
HETATM    3  C   UNL     1      -2.381  -6.357  -1.484  1.00  0.00     0.055 A 
HETATM    4  C   UNL     1      -3.825  -6.275  -1.824  1.00  0.00     0.072 C 
HETATM    5  C   UNL     1      -1.355  -6.979  -2.235  1.00  0.00     0.079 A 
HETATM    6  C   UNL     1      -0.201  -6.786  -1.513  1.00  0.00     0.152 A 
ENDROOT
BRANCH   6   7
HETATM    7  N   UNL     1       1.097  -7.188  -1.810  1.00  0.00    -0.303 N 
HETATM    8  C   UNL     1       1.477  -7.912  -2.983  1.00  0.00     0.315 C 
HETATM    9  O   UNL     1       0.685  -8.276  -3.835  1.00  0.00    -0.262 OA
HETATM   10  H   UNL     1       1.842  -6.941  -1.147  1.00  0.00     0.171 HD
BRANCH   8  11
HETATM   11  C   UNL     1       2.985  -8.195  -3.101  1.00  0.00     0.310 C 
HETATM   12  N   UNL     1       3.360  -8.819  -4.273  1.00  0.00    -0.348 N 
HETATM   13  H   UNL     1       2.617  -9.124  -4.899  1.00  0.00     0.163 HD
HETATM   14  O   UNL     1       3.720  -7.855  -2.184  1.00  0.00    -0.262 OA
BRANCH  12  15
HETATM   15  C   UNL     1       4.725  -9.249  -4.553  1.00  0.00     0.085 C 
HETATM   16  C   UNL     1       4.939  -9.299  -6.072  1.00  0.00     0.034 C 
HETATM   17  C   UNL     1       6.332  -9.811  -6.492  1.00  0.00    -0.045 C 
HETATM   18  C   UNL     1       7.404  -8.736  -6.238  1.00  0.00     0.015 C 
HETATM   19  C   UNL     1       6.318 -10.082  -8.013  1.00  0.00     0.015 C 
HETATM   20  C   UNL     1       6.661 -11.137  -5.765  1.00  0.00     0.013 C 
HETATM   21  C   UNL     1       6.373 -11.189  -4.255  1.00  0.00    -0.016 C 
HETATM   22  C   UNL     1       4.988 -10.620  -3.920  1.00  0.00     0.029 C 
HETATM   23  C   UNL     1       7.473 -10.557  -3.401  1.00  0.00     0.010 C 
ENDBRANCH  12  15
ENDBRANCH   8  11
ENDBRANCH   6   7
BRANCH   1  24
HETATM   24  C   UNL     1       0.257  -5.644   0.655  1.00  0.00     0.732 A 
HETATM   25  N   UNL     1      -0.429  -4.965   1.614  1.00  0.00    -0.152 N 
HETATM   26  C   UNL     1       0.198  -4.455   2.704  1.00  0.00     0.268 A 
HETATM   27  H   UNL     1      -1.431  -4.826   1.523  1.00  0.00     0.188 HD
HETATM   28  C   UNL     1       1.669  -4.700   2.767  1.00  0.00     0.035 A 
HETATM   29  O   UNL     1      -0.409  -3.839   3.571  1.00  0.00    -0.267 OA
HETATM   30  C   UNL     1       2.233  -5.391   1.751  1.00  0.00     0.061 A 
HETATM   31  N   UNL     1       1.530  -5.879   0.664  1.00  0.00    -0.067 NA
HETATM   32  C   UNL     1       3.703  -5.730   1.706  1.00  0.00     0.072 C 
BRANCH  28  33
HETATM   33  C   UNL     1       2.377  -4.103   3.956  1.00  0.00     0.042 C 
HETATM   34  C   UNL     1       2.311  -5.011   5.176  1.00  0.00     0.010 C 
ENDBRANCH  28  33
ENDBRANCH   1  24
TORSDOF 5
