REMARK  9 active torsions:
REMARK  status: ('A' for Active; 'I' for Inactive)
REMARK    1  A    between atoms: C_3  and  N_4 
REMARK    2  A    between atoms: N_4  and  C_5 
REMARK    3  A    between atoms: C_7  and  C_8 
REMARK    4  A    between atoms: C_19  and  N_20 
REMARK       I    between atoms: N_20  and  C_21 
REMARK    5  A    between atoms: C_21  and  C_22 
REMARK    6  A    between atoms: C_24  and  N_25 
REMARK       I    between atoms: N_25  and  C_26 
REMARK    7  A    between atoms: C_26  and  C_27 
REMARK    8  A    between atoms: C_28  and  C_29 
REMARK    9  A    between atoms: C_29  and  N_30 
ROOT
HETATM    1  C   UNL     1       6.552   0.976   2.111  1.00  0.00     0.050 C 
HETATM    2  C   UNL     1       5.337   0.190   1.692  1.00  0.00    -0.033 A 
HETATM    3  C   UNL     1       4.102   0.329   2.358  1.00  0.00     0.055 A 
HETATM    4  C   UNL     1       3.027  -0.447   1.905  1.00  0.00     0.033 A 
HETATM    5  C   UNL     1       3.160  -1.359   0.851  1.00  0.00     0.032 A 
HETATM    6  C   UNL     1       4.389  -1.540   0.232  1.00  0.00     0.035 A 
HETATM    7  C   UNL     1       5.468  -0.749   0.647  1.00  0.00     0.038 A 
ENDROOT
BRANCH   6   8
HETATM    8  N   UNL     1       4.636  -2.509  -0.766  1.00  0.00    -0.323 N 
HETATM    9  C   UNL     1       3.726  -3.406  -1.301  1.00  0.00     0.256 C 
HETATM   10  O   UNL     1       2.525  -3.458  -1.065  1.00  0.00    -0.267 OA
HETATM   11  H   UNL     1       5.604  -2.601  -1.038  1.00  0.00     0.169 HD
BRANCH   9  12
HETATM   12  C   UNL     1       4.295  -4.434  -2.223  1.00  0.00     0.034 A 
HETATM   13  C   UNL     1       5.434  -4.197  -3.007  1.00  0.00     0.046 A 
HETATM   14  C   UNL     1       5.949  -5.202  -3.832  1.00  0.00     0.035 A 
HETATM   15  C   UNL     1       5.291  -6.437  -3.894  1.00  0.00     0.029 A 
HETATM   16  C   UNL     1       4.143  -6.672  -3.137  1.00  0.00     0.003 A 
HETATM   17  C   UNL     1       3.647  -5.673  -2.303  1.00  0.00     0.017 A 
BRANCH  14  18
HETATM   18  N   UNL     1       7.107  -5.048  -4.628  1.00  0.00    -0.324 N 
HETATM   19  C   UNL     1       7.950  -3.961  -4.652  1.00  0.00     0.245 C 
HETATM   20  O   UNL     1       7.885  -2.944  -3.972  1.00  0.00    -0.268 OA
HETATM   21  H   UNL     1       7.322  -5.836  -5.225  1.00  0.00     0.169 HD
BRANCH  19  22
HETATM   22  C   UNL     1       9.066  -4.123  -5.630  1.00  0.00     0.072 C 
HETATM   23  C   UNL     1       9.764  -3.033  -5.991  1.00  0.00     0.006 C 
BRANCH  23  24
HETATM   24  C   UNL     1      10.935  -3.024  -6.912  1.00  0.00     0.261 C 
BRANCH  24  25
HETATM   25  N   UNL     1      12.154  -2.398  -6.282  1.00  0.00    -0.076 N 
HETATM   26  H   UNL     1      11.855  -1.494  -5.892  1.00  0.00     0.279 HD
HETATM   27  C   UNL     1      12.709  -3.200  -5.137  1.00  0.00     0.269 C 
HETATM   28  C   UNL     1      13.213  -2.093  -7.304  1.00  0.00     0.269 C 
ENDBRANCH  24  25
ENDBRANCH  23  24
ENDBRANCH  19  22
ENDBRANCH  14  18
ENDBRANCH   9  12
ENDBRANCH   6   8
BRANCH   3  29
HETATM   29  N   UNL     1       3.991   1.142   3.495  1.00  0.00    -0.188 N 
HETATM   30  H   UNL     1       4.669   1.874   3.628  1.00  0.00     0.184 HD
BRANCH  29  31
HETATM   31  C   UNL     1       3.157   1.071   4.610  1.00  0.00     0.727 A 
HETATM   32  N   UNL     1       3.347   2.022   5.539  1.00  0.00    -0.062 NA
HETATM   33  C   UNL     1       2.591   1.984   6.663  1.00  0.00     0.089 A 
HETATM   34  C   UNL     1       1.663   0.983   6.875  1.00  0.00     0.053 A 
HETATM   35  C   UNL     1       1.544   0.050   5.880  1.00  0.00     0.139 A 
HETATM   36  N   UNL     1       2.270   0.078   4.753  1.00  0.00    -0.075 NA
BRANCH  33  37
HETATM   37  C   UNL     1       2.836   3.061   7.639  1.00  0.00     0.011 A 
HETATM   38  C   UNL     1       4.084   3.681   7.740  1.00  0.00     0.130 A 
HETATM   39  N   UNL     1       4.401   4.665   8.620  1.00  0.00    -0.272 NA
HETATM   40  C   UNL     1       3.421   5.073   9.450  1.00  0.00     0.116 A 
HETATM   41  C   UNL     1       2.143   4.545   9.438  1.00  0.00     0.020 A 
HETATM   42  C   UNL     1       1.853   3.533   8.523  1.00  0.00     0.017 A 
ENDBRANCH  33  37
ENDBRANCH  29  31
ENDBRANCH   3  29
TORSDOF 9
