REMARK  4 active torsions:
REMARK  status: ('A' for Active; 'I' for Inactive)
REMARK    1  A    between atoms: C_6  and  C_7 
REMARK    2  A    between atoms: C_7  and  N_8 
REMARK       I    between atoms: N_8  and  C_9 
REMARK    3  A    between atoms: C_9  and  C_10 
REMARK    4  A    between atoms: C_14  and  C_15 
ROOT
HETATM    1  N   UNL     1      -4.454  -1.453   0.014  1.00  0.00    -0.349 N 
HETATM    2  C   UNL     1      -5.804  -1.659  -0.044  1.00  0.00     0.270 C 
HETATM    3  O   UNL     1      -6.289  -2.785  -0.125  1.00  0.00    -0.266 OA
HETATM    4  H   UNL     1      -4.054  -0.523   0.046  1.00  0.00     0.163 HD
ENDROOT
BRANCH   2   5
HETATM    5  C   UNL     1      -6.618  -0.476  -0.012  1.00  0.00     0.120 A 
HETATM    6  N   UNL     1      -7.978  -0.544  -0.115  1.00  0.00    -0.272 N 
HETATM    7  H   UNL     1      -8.537  -1.386  -0.218  1.00  0.00     0.189 HD
HETATM    8  N   UNL     1      -8.595   0.645  -0.081  1.00  0.00    -0.174 NA
HETATM    9  C   UNL     1      -7.604   1.538   0.073  1.00  0.00     0.089 A 
HETATM   10  C   UNL     1      -6.345   0.872   0.114  1.00  0.00     0.071 A 
BRANCH   9  11
HETATM   11  C   UNL     1      -7.880   2.976   0.169  1.00  0.00    -0.006 A 
HETATM   12  C   UNL     1      -6.922   3.869   0.673  1.00  0.00     0.015 A 
HETATM   13  C   UNL     1      -7.200   5.238   0.762  1.00  0.00     0.024 A 
HETATM   14  C   UNL     1      -8.438   5.724   0.347  1.00  0.00     0.034 A 
HETATM   15 CL   UNL     1      -8.777   7.407   0.458  1.00  0.00    -0.084 Cl
HETATM   16  C   UNL     1      -9.401   4.855  -0.155  1.00  0.00     0.024 A 
HETATM   17  C   UNL     1      -9.123   3.487  -0.240  1.00  0.00     0.015 A 
ENDBRANCH   9  11
ENDBRANCH   2   5
BRANCH   1  18
HETATM   18  C   UNL     1      -3.527  -2.554  -0.029  1.00  0.00     0.201 C 
BRANCH  18  19
HETATM   19  C   UNL     1      -2.140  -2.014  -0.010  1.00  0.00     0.123 A 
HETATM   20  N   UNL     1      -1.777  -0.744   0.019  1.00  0.00    -0.232 NA
HETATM   21  C   UNL     1      -0.403  -0.754   0.015  1.00  0.00     0.085 A 
HETATM   22  C   UNL     1       0.084  -2.055  -0.014  1.00  0.00     0.062 A 
HETATM   23  C   UNL     1       0.504   0.316   0.033  1.00  0.00     0.034 A 
HETATM   24  C   UNL     1       1.446  -2.366  -0.025  1.00  0.00     0.032 A 
HETATM   25  N   UNL     1      -1.041  -2.838  -0.028  1.00  0.00    -0.341 N 
HETATM   26  C   UNL     1       2.336  -1.286  -0.007  1.00  0.00     0.002 A 
HETATM   27  C   UNL     1       1.876   0.033   0.021  1.00  0.00     0.002 A 
HETATM   28  H   UNL     1      -1.056  -3.848  -0.051  1.00  0.00     0.167 HD
ENDBRANCH  18  19
ENDBRANCH   1  18
TORSDOF 4
