REMARK  8 active torsions:
REMARK  status: ('A' for Active; 'I' for Inactive)
REMARK    1  A    between atoms: C_4  and  N_5 
REMARK    2  A    between atoms: C_7  and  C_8 
REMARK    3  A    between atoms: C_8  and  N_9 
REMARK       I    between atoms: N_9  and  C_10 
REMARK       I    between atoms: C_10  and  N_11 
REMARK    4  A    between atoms: N_11  and  C_12 
REMARK    5  A    between atoms: C_12  and  C_13 
REMARK    6  A    between atoms: C_13  and  N_14 
REMARK       I    between atoms: N_14  and  C_15 
REMARK    7  A    between atoms: C_15  and  C_16 
REMARK    8  A    between atoms: C_17  and  O_18 
ROOT
HETATM    1  N   UNL     1       7.133   1.418  -0.828  1.00  0.00    -0.337 N 
HETATM    2  C   UNL     1       8.320   2.081  -0.900  1.00  0.00     0.316 C 
HETATM    3  N   UNL     1       8.164   3.428  -0.724  1.00  0.00    -0.342 N 
HETATM    4  O   UNL     1       9.396   1.535  -1.104  1.00  0.00    -0.248 OA
HETATM    5  H   UNL     1       6.354   1.859  -0.358  1.00  0.00     0.164 HD
HETATM    6  H   UNL     1       7.249   3.807  -0.917  1.00  0.00     0.164 HD
ENDROOT
BRANCH   1   7
HETATM    7  C   UNL     1       7.108  -0.027  -0.821  1.00  0.00     0.185 C 
BRANCH   7   8
HETATM    8  C   UNL     1       5.701  -0.521  -0.670  1.00  0.00     0.074 A 
HETATM    9  N   UNL     1       4.665   0.320  -0.521  1.00  0.00    -0.171 NA
HETATM   10  N   UNL     1       3.566  -0.479  -0.438  1.00  0.00    -0.245 N 
HETATM   11  C   UNL     1       3.919  -1.811  -0.483  1.00  0.00     0.121 A 
HETATM   12  C   UNL     1       5.282  -1.867  -0.639  1.00  0.00     0.050 A 
BRANCH  10  13
HETATM   13  C   UNL     1       2.261   0.079  -0.329  1.00  0.00     0.058 A 
HETATM   14  C   UNL     1       2.105   1.474  -0.319  1.00  0.00     0.031 A 
HETATM   15  C   UNL     1       0.832   2.041  -0.227  1.00  0.00     0.002 A 
HETATM   16  C   UNL     1      -0.292   1.223  -0.142  1.00  0.00     0.000 A 
HETATM   17  C   UNL     1      -0.147  -0.163  -0.148  1.00  0.00     0.002 A 
HETATM   18  C   UNL     1       1.125  -0.738  -0.242  1.00  0.00     0.031 A 
ENDBRANCH  10  13
ENDBRANCH   7   8
ENDBRANCH   1   7
BRANCH   3  19
HETATM   19  C   UNL     1       9.294   4.334  -0.852  1.00  0.00     0.144 C 
BRANCH  19  20
HETATM   20  C   UNL     1       9.655   4.614  -2.316  1.00  0.00     0.142 C 
BRANCH  20  21
HETATM   21  N   UNL     1       8.566   5.247  -3.051  1.00  0.00    -0.355 N 
HETATM   22  C   UNL     1       8.255   6.575  -2.857  1.00  0.00     0.254 C 
HETATM   23  O   UNL     1       8.857   7.289  -2.057  1.00  0.00    -0.268 OA
HETATM   24  H   UNL     1       8.167   4.726  -3.818  1.00  0.00     0.162 HD
BRANCH  22  25
HETATM   25  C   UNL     1       7.159   7.170  -3.675  1.00  0.00     0.065 A 
HETATM   26  C   UNL     1       7.051   8.568  -3.768  1.00  0.00     0.081 A 
HETATM   27  C   UNL     1       6.041   9.158  -4.526  1.00  0.00     0.037 A 
HETATM   28  C   UNL     1       5.113   8.359  -5.189  1.00  0.00     0.003 A 
HETATM   29  C   UNL     1       5.193   6.971  -5.090  1.00  0.00     0.001 A 
HETATM   30  C   UNL     1       6.208   6.375  -4.334  1.00  0.00     0.020 A 
BRANCH  26  31
HETATM   31  O   UNL     1       7.906   9.433  -3.135  1.00  0.00    -0.360 OA
HETATM   32  H   UNL     1       8.490   8.901  -2.547  1.00  0.00     0.217 HD
ENDBRANCH  26  31
ENDBRANCH  22  25
ENDBRANCH  20  21
ENDBRANCH  19  20
ENDBRANCH   3  19
TORSDOF 8
