REMARK  5 active torsions:
REMARK  status: ('A' for Active; 'I' for Inactive)
REMARK    1  A    between atoms: C_8  and  C_9 
REMARK    2  A    between atoms: C_13  and  C_14 
REMARK    3  A    between atoms: C_14  and  O_15 
REMARK    4  A    between atoms: O_15  and  C_16 
REMARK    5  A    between atoms: C_27  and  N_28 
ROOT
HETATM    1  C   UNL     1       5.983   3.178   1.370  1.00  0.00     0.073 C 
HETATM    2  C   UNL     1       5.304   3.858   0.240  1.00  0.00     0.062 A 
HETATM    3  N   UNL     1       5.929   4.835  -0.440  1.00  0.00    -0.177 NA
HETATM    4  N   UNL     1       5.029   5.224  -1.367  1.00  0.00    -0.256 N 
HETATM    5  H   UNL     1       5.277   5.969  -2.007  1.00  0.00     0.191 HD
HETATM    6  C   UNL     1       3.875   4.512  -1.307  1.00  0.00     0.175 A 
HETATM    7  C   UNL     1       4.006   3.628  -0.270  1.00  0.00     0.035 A 
HETATM    8  C   UNL     1       2.893   2.697   0.082  1.00  0.00     0.112 A 
HETATM    9  C   UNL     1       1.760   2.845  -0.952  1.00  0.00     0.081 A 
HETATM   10  C   UNL     1       0.678   1.924  -0.841  1.00  0.00     0.100 C 
HETATM   11  N   UNL     1      -0.194   1.160  -0.783  1.00  0.00    -0.191 NA
HETATM   12  C   UNL     1       1.769   3.778  -1.944  1.00  0.00     0.140 A 
HETATM   13  O   UNL     1       2.841   4.670  -2.121  1.00  0.00    -0.279 OA
ENDROOT
BRANCH   8  14
HETATM   14  C   UNL     1       2.430   2.927   1.509  1.00  0.00    -0.003 A 
HETATM   15  S   UNL     1       2.473   1.650   2.645  1.00  0.00    -0.098 SA
HETATM   16  C   UNL     1       1.842   2.634   3.893  1.00  0.00    -0.013 A 
HETATM   17  C   UNL     1       1.635   2.059   5.257  1.00  0.00     0.057 C 
HETATM   18  C   UNL     1       1.581   3.925   3.461  1.00  0.00    -0.020 A 
HETATM   19  C   UNL     1       1.934   4.083   2.080  1.00  0.00     0.026 A 
BRANCH  18  20
HETATM   20  C   UNL     1       1.017   5.033   4.309  1.00  0.00     0.215 C 
BRANCH  20  21
HETATM   21  O   UNL     1       2.064   5.674   5.039  1.00  0.00    -0.347 OA
BRANCH  21  22
HETATM   22  C   UNL     1       1.727   6.770   5.783  1.00  0.00     0.069 A 
HETATM   23  C   UNL     1       0.434   7.259   5.990  1.00  0.00     0.040 A 
HETATM   24  C   UNL     1       0.236   8.398   6.777  1.00  0.00     0.045 A 
HETATM   25  C   UNL     1       1.327   9.038   7.354  1.00  0.00     0.116 A 
HETATM   26  F   UNL     1       1.130  10.128   8.106  1.00  0.00    -0.206 F 
HETATM   27  C   UNL     1       2.616   8.561   7.161  1.00  0.00     0.045 A 
HETATM   28  C   UNL     1       2.813   7.425   6.375  1.00  0.00     0.040 A 
ENDBRANCH  21  22
ENDBRANCH  20  21
ENDBRANCH  18  20
ENDBRANCH   8  14
BRANCH  12  29
HETATM   29  N   UNL     1       0.777   3.956  -2.882  1.00  0.00    -0.282 NA
HETATM   30  H   UNL     1       0.187   3.147  -3.062  1.00  0.00     0.126 HD
HETATM   31  H   UNL     1       1.125   4.393  -3.732  1.00  0.00     0.126 HD
ENDBRANCH  12  29
TORSDOF 5
