REMARK  8 active torsions:
REMARK  status: ('A' for Active; 'I' for Inactive)
REMARK    1  A    between atoms: C_6  and  S_7 
REMARK    2  A    between atoms: S_7  and  C_8 
REMARK    3  A    between atoms: C_8  and  C_9 
REMARK       I    between atoms: C_9  and  N_10 
REMARK    4  A    between atoms: N_10  and  C_11 
REMARK    5  A    between atoms: C_24  and  C_25 
REMARK    6  A    between atoms: C_25  and  C_26 
REMARK       I    between atoms: C_26  and  N_27 
REMARK    7  A    between atoms: N_27  and  C_28 
REMARK    8  A    between atoms: C_28  and  C_29 
ROOT
HETATM    1  C   UNL     1      -0.796   1.950   0.870  1.00  0.00     0.001 A 
HETATM    2  C   UNL     1       0.491   2.277   0.444  1.00  0.00     0.018 A 
HETATM    3  C   UNL     1       1.282   1.293  -0.155  1.00  0.00     0.039 A 
HETATM    4  C   UNL     1       0.814  -0.016  -0.326  1.00  0.00     0.073 A 
HETATM    5  N   UNL     1       1.580  -1.018  -0.950  1.00  0.00    -0.223 NA
HETATM    6  C   UNL     1       2.746  -0.687  -1.408  1.00  0.00     0.178 A 
HETATM    7  N   UNL     1       3.292   0.581  -1.283  1.00  0.00    -0.241 N 
HETATM    8  C   UNL     1       2.618   1.593  -0.680  1.00  0.00     0.147 A 
HETATM    9  N   UNL     1       3.198   2.758  -0.621  1.00  0.00    -0.256 NA
HETATM   10  C   UNL     1       4.517   1.074  -1.667  1.00  0.00     0.257 C 
HETATM   11  O   UNL     1       5.480   0.483  -2.126  1.00  0.00    -0.270 OA
HETATM   12  C   UNL     1       4.468   2.562  -1.373  1.00  0.00     0.211 C 
HETATM   13  C   UNL     1      -0.476  -0.327   0.106  1.00  0.00     0.032 A 
HETATM   14  C   UNL     1      -1.280   0.651   0.698  1.00  0.00     0.002 A 
ENDROOT
BRANCH  12  15
HETATM   15  C   UNL     1       5.725   3.037  -0.666  1.00  0.00     0.140 C 
BRANCH  15  16
HETATM   16  C   UNL     1       5.569   3.677   0.693  1.00  0.00     0.220 C 
HETATM   17  N   UNL     1       4.911   4.884   0.675  1.00  0.00    -0.357 N 
HETATM   18  H   UNL     1       4.137   4.953   0.024  1.00  0.00     0.162 HD
HETATM   19  O   UNL     1       6.087   3.199   1.697  1.00  0.00    -0.274 OA
BRANCH  17  20
HETATM   20  C   UNL     1       4.858   5.702   1.865  1.00  0.00     0.161 C 
BRANCH  20  21
HETATM   21  C   UNL     1       4.458   7.134   1.587  1.00  0.00    -0.038 A 
HETATM   22  C   UNL     1       3.960   7.915   2.646  1.00  0.00     0.048 A 
HETATM   23  C   UNL     1       3.631   9.232   2.393  1.00  0.00     0.105 A 
HETATM   24  C   UNL     1       3.781   9.791   1.148  1.00  0.00     0.105 A 
HETATM   25  O   UNL     1       3.140  10.116   3.303  1.00  0.00    -0.323 OA
HETATM   26  O   UNL     1       3.397  11.094   1.112  1.00  0.00    -0.323 OA
HETATM   27  C   UNL     1       4.283   9.070   0.088  1.00  0.00     0.040 A 
HETATM   28  C   UNL     1       2.998  11.296   2.484  1.00  0.00     0.352 A 
HETATM   29  C   UNL     1       4.636   7.735   0.317  1.00  0.00     0.012 A 
ENDBRANCH  20  21
ENDBRANCH  17  20
ENDBRANCH  15  16
ENDBRANCH  12  15
BRANCH   6  30
HETATM   30  S   UNL     1       3.633  -1.921  -2.258  1.00  0.00    -0.082 SA
BRANCH  30  31
HETATM   31  C   UNL     1       4.576  -2.589  -0.857  1.00  0.00     0.185 C 
BRANCH  31  32
HETATM   32  C   UNL     1       4.299  -4.074  -0.689  1.00  0.00     0.232 C 
HETATM   33  N   UNL     1       2.959  -4.352  -0.462  1.00  0.00    -0.324 N 
HETATM   34  H   UNL     1       2.310  -3.627  -0.756  1.00  0.00     0.169 HD
HETATM   35  O   UNL     1       5.212  -4.890  -0.755  1.00  0.00    -0.272 OA
BRANCH  33  36
HETATM   36  C   UNL     1       2.402  -5.618  -0.175  1.00  0.00     0.073 A 
HETATM   37  C   UNL     1       3.095  -6.687   0.407  1.00  0.00     0.143 A 
HETATM   38  F   UNL     1       4.354  -6.557   0.847  1.00  0.00    -0.204 F 
HETATM   39  C   UNL     1       2.467  -7.912   0.637  1.00  0.00     0.044 A 
HETATM   40  C   UNL     1       1.126  -8.082   0.307  1.00  0.00     0.003 A 
HETATM   41  C   UNL     1       0.410  -7.018  -0.237  1.00  0.00     0.002 A 
HETATM   42  C   UNL     1       1.042  -5.791  -0.469  1.00  0.00     0.033 A 
ENDBRANCH  33  36
ENDBRANCH  31  32
ENDBRANCH  30  31
ENDBRANCH   6  30
TORSDOF 8
