REMARK  7 active torsions:
REMARK  status: ('A' for Active; 'I' for Inactive)
REMARK    1  A    between atoms: C_2  and  N_3 
REMARK    2  A    between atoms: C_2  and  C_17 
REMARK       I    between atoms: N_3  and  C_4 
REMARK    3  A    between atoms: C_4  and  C_5 
REMARK    4  A    between atoms: C_7  and  N_8 
REMARK    5  A    between atoms: C_17  and  O_18 
REMARK    6  A    between atoms: C_17  and  C_19 
REMARK    7  A    between atoms: C_22  and  O_23 
ROOT
HETATM    1  N   UNL     1       3.230   1.745  -2.555  1.00  0.00    -0.349 N 
HETATM    2  C   UNL     1       2.610   0.696  -3.200  1.00  0.00     0.270 C 
HETATM    3  O   UNL     1       1.540   0.214  -2.848  1.00  0.00    -0.266 OA
HETATM    4  H   UNL     1       4.182   1.948  -2.849  1.00  0.00     0.163 HD
ENDROOT
BRANCH   1   5
HETATM    5  C   UNL     1       2.719   2.313  -1.311  1.00  0.00     0.114 C 
HETATM    6  C   UNL     1       3.207   3.754  -1.160  1.00  0.00     0.035 C 
BRANCH   5   7
HETATM    7  C   UNL     1       3.012   1.419  -0.071  1.00  0.00     0.173 C 
BRANCH   7   8
HETATM    8  O   UNL     1       2.332   1.937   1.079  1.00  0.00    -0.389 OA
HETATM    9  H   UNL     1       2.575   1.356   1.822  1.00  0.00     0.210 HD
ENDBRANCH   7   8
BRANCH   7  10
HETATM   10  C   UNL     1       4.487   1.238   0.247  1.00  0.00    -0.028 A 
HETATM   11  C   UNL     1       5.200   0.169  -0.311  1.00  0.00     0.012 A 
HETATM   12  C   UNL     1       6.558  -0.004  -0.027  1.00  0.00     0.037 A 
HETATM   13  C   UNL     1       7.230   0.882   0.816  1.00  0.00     0.068 A 
HETATM   14  C   UNL     1       6.532   1.952   1.372  1.00  0.00     0.037 A 
HETATM   15  C   UNL     1       5.172   2.128   1.089  1.00  0.00     0.012 A 
BRANCH  13  16
HETATM   16  O   UNL     1       8.553   0.595   1.013  1.00  0.00    -0.356 OA
HETATM   17  C   UNL     1       9.273   1.454   1.888  1.00  0.00     0.210 C 
ENDBRANCH  13  16
ENDBRANCH   7  10
ENDBRANCH   5   7
ENDBRANCH   1   5
BRANCH   2  18
HETATM   18  C   UNL     1       3.363   0.157  -4.378  1.00  0.00     0.126 A 
HETATM   19  N   UNL     1       4.612   0.665  -4.577  1.00  0.00    -0.224 NA
HETATM   20  C   UNL     1       5.303   0.179  -5.645  1.00  0.00     0.151 A 
HETATM   21  C   UNL     1       4.782  -0.787  -6.508  1.00  0.00     0.052 A 
HETATM   22  C   UNL     1       3.503  -1.285  -6.270  1.00  0.00     0.006 A 
HETATM   23  C   UNL     1       2.777  -0.809  -5.184  1.00  0.00     0.037 A 
BRANCH  20  24
HETATM   24  N   UNL     1       6.618   0.680  -5.884  1.00  0.00    -0.227 N 
HETATM   25  N   UNL     1       7.384   0.258  -6.928  1.00  0.00    -0.179 NA
HETATM   26  C   UNL     1       8.521   0.945  -6.805  1.00  0.00     0.141 A 
HETATM   27  C   UNL     1       8.514   1.811  -5.700  1.00  0.00     0.040 A 
HETATM   28  C   UNL     1       7.281   1.623  -5.125  1.00  0.00     0.122 A 
ENDBRANCH  20  24
ENDBRANCH   2  18
TORSDOF 7
