REMARK  4 active torsions:
REMARK  status: ('A' for Active; 'I' for Inactive)
REMARK    1  A    between atoms: O_2  and  C_3 
REMARK    2  A    between atoms: C_5  and  C_6 
REMARK    3  A    between atoms: C_10  and  N_11 
REMARK    4  A    between atoms: C_14  and  C_15 
ROOT
HETATM    1  C   UNL     1       5.847  -2.579  -2.600  1.00  0.00     0.164 C 
HETATM    2  N   UNL     1       5.922  -3.855  -3.303  1.00  0.00    -0.074 N 
HETATM    3  C   UNL     1       6.195  -3.981  -4.639  1.00  0.00     0.736 A 
HETATM    4  N   UNL     1       6.300  -5.250  -4.936  1.00  0.00     0.131 NA
HETATM    5  C   UNL     1       6.144  -5.861  -3.727  1.00  0.00     0.753 A 
HETATM    6  N   UNL     1       5.938  -5.053  -2.691  1.00  0.00     0.037 NA
HETATM    7  N   UNL     1       6.382  -2.899  -5.425  1.00  0.00    -0.214 N 
HETATM    8  C   UNL     1       6.669  -1.606  -4.811  1.00  0.00     0.135 C 
HETATM    9  C   UNL     1       5.737  -1.409  -3.600  1.00  0.00     0.063 C 
HETATM   10  H   UNL     1       6.817  -3.066  -6.329  1.00  0.00     0.178 HD
ENDROOT
BRANCH   1  11
HETATM   11  C   UNL     1       4.699  -2.538  -1.602  1.00  0.00    -0.030 A 
HETATM   12  C   UNL     1       3.384  -2.863  -1.983  1.00  0.00     0.046 A 
HETATM   13  C   UNL     1       2.336  -2.843  -1.059  1.00  0.00     0.068 A 
HETATM   14  C   UNL     1       2.588  -2.455   0.256  1.00  0.00     0.037 A 
HETATM   15  C   UNL     1       3.885  -2.113   0.646  1.00  0.00     0.003 A 
HETATM   16  C   UNL     1       4.934  -2.157  -0.274  1.00  0.00     0.009 A 
BRANCH  13  17
HETATM   17  O   UNL     1       1.115  -3.197  -1.563  1.00  0.00    -0.356 OA
HETATM   18  C   UNL     1       0.161  -3.657  -0.613  1.00  0.00     0.210 C 
ENDBRANCH  13  17
ENDBRANCH   1  11
BRANCH   8  19
HETATM   19  C   UNL     1       8.145  -1.396  -4.484  1.00  0.00    -0.035 A 
HETATM   20  C   UNL     1       9.110  -2.415  -4.574  1.00  0.00     0.010 A 
HETATM   21  C   UNL     1      10.452  -2.170  -4.265  1.00  0.00     0.019 A 
HETATM   22  C   UNL     1      10.850  -0.899  -3.864  1.00  0.00     0.011 A 
HETATM   23 BR   UNL     1      12.663  -0.568  -3.447  1.00  0.00    -0.051 Br
HETATM   24  C   UNL     1       9.918   0.130  -3.773  1.00  0.00     0.019 A 
HETATM   25  C   UNL     1       8.577  -0.117  -4.084  1.00  0.00     0.010 A 
ENDBRANCH   8  19
BRANCH   5  26
HETATM   26  N   UNL     1       6.202  -7.188  -3.671  1.00  0.00    -0.229 N 
HETATM   27  H   UNL     1       6.043  -7.680  -4.540  1.00  0.00     0.174 HD
HETATM   28  H   UNL     1       5.781  -7.618  -2.859  1.00  0.00     0.174 HD
ENDBRANCH   5  26
TORSDOF 4
