REMARK  6 active torsions:
REMARK  status: ('A' for Active; 'I' for Inactive)
REMARK    1  A    between atoms: O_2  and  C_3 
REMARK    2  A    between atoms: C_7  and  C_8 
REMARK    3  A    between atoms: C_8  and  C_9 
REMARK       I    between atoms: C_9  and  N_10 
REMARK    4  A    between atoms: N_10  and  C_11 
REMARK    5  A    between atoms: C_12  and  C_13 
REMARK       I    between atoms: C_13  and  N_14 
REMARK    6  A    between atoms: N_14  and  C_15 
ROOT
HETATM    1  C   UNL     1       6.586  -4.560   2.627  1.00  0.00     0.226 C 
HETATM    2  N   UNL     1       5.918  -3.403   2.270  1.00  0.00    -0.326 N 
HETATM    3  O   UNL     1       6.767  -5.529   1.893  1.00  0.00    -0.273 OA
HETATM    4  H   UNL     1       5.626  -2.790   3.027  1.00  0.00     0.169 HD
ENDROOT
BRANCH   2   5
HETATM    5  C   UNL     1       5.557  -2.994   0.959  1.00  0.00     0.050 A 
HETATM    6  C   UNL     1       4.693  -1.896   0.777  1.00  0.00     0.058 A 
HETATM    7  C   UNL     1       4.435  -1.385  -0.504  1.00  0.00     0.019 A 
HETATM    8  C   UNL     1       5.006  -1.985  -1.622  1.00  0.00     0.001 A 
HETATM    9  C   UNL     1       5.832  -3.093  -1.460  1.00  0.00     0.002 A 
HETATM   10  C   UNL     1       6.109  -3.591  -0.181  1.00  0.00     0.030 A 
BRANCH   6  11
HETATM   11  C   UNL     1       3.970  -1.254   1.902  1.00  0.00     0.254 C 
HETATM   12  N   UNL     1       3.345  -2.133   2.764  1.00  0.00    -0.352 N 
HETATM   13  H   UNL     1       3.321  -3.118   2.519  1.00  0.00     0.163 HD
HETATM   14  O   UNL     1       3.937  -0.034   1.997  1.00  0.00    -0.268 OA
BRANCH  12  15
HETATM   15  C   UNL     1       2.482  -1.686   3.810  1.00  0.00     0.084 A 
HETATM   16  C   UNL     1       1.020  -1.460   3.542  1.00  0.00     0.027 A 
HETATM   17  C   UNL     1       1.454  -2.611   4.401  1.00  0.00     0.027 A 
ENDBRANCH  12  15
ENDBRANCH   6  11
ENDBRANCH   2   5
BRANCH   1  18
HETATM   18  C   UNL     1       7.192  -4.533   4.021  1.00  0.00     0.144 C 
BRANCH  18  19
HETATM   19  C   UNL     1       6.258  -4.109   5.102  1.00  0.00    -0.014 A 
HETATM   20  C   UNL     1       5.106  -4.803   5.585  1.00  0.00     0.006 A 
HETATM   21  C   UNL     1       4.637  -4.062   6.663  1.00  0.00     0.088 A 
HETATM   22  C   UNL     1       4.426  -5.985   5.246  1.00  0.00     0.017 A 
HETATM   23  C   UNL     1       3.555  -4.423   7.463  1.00  0.00     0.074 A 
HETATM   24  O   UNL     1       5.396  -2.945   6.832  1.00  0.00    -0.321 OA
HETATM   25  C   UNL     1       2.919  -5.624   7.137  1.00  0.00     0.070 A 
HETATM   26  C   UNL     1       3.328  -6.373   6.028  1.00  0.00     0.038 A 
HETATM   27  C   UNL     1       6.374  -2.983   5.895  1.00  0.00     0.151 A 
BRANCH  25  28
HETATM   28  O   UNL     1       1.856  -6.146   7.829  1.00  0.00    -0.356 OA
HETATM   29  C   UNL     1       1.838  -5.846   9.223  1.00  0.00     0.210 C 
ENDBRANCH  25  28
ENDBRANCH  18  19
ENDBRANCH   1  18
TORSDOF 6
