REMARK  4 active torsions:
REMARK  status: ('A' for Active; 'I' for Inactive)
REMARK    1  A    between atoms: C_6  and  N_7 
REMARK       I    between atoms: N_7  and  C_8 
REMARK    2  A    between atoms: C_8  and  C_9 
REMARK    3  A    between atoms: C_9  and  S_10 
REMARK    4  A    between atoms: S_10  and  C_11 
ROOT
HETATM    1  C   UNL     1      -2.725   0.620   0.211  1.00  0.00     0.001 A 
HETATM    2  C   UNL     1      -1.510   1.299   0.206  1.00  0.00     0.018 A 
HETATM    3  C   UNL     1      -0.303   0.583   0.125  1.00  0.00     0.049 A 
HETATM    4  C   UNL     1      -0.302  -0.809   0.060  1.00  0.00     0.024 A 
HETATM    5  S   UNL     1       1.153  -1.821  -0.008  1.00  0.00    -0.053 SA
HETATM    6  C   UNL     1       2.399  -0.629  -0.116  1.00  0.00     0.154 A 
HETATM    7  N   UNL     1       2.176   0.659  -0.053  1.00  0.00    -0.303 N 
HETATM    8  H   UNL     1       2.995   1.265  -0.103  1.00  0.00     0.171 HD
HETATM    9  C   UNL     1       0.953   1.338   0.095  1.00  0.00     0.259 A 
HETATM   10  O   UNL     1       1.022   2.550   0.173  1.00  0.00    -0.267 OA
HETATM   11  C   UNL     1      -1.537  -1.477   0.063  1.00  0.00     0.020 A 
HETATM   12  C   UNL     1      -2.739  -0.769   0.136  1.00  0.00     0.001 A 
ENDROOT
BRANCH   6  13
HETATM   13  N   UNL     1       3.606  -1.127  -0.265  1.00  0.00    -0.306 N 
HETATM   14  C   UNL     1       4.827  -0.407  -0.379  1.00  0.00     0.233 C 
HETATM   15  O   UNL     1       4.746   0.813  -0.316  1.00  0.00    -0.272 OA
HETATM   16  H   UNL     1       3.659  -2.140  -0.233  1.00  0.00     0.171 HD
BRANCH  14  17
HETATM   17  C   UNL     1       6.120  -1.172  -0.565  1.00  0.00     0.184 C 
BRANCH  17  18
HETATM   18  S   UNL     1       5.870  -2.924  -1.007  1.00  0.00    -0.101 SA
BRANCH  18  19
HETATM   19  C   UNL     1       5.569  -3.602   0.611  1.00  0.00     0.093 A 
HETATM   20  N   UNL     1       4.867  -2.813   1.460  1.00  0.00    -0.254 NA
HETATM   21  C   UNL     1       4.630  -3.316   2.696  1.00  0.00     0.118 A 
HETATM   22  C   UNL     1       5.020  -4.581   3.103  1.00  0.00     0.019 A 
HETATM   23  C   UNL     1       5.700  -5.382   2.194  1.00  0.00     0.004 A 
HETATM   24  C   UNL     1       5.981  -4.889   0.923  1.00  0.00     0.039 A 
ENDBRANCH  18  19
ENDBRANCH  17  18
ENDBRANCH  14  17
ENDBRANCH   6  13
TORSDOF 4
