REMARK  7 active torsions:
REMARK  status: ('A' for Active; 'I' for Inactive)
REMARK    1  A    between atoms: O_2  and  C_3 
REMARK    2  A    between atoms: C_6  and  C_7 
REMARK    3  A    between atoms: C_7  and  N_8 
REMARK    4  A    between atoms: C_7  and  C_23 
REMARK       I    between atoms: N_8  and  C_9 
REMARK    5  A    between atoms: C_9  and  C_10 
REMARK    6  A    between atoms: C_10  and  S_11 
REMARK    7  A    between atoms: S_11  and  C_12 
ROOT
HETATM    1  N   UNL     1       5.825  -2.409  -4.704  1.00  0.00    -0.348 N 
HETATM    2  C   UNL     1       5.963  -1.148  -5.245  1.00  0.00     0.228 C 
HETATM    3  O   UNL     1       5.065  -0.312  -5.254  1.00  0.00    -0.273 OA
HETATM    4  H   UNL     1       6.549  -3.094  -4.872  1.00  0.00     0.163 HD
ENDROOT
BRANCH   1   5
HETATM    5  C   UNL     1       4.555  -2.887  -4.183  1.00  0.00     0.151 C 
BRANCH   5   6
HETATM    6  C   UNL     1       4.322  -2.515  -2.722  1.00  0.00    -0.031 A 
HETATM    7  C   UNL     1       3.004  -2.383  -2.255  1.00  0.00     0.012 A 
HETATM    8  C   UNL     1       2.747  -2.106  -0.910  1.00  0.00     0.037 A 
HETATM    9  C   UNL     1       3.795  -1.972   0.001  1.00  0.00     0.068 A 
HETATM   10  C   UNL     1       5.109  -2.083  -0.452  1.00  0.00     0.037 A 
HETATM   11  C   UNL     1       5.370  -2.353  -1.802  1.00  0.00     0.012 A 
BRANCH   9  12
HETATM   12  O   UNL     1       3.407  -1.728   1.289  1.00  0.00    -0.356 OA
HETATM   13  C   UNL     1       4.408  -1.868   2.290  1.00  0.00     0.210 C 
ENDBRANCH   9  12
ENDBRANCH   5   6
BRANCH   5  14
HETATM   14  C   UNL     1       4.440  -4.389  -4.428  1.00  0.00    -0.031 A 
HETATM   15  C   UNL     1       3.513  -4.876  -5.363  1.00  0.00     0.009 A 
HETATM   16  C   UNL     1       3.399  -6.247  -5.605  1.00  0.00     0.001 A 
HETATM   17  C   UNL     1       4.213  -7.148  -4.922  1.00  0.00     0.000 A 
HETATM   18  C   UNL     1       5.144  -6.681  -3.998  1.00  0.00     0.001 A 
HETATM   19  C   UNL     1       5.259  -5.312  -3.753  1.00  0.00     0.009 A 
ENDBRANCH   5  14
ENDBRANCH   1   5
BRANCH   2  20
HETATM   20  C   UNL     1       7.324  -0.890  -5.863  1.00  0.00     0.185 C 
BRANCH  20  21
HETATM   21  S   UNL     1       7.340  -1.601  -7.537  1.00  0.00    -0.081 SA
BRANCH  21  22
HETATM   22  C   UNL     1       8.999  -1.371  -7.959  1.00  0.00     0.192 A 
HETATM   23  N   UNL     1       9.535  -1.711  -9.174  1.00  0.00    -0.311 N 
HETATM   24  C   UNL     1      10.885  -1.469  -9.054  1.00  0.00     0.130 A 
HETATM   25  C   UNL     1       8.824  -2.268 -10.307  1.00  0.00     0.133 C 
HETATM   26  C   UNL     1      11.926  -1.749 -10.084  1.00  0.00     0.081 C 
HETATM   27  N   UNL     1      11.121  -0.959  -7.860  1.00  0.00    -0.134 NA
HETATM   28  C   UNL     1      11.691  -3.060 -10.825  1.00  0.00     0.008 C 
HETATM   29  C   UNL     1      10.664  -2.950 -11.952  1.00  0.00     0.002 C 
HETATM   30  C   UNL     1       9.468  -2.041 -11.671  1.00  0.00     0.020 C 
HETATM   31  N   UNL     1       9.937  -0.902  -7.173  1.00  0.00    -0.123 NA
ENDBRANCH  21  22
ENDBRANCH  20  21
ENDBRANCH   2  20
TORSDOF 7
