REMARK  5 active torsions:
REMARK  status: ('A' for Active; 'I' for Inactive)
REMARK    1  A    between atoms: C_8  and  N_9 
REMARK       I    between atoms: N_9  and  C_10 
REMARK       I    between atoms: C_10  and  N_11 
REMARK    2  A    between atoms: N_11  and  C_12 
REMARK    3  A    between atoms: C_13  and  O_14 
REMARK    4  A    between atoms: O_14  and  C_15 
REMARK    5  A    between atoms: C_15  and  C_16 
ROOT
HETATM    1  N   UNL     1       1.350  -3.807   0.340  1.00  0.00    -0.305 N 
HETATM    2  C   UNL     1       1.507  -2.437   0.244  1.00  0.00     0.325 C 
HETATM    3  N   UNL     1       0.617  -1.919  -0.680  1.00  0.00    -0.306 N 
HETATM    4  O   UNL     1       2.308  -1.770   0.884  1.00  0.00    -0.247 OA
HETATM    5  H   UNL     1       0.451  -4.171   0.063  1.00  0.00     0.171 HD
HETATM    6  H   UNL     1       0.220  -2.574  -1.342  1.00  0.00     0.171 HD
ENDROOT
BRANCH   3   7
HETATM    7  C   UNL     1       0.365  -0.559  -0.971  1.00  0.00     0.071 A 
HETATM    8  C   UNL     1      -0.384  -0.278  -2.129  1.00  0.00     0.096 A 
HETATM    9  C   UNL     1      -0.721   1.035  -2.465  1.00  0.00     0.041 A 
HETATM   10  C   UNL     1      -0.280   2.084  -1.659  1.00  0.00     0.026 A 
HETATM   11  C   UNL     1       0.479   1.812  -0.521  1.00  0.00     0.036 A 
HETATM   12 CL   UNL     1       1.009   3.116   0.471  1.00  0.00    -0.084 Cl
HETATM   13  C   UNL     1       0.800   0.499  -0.170  1.00  0.00     0.056 A 
BRANCH   8  14
HETATM   14  O   UNL     1      -0.814  -1.343  -2.884  1.00  0.00    -0.340 OA
BRANCH  14  15
HETATM   15  C   UNL     1      -0.376  -1.251  -4.254  1.00  0.00     0.293 C 
BRANCH  15  16
HETATM   16  C   UNL     1      -0.412  -2.625  -4.902  1.00  0.00     0.408 C 
HETATM   17  F   UNL     1       0.342  -3.512  -4.213  1.00  0.00    -0.169 F 
HETATM   18  F   UNL     1      -1.670  -3.114  -4.965  1.00  0.00    -0.169 F 
HETATM   19  F   UNL     1       0.069  -2.572  -6.164  1.00  0.00    -0.169 F 
ENDBRANCH  15  16
ENDBRANCH  14  15
ENDBRANCH   8  14
ENDBRANCH   3   7
BRANCH   1  20
HETATM   20  C   UNL     1       2.165  -4.682   1.039  1.00  0.00     0.086 A 
HETATM   21  C   UNL     1       1.768  -5.971   1.341  1.00  0.00     0.052 A 
HETATM   22  C   UNL     1       0.519  -6.723   1.077  1.00  0.00     0.072 C 
HETATM   23  N   UNL     1       2.811  -6.533   2.020  1.00  0.00    -0.280 N 
HETATM   24  H   UNL     1       2.875  -7.466   2.411  1.00  0.00     0.189 HD
HETATM   25  N   UNL     1       3.865  -5.724   2.158  1.00  0.00    -0.177 NA
HETATM   26  C   UNL     1       3.490  -4.584   1.557  1.00  0.00     0.079 A 
HETATM   27  C   UNL     1       4.474  -3.474   1.482  1.00  0.00     0.075 C 
ENDBRANCH   1  20
TORSDOF 5
