REMARK  8 active torsions:
REMARK  status: ('A' for Active; 'I' for Inactive)
REMARK    1  A    between atoms: C_2  and  C_3 
REMARK    2  A    between atoms: C_3  and  O_4 
REMARK    3  A    between atoms: O_4  and  C_5 
REMARK    4  A    between atoms: C_8  and  C_9 
REMARK    5  A    between atoms: C_13  and  C_14 
REMARK       I    between atoms: C_14  and  N_15 
REMARK    6  A    between atoms: N_15  and  N_16 
REMARK    7  A    between atoms: C_17  and  C_18 
REMARK    8  A    between atoms: C_19  and  O_20 
ROOT
HETATM    1  C   UNL     1       7.259   6.318  -0.657  1.00  0.00     0.089 A 
HETATM    2  N   UNL     1       6.712   7.537  -0.541  1.00  0.00    -0.174 NA
HETATM    3  N   UNL     1       7.682   8.382  -0.923  1.00  0.00    -0.272 N 
HETATM    4  H   UNL     1       7.499   9.381  -0.913  1.00  0.00     0.189 HD
HETATM    5  C   UNL     1       8.834   7.766  -1.328  1.00  0.00     0.121 A 
HETATM    6  C   UNL     1       8.594   6.420  -1.138  1.00  0.00     0.071 A 
ENDROOT
BRANCH   5   7
HETATM    7  C   UNL     1       9.953   8.521  -1.834  1.00  0.00     0.289 C 
HETATM    8  N   UNL     1      11.007   7.749  -2.300  1.00  0.00    -0.242 N 
HETATM    9  H   UNL     1      10.948   6.740  -2.281  1.00  0.00     0.192 HD
HETATM   10  O   UNL     1       9.938   9.749  -1.860  1.00  0.00    -0.264 OA
BRANCH   8  11
HETATM   11  N   UNL     1      12.089   8.344  -2.879  1.00  0.00    -0.183 NA
HETATM   12  C   UNL     1      13.000   7.537  -3.323  1.00  0.00     0.153 C 
BRANCH  12  13
HETATM   13  C   UNL     1      14.211   8.047  -3.993  1.00  0.00     0.016 A 
HETATM   14  C   UNL     1      14.430   9.413  -4.202  1.00  0.00     0.077 A 
HETATM   15  C   UNL     1      15.584   9.846  -4.850  1.00  0.00     0.037 A 
HETATM   16  C   UNL     1      16.525   8.915  -5.293  1.00  0.00     0.003 A 
HETATM   17  C   UNL     1      16.312   7.552  -5.088  1.00  0.00     0.001 A 
HETATM   18  C   UNL     1      15.156   7.114  -4.438  1.00  0.00     0.016 A 
BRANCH  14  19
HETATM   19  O   UNL     1      13.556  10.387  -3.801  1.00  0.00    -0.360 OA
HETATM   20  H   UNL     1      12.791   9.955  -3.357  1.00  0.00     0.217 HD
ENDBRANCH  14  19
ENDBRANCH  12  13
ENDBRANCH   8  11
ENDBRANCH   5   7
BRANCH   1  21
HETATM   21  C   UNL     1       6.509   5.097  -0.358  1.00  0.00    -0.005 A 
HETATM   22  C   UNL     1       5.115   5.069  -0.496  1.00  0.00     0.016 A 
HETATM   23  C   UNL     1       4.395   3.888  -0.280  1.00  0.00     0.037 A 
HETATM   24  C   UNL     1       5.064   2.719   0.079  1.00  0.00     0.068 A 
HETATM   25  C   UNL     1       6.446   2.751   0.266  1.00  0.00     0.037 A 
HETATM   26  C   UNL     1       7.168   3.927   0.042  1.00  0.00     0.016 A 
BRANCH  24  27
HETATM   27  O   UNL     1       4.475   1.505   0.296  1.00  0.00    -0.351 OA
BRANCH  27  28
HETATM   28  C   UNL     1       3.240   1.284  -0.388  1.00  0.00     0.175 C 
BRANCH  28  29
HETATM   29  C   UNL     1       2.943  -0.212  -0.340  1.00  0.00     0.022 C 
HETATM   30  C   UNL     1       1.676  -0.563  -1.100  1.00  0.00     0.007 C 
ENDBRANCH  28  29
ENDBRANCH  27  28
ENDBRANCH  24  27
ENDBRANCH   1  21
TORSDOF 8
