REMARK  5 active torsions:
REMARK  status: ('A' for Active; 'I' for Inactive)
REMARK    1  A    between atoms: C_3  and  N_4 
REMARK       I    between atoms: N_4  and  C_5 
REMARK    2  A    between atoms: C_5  and  C_6 
REMARK    3  A    between atoms: C_6  and  N_7 
REMARK    4  A    between atoms: C_6  and  C_16 
REMARK       I    between atoms: N_7  and  C_8 
REMARK    5  A    between atoms: C_8  and  C_9 
ROOT
HETATM    1  C   UNL     1       0.005  -0.689  -0.334  1.00  0.00     0.210 C 
ENDROOT
BRANCH   1   2
HETATM    2  C   UNL     1      -0.374  -1.146  -1.781  1.00  0.00     0.249 C 
HETATM    3  N   UNL     1      -1.311  -0.339  -2.405  1.00  0.00    -0.324 N 
HETATM    4  H   UNL     1      -1.521   0.514  -1.887  1.00  0.00     0.169 HD
HETATM    5  O   UNL     1       0.275  -2.040  -2.325  1.00  0.00    -0.270 OA
BRANCH   3   6
HETATM    6  C   UNL     1      -1.679  -0.329  -3.773  1.00  0.00     0.046 A 
HETATM    7  C   UNL     1      -1.812  -1.485  -4.572  1.00  0.00    -0.035 A 
HETATM    8  C   UNL     1      -1.690  -2.896  -4.067  1.00  0.00     0.050 C 
HETATM    9  C   UNL     1      -2.127  -1.343  -5.939  1.00  0.00     0.009 A 
HETATM   10  C   UNL     1      -2.373  -0.095  -6.500  1.00  0.00     0.001 A 
HETATM   11  C   UNL     1      -2.309   1.038  -5.704  1.00  0.00     0.009 A 
HETATM   12  C   UNL     1      -1.962   0.941  -4.346  1.00  0.00    -0.035 A 
HETATM   13  C   UNL     1      -1.887   2.224  -3.555  1.00  0.00     0.050 C 
ENDBRANCH   3   6
ENDBRANCH   1   2
BRANCH   1  14
HETATM   14  N   UNL     1      -1.143  -0.541   0.557  1.00  0.00    -0.338 N 
HETATM   15  C   UNL     1      -2.112   0.428   0.490  1.00  0.00     0.273 C 
HETATM   16  O   UNL     1      -2.187   1.249  -0.419  1.00  0.00    -0.266 OA
HETATM   17  H   UNL     1      -1.181  -1.115   1.395  1.00  0.00     0.164 HD
BRANCH  15  18
HETATM   18  C   UNL     1      -3.047   0.395   1.624  1.00  0.00     0.145 A 
HETATM   19  N   UNL     1      -2.891  -0.468   2.651  1.00  0.00    -0.170 NA
HETATM   20  N   UNL     1      -3.916  -0.184   3.475  1.00  0.00    -0.289 N 
HETATM   21  H   UNL     1      -4.006  -0.716   4.335  1.00  0.00     0.188 HD
HETATM   22  C   UNL     1      -4.718   0.819   3.022  1.00  0.00     0.112 A 
HETATM   23  C   UNL     1      -4.183   1.220   1.822  1.00  0.00     0.058 A 
ENDBRANCH  15  18
ENDBRANCH   1  14
BRANCH   1  24
HETATM   24  C   UNL     1       0.998   0.477  -0.328  1.00  0.00    -0.026 A 
HETATM   25  C   UNL     1       0.967   1.498   0.636  1.00  0.00     0.010 A 
HETATM   26  C   UNL     1       1.894   2.546   0.609  1.00  0.00     0.001 A 
HETATM   27  C   UNL     1       2.888   2.578  -0.364  1.00  0.00     0.000 A 
HETATM   28  C   UNL     1       2.965   1.557  -1.304  1.00  0.00     0.001 A 
HETATM   29  C   UNL     1       2.036   0.514  -1.280  1.00  0.00     0.010 A 
ENDBRANCH   1  24
TORSDOF 5
