REMARK  7 active torsions:
REMARK  status: ('A' for Active; 'I' for Inactive)
REMARK    1  A    between atoms: C_3  and  C_4 
REMARK       I    between atoms: C_4  and  N_5 
REMARK    2  A    between atoms: N_5  and  C_6 
REMARK    3  A    between atoms: C_6  and  C_7 
REMARK    4  A    between atoms: C_13  and  N_14 
REMARK    5  A    between atoms: N_14  and  C_15 
REMARK    6  A    between atoms: C_15  and  N_16 
REMARK       I    between atoms: N_16  and  C_17 
REMARK    7  A    between atoms: C_17  and  C_18 
ROOT
HETATM    1  C   UNL     1      -1.048   0.279  -1.922  1.00  0.00     0.001 A 
HETATM    2  C   UNL     1      -0.408   1.309  -1.237  1.00  0.00     0.019 A 
HETATM    3  C   UNL     1       0.923   1.166  -0.801  1.00  0.00     0.058 A 
HETATM    4  C   UNL     1       1.619  -0.035  -1.045  1.00  0.00     0.050 A 
HETATM    5  C   UNL     1       0.952  -1.062  -1.731  1.00  0.00     0.030 A 
HETATM    6  C   UNL     1      -0.366  -0.904  -2.171  1.00  0.00     0.002 A 
ENDROOT
BRANCH   4   7
HETATM    7  N   UNL     1       2.906  -0.257  -0.489  1.00  0.00    -0.332 N 
HETATM    8  H   UNL     1       3.122   0.289   0.350  1.00  0.00     0.168 HD
BRANCH   7   9
HETATM    9  C   UNL     1       3.903  -1.108  -0.895  1.00  0.00     0.179 C 
HETATM   10  S   UNL     1       4.195  -1.682  -2.440  1.00  0.00    -0.040 SA
BRANCH   9  11
HETATM   11  N   UNL     1       4.778  -1.523   0.089  1.00  0.00    -0.299 N 
HETATM   12  C   UNL     1       4.705  -1.291   1.454  1.00  0.00     0.257 C 
HETATM   13  O   UNL     1       3.987  -0.444   1.973  1.00  0.00    -0.267 OA
HETATM   14  H   UNL     1       5.415  -2.231  -0.250  1.00  0.00     0.171 HD
BRANCH  12  15
HETATM   15  C   UNL     1       5.560  -2.159   2.306  1.00  0.00     0.035 A 
HETATM   16  C   UNL     1       6.822  -2.599   1.891  1.00  0.00     0.041 A 
HETATM   17  C   UNL     1       7.557  -3.451   2.717  1.00  0.00     0.036 A 
HETATM   18 CL   UNL     1       9.102  -4.005   2.200  1.00  0.00    -0.084 Cl
HETATM   19  C   UNL     1       7.054  -3.862   3.949  1.00  0.00     0.047 A 
HETATM   20  C   UNL     1       5.807  -3.402   4.364  1.00  0.00     0.036 A 
HETATM   21 CL   UNL     1       5.179  -3.905   5.884  1.00  0.00    -0.084 Cl
HETATM   22  C   UNL     1       5.059  -2.549   3.555  1.00  0.00     0.041 A 
ENDBRANCH  12  15
ENDBRANCH   9  11
ENDBRANCH   7   9
ENDBRANCH   4   7
BRANCH   3  23
HETATM   23  C   UNL     1       1.522   2.372  -0.160  1.00  0.00     0.254 C 
HETATM   24  N   UNL     1       2.866   2.581  -0.370  1.00  0.00    -0.351 N 
HETATM   25  H   UNL     1       3.354   2.013  -1.055  1.00  0.00     0.163 HD
HETATM   26  O   UNL     1       0.812   3.165   0.450  1.00  0.00    -0.268 OA
BRANCH  24  27
HETATM   27  C   UNL     1       3.449   3.867  -0.067  1.00  0.00     0.187 C 
BRANCH  27  28
HETATM   28  C   UNL     1       4.929   3.771  -0.047  1.00  0.00     0.070 A 
HETATM   29  O   UNL     1       5.524   2.898  -0.917  1.00  0.00    -0.325 OA
HETATM   30  C   UNL     1       6.864   3.004  -0.728  1.00  0.00     0.142 A 
HETATM   31  C   UNL     1       7.144   3.936   0.244  1.00  0.00     0.027 A 
HETATM   32  C   UNL     1       5.895   4.434   0.683  1.00  0.00     0.036 A 
ENDBRANCH  27  28
ENDBRANCH  24  27
ENDBRANCH   3  23
TORSDOF 7
