REMARK  7 active torsions:
REMARK  status: ('A' for Active; 'I' for Inactive)
REMARK    1  A    between atoms: C_2  and  N_3 
REMARK    2  A    between atoms: N_3  and  N_4 
REMARK       I    between atoms: N_4  and  C_5 
REMARK    3  A    between atoms: C_5  and  C_6 
REMARK       I    between atoms: C_6  and  N_7 
REMARK    4  A    between atoms: N_7  and  C_8 
REMARK    5  A    between atoms: C_9  and  O_10 
REMARK    6  A    between atoms: C_18  and  C_19 
REMARK       I    between atoms: C_19  and  N_20 
REMARK    7  A    between atoms: N_20  and  C_21 
ROOT
HETATM    1  N   UNL     1       3.622  -0.720   0.807  1.00  0.00    -0.302 N 
HETATM    2  H   UNL     1       3.264  -1.435   1.452  1.00  0.00     0.186 HD
ENDROOT
BRANCH   1   3
HETATM    3  C   UNL     1       2.658   0.015   0.134  1.00  0.00     0.027 C 
HETATM    4  C   UNL     1       1.234  -0.307   0.535  1.00  0.00     0.070 C 
HETATM    5  C   UNL     1       2.956   0.924  -0.817  1.00  0.00     0.100 C 
BRANCH   5   6
HETATM    6  C   UNL     1       1.942   1.622  -1.662  1.00  0.00     0.247 C 
HETATM    7  N   UNL     1       2.391   2.863  -2.071  1.00  0.00    -0.323 N 
HETATM    8  H   UNL     1       3.296   3.145  -1.727  1.00  0.00     0.169 HD
HETATM    9  O   UNL     1       0.876   1.089  -1.935  1.00  0.00    -0.268 OA
BRANCH   7  10
HETATM   10  C   UNL     1       1.709   3.810  -2.879  1.00  0.00     0.041 A 
HETATM   11  C   UNL     1       2.342   5.044  -3.182  1.00  0.00    -0.025 A 
HETATM   12  C   UNL     1       1.636   6.025  -3.921  1.00  0.00    -0.050 A 
HETATM   13  C   UNL     1       3.742   5.351  -2.683  1.00  0.00     0.041 C 
HETATM   14  C   UNL     1       2.239   7.368  -4.263  1.00  0.00     0.039 C 
HETATM   15  C   UNL     1       0.350   5.746  -4.403  1.00  0.00     0.008 A 
HETATM   16  C   UNL     1       3.427   7.734  -3.384  1.00  0.00     0.005 C 
HETATM   17  C   UNL     1       4.400   6.568  -3.330  1.00  0.00     0.005 C 
HETATM   18  C   UNL     1      -0.251   4.524  -4.134  1.00  0.00     0.003 A 
HETATM   19  C   UNL     1       0.422   3.569  -3.374  1.00  0.00     0.030 A 
ENDBRANCH   7  10
ENDBRANCH   5   6
ENDBRANCH   1   3
BRANCH   1  20
HETATM   20  N   UNL     1       4.874  -0.214   1.182  1.00  0.00    -0.262 N 
HETATM   21  C   UNL     1       5.604  -1.010   2.058  1.00  0.00     0.328 C 
HETATM   22  O   UNL     1       5.334  -2.167   2.352  1.00  0.00    -0.261 OA
HETATM   23  H   UNL     1       4.941   0.792   1.324  1.00  0.00     0.190 HD
BRANCH  21  24
HETATM   24  C   UNL     1       6.744  -0.252   2.741  1.00  0.00     0.315 C 
HETATM   25  N   UNL     1       7.932  -0.887   3.003  1.00  0.00    -0.316 N 
HETATM   26  H   UNL     1       8.472  -0.467   3.754  1.00  0.00     0.169 HD
HETATM   27  O   UNL     1       6.520   0.901   3.107  1.00  0.00    -0.262 OA
BRANCH  25  28
HETATM   28  C   UNL     1       8.512  -2.040   2.438  1.00  0.00     0.068 A 
HETATM   29  C   UNL     1       9.555  -2.654   3.161  1.00  0.00     0.095 A 
HETATM   30  C   UNL     1      10.230  -3.755   2.626  1.00  0.00     0.039 A 
HETATM   31  C   UNL     1       9.859  -4.260   1.380  1.00  0.00     0.003 A 
HETATM   32  C   UNL     1       8.826  -3.660   0.664  1.00  0.00     0.002 A 
HETATM   33  C   UNL     1       8.157  -2.549   1.187  1.00  0.00     0.032 A 
BRANCH  29  34
HETATM   34  O   UNL     1       9.872  -2.093   4.377  1.00  0.00    -0.354 OA
HETATM   35  C   UNL     1      10.244  -3.036   5.380  1.00  0.00     0.210 C 
ENDBRANCH  29  34
ENDBRANCH  25  28
ENDBRANCH  21  24
ENDBRANCH   1  20
TORSDOF 7
