REMARK  8 active torsions:
REMARK  status: ('A' for Active; 'I' for Inactive)
REMARK    1  A    between atoms: C_2  and  O_3 
REMARK    2  A    between atoms: O_3  and  C_4 
REMARK    3  A    between atoms: C_5  and  N_6 
REMARK       I    between atoms: N_6  and  C_7 
REMARK    4  A    between atoms: C_7  and  C_8 
REMARK    5  A    between atoms: C_8  and  N_9 
REMARK    6  A    between atoms: C_12  and  C_13 
REMARK       I    between atoms: C_13  and  N_14 
REMARK    7  A    between atoms: N_14  and  C_15 
REMARK    8  A    between atoms: C_23  and  N_24 
ROOT
HETATM    1  N   UNL     1       6.226   3.585  -1.949  1.00  0.00    -0.248 N 
HETATM    2  N   UNL     1       6.968   2.894  -1.060  1.00  0.00     0.007 NA
HETATM    3  N   UNL     1       6.971   1.626  -1.438  1.00  0.00    -0.150 NA
HETATM    4  C   UNL     1       6.283   1.528  -2.626  1.00  0.00     0.187 A 
HETATM    5  C   UNL     1       5.826   2.783  -2.993  1.00  0.00     0.151 A 
ENDROOT
BRANCH   1   6
HETATM    6  C   UNL     1       5.961   4.987  -1.726  1.00  0.00     0.251 C 
BRANCH   6   7
HETATM    7  C   UNL     1       4.904   5.174  -0.660  1.00  0.00     0.241 C 
HETATM    8  N   UNL     1       3.687   5.640  -1.150  1.00  0.00    -0.323 N 
HETATM    9  H   UNL     1       3.724   6.216  -1.980  1.00  0.00     0.169 HD
HETATM   10  O   UNL     1       5.155   4.984   0.526  1.00  0.00    -0.271 OA
BRANCH   8  11
HETATM   11  C   UNL     1       2.527   5.778  -0.350  1.00  0.00     0.068 A 
HETATM   12  C   UNL     1       2.130   4.858   0.634  1.00  0.00     0.095 A 
HETATM   13  C   UNL     1       1.032   5.130   1.455  1.00  0.00     0.039 A 
HETATM   14  C   UNL     1       0.274   6.281   1.254  1.00  0.00     0.003 A 
HETATM   15  C   UNL     1       0.609   7.158   0.225  1.00  0.00     0.002 A 
HETATM   16  C   UNL     1       1.724   6.904  -0.580  1.00  0.00     0.032 A 
BRANCH  12  17
HETATM   17  O   UNL     1       2.724   3.639   0.836  1.00  0.00    -0.349 OA
BRANCH  17  18
HETATM   18  C   UNL     1       2.516   2.758  -0.274  1.00  0.00     0.171 C 
HETATM   19  C   UNL     1       2.414   1.341   0.258  1.00  0.00     0.034 C 
ENDBRANCH  17  18
ENDBRANCH  12  17
ENDBRANCH   8  11
ENDBRANCH   6   7
ENDBRANCH   1   6
BRANCH   5  20
HETATM   20  N   UNL     1       5.122   3.216  -4.071  1.00  0.00    -0.382 N 
HETATM   21  H   UNL     1       4.988   2.525  -4.821  1.00  0.00     0.157 HD
HETATM   22  H   UNL     1       5.291   4.135  -4.471  1.00  0.00     0.157 HD
ENDBRANCH   5  20
BRANCH   4  23
HETATM   23  C   UNL     1       6.151   0.262  -3.343  1.00  0.00     0.280 C 
HETATM   24  N   UNL     1       6.550  -0.801  -2.555  1.00  0.00    -0.320 N 
HETATM   25  H   UNL     1       7.015  -0.508  -1.699  1.00  0.00     0.169 HD
HETATM   26  O   UNL     1       5.802   0.231  -4.515  1.00  0.00    -0.265 OA
BRANCH  24  27
HETATM   27  C   UNL     1       6.615  -2.179  -2.856  1.00  0.00     0.057 A 
HETATM   28  C   UNL     1       5.845  -2.896  -3.788  1.00  0.00     0.060 A 
HETATM   29 CL   UNL     1       4.455  -2.269  -4.600  1.00  0.00    -0.082 Cl
HETATM   30  C   UNL     1       6.084  -4.266  -3.990  1.00  0.00     0.026 A 
HETATM   31  C   UNL     1       7.053  -4.942  -3.251  1.00  0.00     0.002 A 
HETATM   32  C   UNL     1       7.779  -4.258  -2.286  1.00  0.00     0.002 A 
HETATM   33  C   UNL     1       7.556  -2.893  -2.088  1.00  0.00     0.031 A 
ENDBRANCH  24  27
ENDBRANCH   4  23
TORSDOF 8
