REMARK  8 active torsions:
REMARK  status: ('A' for Active; 'I' for Inactive)
REMARK    1  A    between atoms: C_4  and  S_5 
REMARK    2  A    between atoms: S_5  and  C_6 
REMARK    3  A    between atoms: C_6  and  C_7 
REMARK       I    between atoms: C_7  and  N_8 
REMARK    4  A    between atoms: N_8  and  C_9 
REMARK    5  A    between atoms: C_9  and  C_10 
REMARK    6  A    between atoms: C_20  and  C_21 
REMARK    7  A    between atoms: C_26  and  C_27 
REMARK       I    between atoms: C_27  and  N_28 
REMARK    8  A    between atoms: N_28  and  C_29 
ROOT
HETATM    1  C   UNL     1       1.022  -0.146  -0.316  1.00  0.00     0.069 C 
HETATM    2  C   UNL     1       2.528  -0.155  -0.213  1.00  0.00     0.019 C 
HETATM    3  N   UNL     1       3.141   1.093  -0.170  1.00  0.00    -0.353 N 
HETATM    4  C   UNL     1       4.487   1.296  -0.453  1.00  0.00     0.087 C 
HETATM    5  C   UNL     1       5.316   0.218  -0.418  1.00  0.00     0.057 C 
HETATM    6  C   UNL     1       6.779   0.337  -0.813  1.00  0.00     0.019 C 
HETATM    7  N   UNL     1       7.993   0.435  -1.141  1.00  0.00    -0.096 N 
HETATM    8  C   UNL     1       4.800  -1.167  -0.045  1.00  0.00     0.129 C 
HETATM    9  C   UNL     1       3.289  -1.273  -0.191  1.00  0.00     0.048 C 
HETATM   10  H   UNL     1       2.523   1.871  -0.372  1.00  0.00     0.166 HD
ENDROOT
BRANCH   4  11
HETATM   11  S   UNL     1       5.159   2.863  -0.902  1.00  0.00    -0.102 SA
BRANCH  11  12
HETATM   12  C   UNL     1       3.782   4.021  -0.716  1.00  0.00     0.183 C 
BRANCH  12  13
HETATM   13  C   UNL     1       4.151   5.438  -1.134  1.00  0.00     0.227 C 
HETATM   14  N   UNL     1       4.958   5.544  -2.246  1.00  0.00    -0.356 N 
HETATM   15  H   UNL     1       5.573   4.759  -2.428  1.00  0.00     0.162 HD
HETATM   16  O   UNL     1       3.658   6.414  -0.572  1.00  0.00    -0.273 OA
BRANCH  14  17
HETATM   17  C   UNL     1       5.365   6.842  -2.739  1.00  0.00     0.161 C 
BRANCH  17  18
HETATM   18  C   UNL     1       5.919   6.837  -4.145  1.00  0.00    -0.041 A 
HETATM   19  C   UNL     1       5.813   5.742  -5.016  1.00  0.00     0.009 A 
HETATM   20  C   UNL     1       6.326   5.810  -6.314  1.00  0.00     0.001 A 
HETATM   21  C   UNL     1       6.934   6.978  -6.768  1.00  0.00     0.000 A 
HETATM   22  C   UNL     1       7.031   8.080  -5.924  1.00  0.00     0.001 A 
HETATM   23  C   UNL     1       6.528   8.010  -4.624  1.00  0.00     0.009 A 
ENDBRANCH  17  18
ENDBRANCH  14  17
ENDBRANCH  12  13
ENDBRANCH  11  12
ENDBRANCH   4  11
BRANCH   8  24
HETATM   24  C   UNL     1       5.257  -1.576   1.333  1.00  0.00     0.066 A 
HETATM   25  O   UNL     1       5.752  -2.843   1.458  1.00  0.00    -0.326 OA
HETATM   26  C   UNL     1       6.080  -3.011   2.765  1.00  0.00     0.142 A 
HETATM   27  C   UNL     1       5.778  -1.881   3.488  1.00  0.00     0.027 A 
HETATM   28  C   UNL     1       5.240  -0.953   2.566  1.00  0.00     0.035 A 
ENDBRANCH   8  24
BRANCH   9  29
HETATM   29  C   UNL     1       2.678  -2.593  -0.524  1.00  0.00     0.255 C 
HETATM   30  N   UNL     1       3.124  -3.661   0.225  1.00  0.00    -0.322 N 
HETATM   31  H   UNL     1       3.999  -3.554   0.726  1.00  0.00     0.169 HD
HETATM   32  O   UNL     1       1.923  -2.675  -1.489  1.00  0.00    -0.268 OA
BRANCH  30  33
HETATM   33  C   UNL     1       2.691  -4.993   0.017  1.00  0.00     0.057 A 
HETATM   34  C   UNL     1       1.352  -5.386  -0.176  1.00  0.00     0.062 A 
HETATM   35 CL   UNL     1       0.008  -4.327   0.099  1.00  0.00    -0.082 Cl
HETATM   36  C   UNL     1       1.042  -6.724  -0.441  1.00  0.00     0.050 A 
HETATM   37  C   UNL     1       2.057  -7.675  -0.489  1.00  0.00     0.035 A 
HETATM   38 CL   UNL     1       1.675  -9.318  -0.822  1.00  0.00    -0.084 Cl
HETATM   39  C   UNL     1       3.378  -7.310  -0.242  1.00  0.00     0.026 A 
HETATM   40  C   UNL     1       3.692  -5.975   0.027  1.00  0.00     0.033 A 
ENDBRANCH  30  33
ENDBRANCH   9  29
TORSDOF 8
