REMARK  11 active torsions:
REMARK  status: ('A' for Active; 'I' for Inactive)
REMARK    1  A    between atoms: O_2  and  C_3 
REMARK    2  A    between atoms: C_6  and  C_7 
REMARK    3  A    between atoms: C_7  and  N_8 
REMARK    4  A    between atoms: C_7  and  C_29 
REMARK       I    between atoms: N_8  and  C_9 
REMARK    5  A    between atoms: N_8  and  C_20 
REMARK    6  A    between atoms: C_9  and  C_10 
REMARK    7  A    between atoms: C_13  and  C_14 
REMARK       I    between atoms: C_14  and  N_15 
REMARK    8  A    between atoms: C_17  and  N_18 
REMARK    9  A    between atoms: C_20  and  C_21 
REMARK   10  A    between atoms: C_21  and  N_22 
REMARK       I    between atoms: C_29  and  N_30 
REMARK   11  A    between atoms: N_30  and  C_31 
ROOT
HETATM    1  N   UNL     1       5.780  -3.991  -4.044  1.00  0.00    -0.328 N 
HETATM    2  C   UNL     1       6.365  -5.223  -3.696  1.00  0.00     0.265 C 
HETATM    3  O   UNL     1       5.690  -6.119  -3.193  1.00  0.00    -0.267 OA
ENDROOT
BRANCH   1   4
HETATM    4  C   UNL     1       4.349  -3.801  -3.731  1.00  0.00     0.213 C 
BRANCH   4   5
HETATM    5  C   UNL     1       3.952  -3.668  -2.270  1.00  0.00    -0.026 A 
HETATM    6  C   UNL     1       4.890  -3.568  -1.234  1.00  0.00     0.012 A 
HETATM    7  C   UNL     1       4.483  -3.305   0.078  1.00  0.00     0.037 A 
HETATM    8  C   UNL     1       3.137  -3.105   0.382  1.00  0.00     0.068 A 
HETATM    9  C   UNL     1       2.189  -3.219  -0.630  1.00  0.00     0.037 A 
HETATM   10  C   UNL     1       2.593  -3.492  -1.942  1.00  0.00     0.012 A 
BRANCH   8  11
HETATM   11  O   UNL     1       2.877  -2.811   1.690  1.00  0.00    -0.356 OA
HETATM   12  C   UNL     1       1.613  -2.216   1.965  1.00  0.00     0.210 C 
ENDBRANCH   8  11
ENDBRANCH   4   5
BRANCH   4  13
HETATM   13  C   UNL     1       3.523  -4.750  -4.628  1.00  0.00     0.245 C 
HETATM   14  N   UNL     1       3.056  -5.904  -4.059  1.00  0.00    -0.354 N 
HETATM   15  H   UNL     1       3.532  -6.182  -3.200  1.00  0.00     0.162 HD
HETATM   16  O   UNL     1       3.427  -4.476  -5.830  1.00  0.00    -0.271 OA
BRANCH  14  17
HETATM   17  C   UNL     1       2.294  -6.960  -4.717  1.00  0.00     0.084 C 
HETATM   18  C   UNL     1       1.054  -6.456  -5.460  1.00  0.00     0.025 C 
HETATM   19  C   UNL     1       1.275  -6.750  -6.943  1.00  0.00     0.002 C 
HETATM   20  C   UNL     1       2.721  -7.197  -7.093  1.00  0.00     0.002 C 
HETATM   21  C   UNL     1       3.095  -7.768  -5.736  1.00  0.00     0.025 C 
ENDBRANCH  14  17
ENDBRANCH   4  13
ENDBRANCH   1   4
BRANCH   1  22
HETATM   22  C   UNL     1       6.502  -2.869  -4.675  1.00  0.00     0.155 C 
BRANCH  22  23
HETATM   23  C   UNL     1       6.599  -2.918  -6.218  1.00  0.00     0.255 C 
BRANCH  23  24
HETATM   24  N   UNL     1       5.265  -2.877  -6.928  1.00  0.00    -0.066 N 
HETATM   25  H   UNL     1       4.627  -3.582  -6.505  1.00  0.00     0.280 HD
HETATM   26  C   UNL     1       4.565  -1.527  -6.873  1.00  0.00     0.261 C 
HETATM   27  C   UNL     1       3.237  -1.591  -7.636  1.00  0.00     0.195 C 
HETATM   28  O   UNL     1       3.453  -1.984  -8.996  1.00  0.00    -0.388 OA
HETATM   29  C   UNL     1       4.030  -3.292  -9.072  1.00  0.00     0.195 C 
HETATM   30  C   UNL     1       5.400  -3.327  -8.385  1.00  0.00     0.261 C 
ENDBRANCH  23  24
ENDBRANCH  22  23
ENDBRANCH   1  22
BRANCH   2  31
HETATM   31  C   UNL     1       7.764  -5.402  -3.970  1.00  0.00     0.115 A 
HETATM   32  S   UNL     1       8.912  -5.089  -2.750  1.00  0.00     0.019 SA
HETATM   33  N   UNL     1      10.247  -5.378  -3.686  1.00  0.00    -0.203 NA
HETATM   34  C   UNL     1       9.855  -5.813  -4.895  1.00  0.00     0.155 A 
HETATM   35  C   UNL     1       8.420  -5.861  -5.090  1.00  0.00     0.065 A 
BRANCH  34  36
HETATM   36  C   UNL     1      10.860  -6.199  -5.900  1.00  0.00     0.270 C 
HETATM   37  N   UNL     1      12.162  -6.109  -5.494  1.00  0.00    -0.365 N 
HETATM   38  H   UNL     1      12.378  -5.861  -4.535  1.00  0.00     0.159 HD
HETATM   39  H   UNL     1      12.898  -6.420  -6.111  1.00  0.00     0.159 HD
HETATM   40  O   UNL     1      10.564  -6.575  -7.031  1.00  0.00    -0.266 OA
ENDBRANCH  34  36
BRANCH  35  41
HETATM   41  N   UNL     1       7.795  -6.281  -6.228  1.00  0.00    -0.299 NA
HETATM   42  H   UNL     1       8.405  -6.721  -6.933  1.00  0.00     0.124 HD
HETATM   43  H   UNL     1       6.955  -6.855  -6.124  1.00  0.00     0.124 HD
ENDBRANCH  35  41
ENDBRANCH   2  31
TORSDOF 11
