REMARK  5 active torsions:
REMARK  status: ('A' for Active; 'I' for Inactive)
REMARK    1  A    between atoms: C_7  and  N_8 
REMARK    2  A    between atoms: N_8  and  C_9 
REMARK    3  A    between atoms: C_9  and  C_10 
REMARK       I    between atoms: C_10  and  N_11 
REMARK    4  A    between atoms: N_11  and  C_12 
REMARK    5  A    between atoms: C_16  and  C_17 
ROOT
HETATM    1  C   UNL     1       0.902   0.147   0.161  1.00  0.00     0.068 C 
HETATM    2  C   UNL     1       2.389  -0.039   0.103  1.00  0.00     0.014 A 
HETATM    3  N   UNL     1       3.130   1.082   0.120  1.00  0.00    -0.359 N 
HETATM    4  H   UNL     1       2.647   1.978   0.167  1.00  0.00     0.166 HD
HETATM    5  C   UNL     1       4.471   1.107   0.099  1.00  0.00     0.044 A 
HETATM    6  C   UNL     1       5.186  -0.106   0.037  1.00  0.00     0.012 A 
HETATM    7  C   UNL     1       4.445  -1.319  -0.041  1.00  0.00     0.030 A 
HETATM    8  C   UNL     1       3.028  -1.295   0.042  1.00  0.00    -0.010 A 
HETATM    9  C   UNL     1       5.138   2.343   0.138  1.00  0.00     0.030 A 
HETATM   10  C   UNL     1       6.529   2.393   0.137  1.00  0.00     0.002 A 
HETATM   11  C   UNL     1       7.258   1.212   0.110  1.00  0.00     0.001 A 
HETATM   12  C   UNL     1       6.598  -0.020   0.066  1.00  0.00     0.015 A 
ENDROOT
BRANCH   7  13
HETATM   13  N   UNL     1       5.082  -2.558  -0.230  1.00  0.00    -0.283 NA
HETATM   14  H   UNL     1       5.795  -2.749   0.480  1.00  0.00     0.128 HD
BRANCH  13  15
HETATM   15  C   UNL     1       5.678  -2.774  -1.564  1.00  0.00     0.195 C 
BRANCH  15  16
HETATM   16  C   UNL     1       5.988  -4.266  -1.744  1.00  0.00     0.231 C 
HETATM   17  N   UNL     1       5.329  -4.859  -2.801  1.00  0.00    -0.356 N 
HETATM   18  H   UNL     1       4.568  -4.357  -3.238  1.00  0.00     0.162 HD
HETATM   19  O   UNL     1       6.751  -4.861  -0.987  1.00  0.00    -0.272 OA
BRANCH  17  20
HETATM   20  C   UNL     1       5.387  -6.296  -3.041  1.00  0.00     0.076 C 
HETATM   21  C   UNL     1       4.382  -7.023  -2.148  1.00  0.00     0.032 C 
HETATM   22  C   UNL     1       5.106  -6.581  -4.513  1.00  0.00     0.032 C 
ENDBRANCH  17  20
ENDBRANCH  15  16
ENDBRANCH  13  15
ENDBRANCH   7  13
BRANCH   8  23
HETATM   23  C   UNL     1       2.174  -2.571   0.067  1.00  0.00     0.014 C 
HETATM   24  C   UNL     1       1.979  -3.156  -1.333  1.00  0.00     0.015 C 
HETATM   25  C   UNL     1       2.634  -3.645   1.061  1.00  0.00     0.015 C 
ENDBRANCH   8  23
TORSDOF 5
