REMARK  7 active torsions:
REMARK  status: ('A' for Active; 'I' for Inactive)
REMARK    1  A    between atoms: C_9  and  O_10 
REMARK    2  A    between atoms: O_10  and  C_11 
REMARK    3  A    between atoms: C_11  and  C_12 
REMARK    4  A    between atoms: C_15  and  C_16 
REMARK       I    between atoms: C_16  and  N_17 
REMARK    5  A    between atoms: N_17  and  N_18 
REMARK    6  A    between atoms: C_19  and  N_20 
REMARK    7  A    between atoms: C_21  and  C_22 
ROOT
HETATM    1  C   UNL     1      -9.163  -4.651  -0.342  1.00  0.00     0.270 C 
HETATM    2  N   UNL     1      -9.957  -4.851   0.774  1.00  0.00    -0.262 N 
HETATM    3  O   UNL     1      -9.232  -5.301  -1.382  1.00  0.00    -0.266 OA
HETATM    4  H   UNL     1      -9.834  -4.358   1.654  1.00  0.00     0.190 HD
ENDROOT
BRANCH   2   5
HETATM    5  N   UNL     1     -11.012  -5.775   0.756  1.00  0.00    -0.270 N 
HETATM    6  C   UNL     1     -11.896  -5.854   1.831  1.00  0.00     0.113 C 
HETATM    7  C   UNL     1     -12.449  -7.078   1.957  1.00  0.00     0.097 C 
HETATM    8  C   UNL     1     -11.807  -7.913   0.913  1.00  0.00     0.186 C 
HETATM    9  O   UNL     1     -12.068  -9.098   0.741  1.00  0.00    -0.290 OA
HETATM   10  C   UNL     1     -10.789  -7.094   0.147  1.00  0.00     0.234 C 
BRANCH   6  11
HETATM   11  N   UNL     1     -12.140  -4.765   2.639  1.00  0.00    -0.286 NA
HETATM   12  H   UNL     1     -12.318  -3.945   2.065  1.00  0.00     0.125 HD
HETATM   13  H   UNL     1     -12.939  -4.951   3.259  1.00  0.00     0.125 HD
ENDBRANCH   6  11
BRANCH   7  14
HETATM   14  C   UNL     1     -13.416  -7.484   2.892  1.00  0.00     0.146 A 
HETATM   15  N   UNL     1     -14.048  -6.804   3.833  1.00  0.00    -0.228 NA
HETATM   16  C   UNL     1     -14.905  -7.699   4.430  1.00  0.00     0.086 A 
HETATM   17  C   UNL     1     -14.803  -8.953   3.840  1.00  0.00     0.062 A 
HETATM   18  C   UNL     1     -15.810  -7.512   5.485  1.00  0.00     0.034 A 
HETATM   19  N   UNL     1     -13.849  -8.791   2.870  1.00  0.00    -0.338 N 
HETATM   20  C   UNL     1     -15.563 -10.055   4.236  1.00  0.00     0.032 A 
HETATM   21  H   UNL     1     -13.517  -9.503   2.229  1.00  0.00     0.167 HD
HETATM   22  C   UNL     1     -16.463  -9.849   5.289  1.00  0.00     0.002 A 
HETATM   23  C   UNL     1     -16.586  -8.601   5.905  1.00  0.00     0.002 A 
ENDBRANCH   7  14
ENDBRANCH   2   5
BRANCH   1  24
HETATM   24  C   UNL     1      -8.120  -3.602  -0.203  1.00  0.00     0.033 A 
HETATM   25  C   UNL     1      -6.892  -3.800  -0.844  1.00  0.00     0.017 A 
HETATM   26  C   UNL     1      -5.883  -2.841  -0.737  1.00  0.00     0.010 A 
HETATM   27  C   UNL     1      -6.091  -1.668   0.003  1.00  0.00    -0.034 A 
HETATM   28  C   UNL     1      -7.336  -1.461   0.616  1.00  0.00     0.010 A 
HETATM   29  C   UNL     1      -8.346  -2.423   0.518  1.00  0.00     0.017 A 
BRANCH  27  30
HETATM   30  C   UNL     1      -4.992  -0.636   0.104  1.00  0.00     0.214 C 
BRANCH  30  31
HETATM   31  O   UNL     1      -4.905   0.048  -1.144  1.00  0.00    -0.347 OA
BRANCH  31  32
HETATM   32  C   UNL     1      -3.885   0.947  -1.292  1.00  0.00     0.070 A 
HETATM   33  C   UNL     1      -2.943   1.287  -0.324  1.00  0.00     0.037 A 
HETATM   34  C   UNL     1      -1.942   2.221  -0.614  1.00  0.00     0.015 A 
HETATM   35  C   UNL     1      -1.870   2.833  -1.875  1.00  0.00    -0.026 A 
HETATM   36  C   UNL     1      -0.871   3.771  -2.180  1.00  0.00     0.012 A 
HETATM   37  C   UNL     1      -2.827   2.497  -2.857  1.00  0.00    -0.023 A 
HETATM   38  C   UNL     1      -0.816   4.371  -3.439  1.00  0.00     0.001 A 
HETATM   39  C   UNL     1      -1.760   4.042  -4.407  1.00  0.00     0.001 A 
HETATM   40  C   UNL     1      -2.759   3.110  -4.119  1.00  0.00     0.012 A 
HETATM   41  C   UNL     1      -3.824   1.556  -2.549  1.00  0.00     0.049 A 
ENDBRANCH  31  32
ENDBRANCH  30  31
ENDBRANCH  27  30
ENDBRANCH   1  24
TORSDOF 7
