REMARK  3 active torsions:
REMARK  status: ('A' for Active; 'I' for Inactive)
REMARK    1  A    between atoms: C_2  and  N_3 
REMARK       I    between atoms: N_3  and  C_4 
REMARK    2  A    between atoms: C_4  and  C_5 
REMARK    3  A    between atoms: C_22  and  C_23 
REMARK       I    between atoms: C_23  and  N_24 
ROOT
HETATM    1  C   UNL     1       5.834  -1.322   0.181  1.00  0.00     0.109 A 
HETATM    2  C   UNL     1       5.729  -2.684   0.481  1.00  0.00     0.136 A 
HETATM    3  F   UNL     1       4.533  -3.291   0.518  1.00  0.00    -0.205 F 
HETATM    4  C   UNL     1       6.852  -3.468   0.755  1.00  0.00     0.066 A 
HETATM    5  C   UNL     1       8.123  -2.895   0.733  1.00  0.00     0.050 A 
HETATM    6  C   UNL     1       9.281  -3.690   1.018  1.00  0.00     0.099 C 
HETATM    7  N   UNL     1      10.215  -4.337   1.251  1.00  0.00    -0.191 NA
HETATM    8  C   UNL     1       8.254  -1.539   0.434  1.00  0.00     0.066 A 
HETATM    9  C   UNL     1       7.120  -0.768   0.162  1.00  0.00     0.136 A 
HETATM   10  F   UNL     1       7.325   0.528  -0.108  1.00  0.00    -0.205 F 
ENDROOT
BRANCH   1  11
HETATM   11  C   UNL     1       4.645  -0.461  -0.104  1.00  0.00     0.262 C 
HETATM   12  N   UNL     1       3.402  -1.060   0.028  1.00  0.00    -0.323 N 
HETATM   13  H   UNL     1       3.380  -2.046   0.266  1.00  0.00     0.169 HD
HETATM   14  O   UNL     1       4.829   0.705  -0.432  1.00  0.00    -0.267 OA
BRANCH  12  15
HETATM   15  C   UNL     1       2.131  -0.463  -0.131  1.00  0.00     0.036 A 
HETATM   16  C   UNL     1       1.930   0.887  -0.424  1.00  0.00     0.032 A 
HETATM   17  C   UNL     1       0.643   1.431  -0.555  1.00  0.00     0.034 A 
HETATM   18  C   UNL     1      -0.438   0.565  -0.381  1.00  0.00     0.063 A 
HETATM   19  C   UNL     1      -0.285  -0.783  -0.091  1.00  0.00     0.030 A 
HETATM   20  N   UNL     1      -1.788   0.773  -0.438  1.00  0.00    -0.277 N 
HETATM   21  C   UNL     1       1.018  -1.306   0.036  1.00  0.00     0.046 A 
HETATM   22  C   UNL     1      -1.613  -1.295   0.002  1.00  0.00     0.156 A 
HETATM   23  N   UNL     1      -2.530  -0.325  -0.213  1.00  0.00    -0.168 NA
HETATM   24  H   UNL     1      -2.266   1.647  -0.627  1.00  0.00     0.189 HD
BRANCH  22  25
HETATM   25  C   UNL     1      -2.012  -2.679   0.291  1.00  0.00     0.270 C 
HETATM   26  N   UNL     1      -3.365  -2.877   0.318  1.00  0.00    -0.365 N 
HETATM   27  H   UNL     1      -3.974  -2.087   0.142  1.00  0.00     0.159 HD
HETATM   28  H   UNL     1      -3.736  -3.795   0.505  1.00  0.00     0.159 HD
HETATM   29  O   UNL     1      -1.227  -3.600   0.494  1.00  0.00    -0.266 OA
ENDBRANCH  22  25
ENDBRANCH  12  15
ENDBRANCH   1  11
TORSDOF 3
