REMARK  8 active torsions:
REMARK  status: ('A' for Active; 'I' for Inactive)
REMARK    1  A    between atoms: N_4  and  C_5 
REMARK    2  A    between atoms: C_14  and  C_15 
REMARK    3  A    between atoms: C_15  and  C_16 
REMARK    4  A    between atoms: C_16  and  C_17 
REMARK       I    between atoms: C_17  and  N_18 
REMARK    5  A    between atoms: N_18  and  C_19 
REMARK    6  A    between atoms: C_22  and  S_23 
REMARK    7  A    between atoms: S_23  and  N_24 
REMARK    8  A    between atoms: N_24  and  C_25 
ROOT
HETATM    1  C   UNL     1       0.868  -4.136   0.017  1.00  0.00     0.222 C 
HETATM    2  N   UNL     1       1.546  -4.929   0.926  1.00  0.00    -0.327 N 
HETATM    3  O   UNL     1       0.087  -4.520  -0.848  1.00  0.00    -0.273 OA
HETATM    4  H   UNL     1       2.155  -4.458   1.583  1.00  0.00     0.169 HD
ENDROOT
BRANCH   1   5
HETATM    5  C   UNL     1       1.168  -2.654   0.164  1.00  0.00     0.108 C 
BRANCH   5   6
HETATM    6  C   UNL     1       2.629  -2.345  -0.147  1.00  0.00     0.055 C 
BRANCH   6   7
HETATM    7  C   UNL     1       3.025  -0.908  -0.221  1.00  0.00     0.030 A 
HETATM    8  C   UNL     1       2.393   0.279  -0.258  1.00  0.00     0.014 A 
HETATM    9  C   UNL     1       0.926   0.550  -0.244  1.00  0.00     0.064 C 
HETATM   10  N   UNL     1       3.273   1.352  -0.348  1.00  0.00    -0.199 NA
HETATM   11  N   UNL     1       4.562   0.814  -0.435  1.00  0.00    -0.238 N 
HETATM   12  H   UNL     1       3.042   1.959  -1.138  1.00  0.00     0.153 HD
HETATM   13  C   UNL     1       4.483  -0.572  -0.332  1.00  0.00     0.270 A 
HETATM   14  O   UNL     1       5.359  -1.421  -0.325  1.00  0.00    -0.266 OA
BRANCH  11  15
HETATM   15  C   UNL     1       5.695   1.651  -0.516  1.00  0.00     0.055 A 
HETATM   16  C   UNL     1       6.987   1.115  -0.633  1.00  0.00     0.034 A 
HETATM   17  C   UNL     1       8.107   1.949  -0.723  1.00  0.00     0.044 A 
HETATM   18  C   UNL     1       7.941   3.325  -0.695  1.00  0.00     0.116 A 
HETATM   19  F   UNL     1       9.013   4.124  -0.782  1.00  0.00    -0.206 F 
HETATM   20  C   UNL     1       6.677   3.885  -0.576  1.00  0.00     0.044 A 
HETATM   21  C   UNL     1       5.559   3.050  -0.484  1.00  0.00     0.034 A 
ENDBRANCH  11  15
ENDBRANCH   6   7
ENDBRANCH   5   6
ENDBRANCH   1   5
BRANCH   2  22
HETATM   22  C   UNL     1       1.529  -6.337   1.012  1.00  0.00     0.034 A 
HETATM   23  C   UNL     1       0.721  -7.158   0.221  1.00  0.00     0.031 A 
HETATM   24  C   UNL     1       0.780  -8.549   0.347  1.00  0.00     0.027 A 
HETATM   25  C   UNL     1       1.662  -9.124   1.263  1.00  0.00     0.074 A 
HETATM   26  C   UNL     1       2.458  -8.320   2.079  1.00  0.00     0.027 A 
HETATM   27  C   UNL     1       2.389  -6.929   1.949  1.00  0.00     0.031 A 
BRANCH  25  28
HETATM   28  S   UNL     1       1.745 -10.891   1.410  1.00  0.00     0.241 S 
HETATM   29  O   UNL     1       2.188 -11.206   2.751  1.00  0.00    -0.206 OA
HETATM   30  O   UNL     1       0.533 -11.456   0.859  1.00  0.00    -0.206 OA
BRANCH  28  31
HETATM   31  N   UNL     1       3.050 -11.236   0.388  1.00  0.00    -0.211 NA
HETATM   32  H   UNL     1       3.790 -11.709   0.909  1.00  0.00     0.140 HD
BRANCH  31  33
HETATM   33  C   UNL     1       2.727 -11.776  -0.930  1.00  0.00     0.071 A 
HETATM   34  C   UNL     1       3.800 -12.408  -1.772  1.00  0.00     0.022 A 
HETATM   35  C   UNL     1       2.702 -13.253  -1.192  1.00  0.00     0.022 A 
ENDBRANCH  31  33
ENDBRANCH  28  31
ENDBRANCH  25  28
ENDBRANCH   2  22
TORSDOF 8
