REMARK  5 active torsions:
REMARK  status: ('A' for Active; 'I' for Inactive)
REMARK    1  A    between atoms: C_3  and  N_4 
REMARK       I    between atoms: N_4  and  C_5 
REMARK       I    between atoms: C_5  and  N_6 
REMARK    2  A    between atoms: N_6  and  C_7 
REMARK    3  A    between atoms: C_7  and  C_8 
REMARK       I    between atoms: C_8  and  N_9 
REMARK    4  A    between atoms: N_9  and  C_10 
REMARK    5  A    between atoms: C_19  and  C_20 
ROOT
HETATM    1  N   UNL     1       2.905   2.167  -0.189  1.00  0.00    -0.309 N 
HETATM    2  C   UNL     1       3.187   3.412   0.321  1.00  0.00     0.321 C 
HETATM    3  N   UNL     1       4.528   3.582   0.544  1.00  0.00    -0.334 N 
HETATM    4  O   UNL     1       2.372   4.299   0.540  1.00  0.00    -0.247 OA
HETATM    5  H   UNL     1       3.583   1.838  -0.858  1.00  0.00     0.170 HD
HETATM    6  H   UNL     1       5.113   2.762   0.486  1.00  0.00     0.164 HD
ENDROOT
BRANCH   1   7
HETATM    7  C   UNL     1       1.598   1.637  -0.290  1.00  0.00     0.043 A 
HETATM    8  C   UNL     1       1.245   0.831  -1.388  1.00  0.00    -0.035 A 
HETATM    9  C   UNL     1       2.173   0.592  -2.547  1.00  0.00     0.050 C 
HETATM   10  C   UNL     1      -0.049   0.290  -1.441  1.00  0.00     0.010 A 
HETATM   11  C   UNL     1      -0.959   0.507  -0.404  1.00  0.00     0.016 A 
HETATM   12  C   UNL     1      -0.607   1.278   0.709  1.00  0.00     0.019 A 
HETATM   13  C   UNL     1       0.672   1.855   0.743  1.00  0.00     0.046 A 
BRANCH  12  14
HETATM   14  C   UNL     1      -1.556   1.431   1.808  1.00  0.00     0.179 A 
HETATM   15  O   UNL     1      -1.124   2.122   2.913  1.00  0.00    -0.302 OA
HETATM   16  C   UNL     1      -2.175   2.065   3.776  1.00  0.00     0.163 A 
HETATM   17  C   UNL     1      -3.181   1.357   3.172  1.00  0.00     0.144 A 
HETATM   18  N   UNL     1      -2.784   0.955   1.922  1.00  0.00    -0.234 NA
ENDBRANCH  12  14
ENDBRANCH   1   7
BRANCH   3  19
HETATM   19  C   UNL     1       5.190   4.880   0.519  1.00  0.00     0.227 C 
BRANCH  19  20
HETATM   20  C   UNL     1       4.967   5.911   1.645  1.00  0.00     0.239 C 
HETATM   21  N   UNL     1       3.639   6.137   1.936  1.00  0.00    -0.326 N 
HETATM   22  H   UNL     1       2.973   5.485   1.517  1.00  0.00     0.169 HD
HETATM   23  O   UNL     1       5.921   6.558   2.076  1.00  0.00    -0.271 OA
BRANCH  21  24
HETATM   24  C   UNL     1       3.067   7.213   2.641  1.00  0.00     0.034 A 
HETATM   25  C   UNL     1       3.793   8.287   3.156  1.00  0.00     0.029 A 
HETATM   26  C   UNL     1       3.133   9.352   3.778  1.00  0.00     0.002 A 
HETATM   27  C   UNL     1       1.745   9.346   3.898  1.00  0.00     0.000 A 
HETATM   28  C   UNL     1       1.013   8.272   3.400  1.00  0.00     0.002 A 
HETATM   29  C   UNL     1       1.671   7.212   2.773  1.00  0.00     0.029 A 
ENDBRANCH  21  24
ENDBRANCH  19  20
ENDBRANCH   3  19
TORSDOF 5
