REMARK  7 active torsions:
REMARK  status: ('A' for Active; 'I' for Inactive)
REMARK    1  A    between atoms: C_2  and  O_3 
REMARK    2  A    between atoms: O_3  and  C_4 
REMARK    3  A    between atoms: C_7  and  N_8 
REMARK       I    between atoms: N_8  and  C_9 
REMARK    4  A    between atoms: C_9  and  C_10 
REMARK    5  A    between atoms: C_10  and  S_11 
REMARK    6  A    between atoms: S_11  and  C_12 
REMARK    7  A    between atoms: N_13  and  C_14 
ROOT
HETATM    1  C   UNL     1       6.579  -2.574   0.490  1.00  0.00     0.177 A 
HETATM    2  N   UNL     1       5.406  -2.474   1.272  1.00  0.00    -0.276 N 
HETATM    3  C   UNL     1       4.873  -3.688   1.841  1.00  0.00     0.124 A 
HETATM    4  N   UNL     1       3.811  -3.716   2.625  1.00  0.00    -0.384 N 
HETATM    5  H   UNL     1       3.483  -4.582   3.025  1.00  0.00     0.157 HD
HETATM    6  H   UNL     1       3.327  -2.859   2.859  1.00  0.00     0.157 HD
HETATM    7  C   UNL     1       5.586  -4.890   1.548  1.00  0.00     0.081 A 
HETATM    8  C   UNL     1       6.759  -4.804   0.805  1.00  0.00     0.187 A 
HETATM    9  N   UNL     1       7.324  -5.986   0.608  1.00  0.00    -0.153 NA
HETATM   10  N   UNL     1       6.493  -6.839   1.235  1.00  0.00    -0.280 N 
HETATM   11  H   UNL     1       6.724  -7.828   1.215  1.00  0.00     0.189 HD
HETATM   12  C   UNL     1       5.403  -6.226   1.820  1.00  0.00     0.042 A 
HETATM   13  C   UNL     1       4.363  -7.004   2.526  1.00  0.00     0.071 C 
HETATM   14  N   UNL     1       7.286  -3.642   0.261  1.00  0.00    -0.202 NA
ENDROOT
BRANCH   1  15
HETATM   15  S   UNL     1       7.192  -1.112  -0.326  1.00  0.00    -0.082 SA
BRANCH  15  16
HETATM   16  C   UNL     1       8.012  -1.863  -1.767  1.00  0.00     0.185 C 
BRANCH  16  17
HETATM   17  C   UNL     1       7.977  -0.904  -2.934  1.00  0.00     0.231 C 
HETATM   18  N   UNL     1       9.064  -0.193  -3.345  1.00  0.00    -0.327 N 
HETATM   19  H   UNL     1       8.877   0.238  -4.245  1.00  0.00     0.169 HD
HETATM   20  O   UNL     1       6.944  -0.793  -3.608  1.00  0.00    -0.272 OA
BRANCH  18  21
HETATM   21  C   UNL     1      10.321   0.092  -2.787  1.00  0.00     0.034 A 
HETATM   22  C   UNL     1      10.669  -0.084  -1.452  1.00  0.00     0.032 A 
HETATM   23  C   UNL     1      11.941   0.288  -0.996  1.00  0.00     0.039 A 
HETATM   24  C   UNL     1      12.883   0.846  -1.860  1.00  0.00     0.068 A 
HETATM   25  C   UNL     1      12.542   1.027  -3.196  1.00  0.00     0.039 A 
HETATM   26  C   UNL     1      11.268   0.662  -3.650  1.00  0.00     0.032 A 
BRANCH  24  27
HETATM   27  O   UNL     1      14.073   1.176  -1.277  1.00  0.00    -0.352 OA
BRANCH  27  28
HETATM   28  C   UNL     1      15.053   1.799  -2.107  1.00  0.00     0.171 C 
HETATM   29  C   UNL     1      16.247   2.152  -1.238  1.00  0.00     0.034 C 
ENDBRANCH  27  28
ENDBRANCH  24  27
ENDBRANCH  18  21
ENDBRANCH  16  17
ENDBRANCH  15  16
ENDBRANCH   1  15
BRANCH   2  30
HETATM   30  C   UNL     1       4.800  -1.216   1.560  1.00  0.00     0.043 A 
HETATM   31  C   UNL     1       3.542  -0.899   1.023  1.00  0.00     0.031 A 
HETATM   32  C   UNL     1       2.917   0.307   1.349  1.00  0.00     0.021 A 
HETATM   33  C   UNL     1       3.545   1.199   2.216  1.00  0.00     0.011 A 
HETATM   34 BR   UNL     1       2.697   2.828   2.661  1.00  0.00    -0.051 Br
HETATM   35  C   UNL     1       4.792   0.898   2.760  1.00  0.00     0.021 A 
HETATM   36  C   UNL     1       5.416  -0.309   2.436  1.00  0.00     0.031 A 
ENDBRANCH   2  30
TORSDOF 7
