REMARK  7 active torsions:
REMARK  status: ('A' for Active; 'I' for Inactive)
REMARK    1  A    between atoms: C_8  and  N_9 
REMARK       I    between atoms: N_9  and  C_10 
REMARK    2  A    between atoms: C_10  and  C_11 
REMARK    3  A    between atoms: C_11  and  N_12 
REMARK    4  A    between atoms: N_12  and  C_14 
REMARK    5  A    between atoms: C_14  and  C_15 
REMARK       I    between atoms: C_15  and  N_16 
REMARK    6  A    between atoms: N_16  and  C_17 
REMARK    7  A    between atoms: C_19  and  C_20 
ROOT
HETATM    1  N   UNL     1       1.038  -0.830  -1.460  1.00  0.00    -0.058 N 
HETATM    2  H   UNL     1       1.616  -0.302  -0.784  1.00  0.00     0.280 HD
HETATM    3  C   UNL     1      -0.079   0.074  -1.899  1.00  0.00     0.270 C 
ENDROOT
BRANCH   1   4
HETATM    4  C   UNL     1       0.520  -2.055  -0.689  1.00  0.00     0.337 C 
BRANCH   4   5
HETATM    5  C   UNL     1       1.656  -2.753   0.056  1.00  0.00     0.248 C 
HETATM    6  N   UNL     1       1.581  -4.040   0.471  1.00  0.00    -0.322 N 
HETATM    7  H   UNL     1       2.262  -4.262   1.194  1.00  0.00     0.169 HD
HETATM    8  O   UNL     1       2.653  -2.078   0.347  1.00  0.00    -0.271 OA
BRANCH   6   9
HETATM    9  C   UNL     1       0.735  -5.079   0.129  1.00  0.00     0.085 C 
HETATM   10  C   UNL     1       0.534  -6.142   0.991  1.00  0.00     0.052 C 
HETATM   11  C   UNL     1       1.061  -6.454   2.343  1.00  0.00     0.072 C 
HETATM   12  N   UNL     1      -0.354  -6.974   0.369  1.00  0.00    -0.280 N 
HETATM   13  H   UNL     1      -0.748  -7.848   0.709  1.00  0.00     0.189 HD
HETATM   14  N   UNL     1      -0.701  -6.557  -0.852  1.00  0.00    -0.177 NA
HETATM   15  C   UNL     1       0.016  -5.444  -1.046  1.00  0.00     0.079 C 
HETATM   16  C   UNL     1       0.027  -4.899  -2.427  1.00  0.00     0.075 C 
ENDBRANCH   6   9
ENDBRANCH   4   5
ENDBRANCH   1   4
BRANCH   1  17
HETATM   17  C   UNL     1       1.995  -1.225  -2.595  1.00  0.00     0.337 C 
BRANCH  17  18
HETATM   18  C   UNL     1       2.855  -0.077  -3.145  1.00  0.00     0.248 C 
HETATM   19  N   UNL     1       4.105  -0.481  -3.585  1.00  0.00    -0.326 N 
HETATM   20  H   UNL     1       4.442  -1.398  -3.313  1.00  0.00     0.169 HD
HETATM   21  O   UNL     1       2.414   1.068  -3.176  1.00  0.00    -0.271 OA
BRANCH  19  22
HETATM   22  C   UNL     1       5.030   0.287  -4.329  1.00  0.00     0.035 A 
HETATM   23  C   UNL     1       4.735   1.526  -4.903  1.00  0.00     0.047 A 
HETATM   24  C   UNL     1       5.685   2.218  -5.688  1.00  0.00     0.071 A 
HETATM   25  C   UNL     1       6.946   1.646  -5.878  1.00  0.00     0.049 A 
HETATM   26 CL   UNL     1       8.169   2.406  -6.826  1.00  0.00    -0.083 Cl
HETATM   27  C   UNL     1       7.251   0.412  -5.301  1.00  0.00     0.027 A 
HETATM   28  C   UNL     1       6.298  -0.266  -4.537  1.00  0.00     0.031 A 
BRANCH  24  29
HETATM   29  C   UNL     1       5.318   3.536  -6.321  1.00  0.00     0.419 C 
HETATM   30  F   UNL     1       4.053   3.941  -6.006  1.00  0.00    -0.166 F 
HETATM   31  F   UNL     1       6.129   4.558  -5.938  1.00  0.00    -0.166 F 
HETATM   32  F   UNL     1       5.352   3.495  -7.680  1.00  0.00    -0.166 F 
ENDBRANCH  24  29
ENDBRANCH  19  22
ENDBRANCH  17  18
ENDBRANCH   1  17
TORSDOF 7
