REMARK  7 active torsions:
REMARK  status: ('A' for Active; 'I' for Inactive)
REMARK    1  A    between atoms: C_2  and  C_3 
REMARK    2  A    between atoms: C_3  and  N_4 
REMARK    3  A    between atoms: C_8  and  C_27 
REMARK    4  A    between atoms: C_8  and  C_9 
REMARK    5  A    between atoms: N_12  and  C_14 
REMARK    6  A    between atoms: C_14  and  C_15 
REMARK    7  A    between atoms: C_27  and  C_28 
ROOT
HETATM    1  N   UNL     1       2.880  -1.231  -1.871  1.00  0.00    -0.268 N 
HETATM    2  C   UNL     1       2.216  -2.402  -2.051  1.00  0.00     0.326 C 
HETATM    3  O   UNL     1       1.724  -3.131  -1.209  1.00  0.00    -0.247 OA
HETATM    4  N   UNL     1       2.148  -2.670  -3.404  1.00  0.00    -0.324 N 
HETATM    5  C   UNL     1       2.626  -1.564  -4.211  1.00  0.00     0.123 C 
HETATM    6  C   UNL     1       3.197  -0.677  -3.077  1.00  0.00     0.257 C 
HETATM    7  O   UNL     1       3.786   0.379  -3.271  1.00  0.00    -0.270 OA
HETATM    8  H   UNL     1       1.546  -3.432  -3.690  1.00  0.00     0.165 HD
ENDROOT
BRANCH   5   9
HETATM    9  C   UNL     1       1.471  -0.779  -4.879  1.00  0.00     0.080 C 
BRANCH   9  10
HETATM   10  C   UNL     1       0.331  -0.332  -3.990  1.00  0.00    -0.052 A 
HETATM   11  C   UNL     1      -0.764  -1.171  -3.747  1.00  0.00     0.049 A 
HETATM   12  C   UNL     1      -1.803  -0.738  -2.926  1.00  0.00     0.116 A 
HETATM   13  F   UNL     1      -2.845  -1.550  -2.710  1.00  0.00    -0.206 F 
HETATM   14  C   UNL     1      -1.778   0.519  -2.338  1.00  0.00     0.042 A 
HETATM   15  C   UNL     1      -0.695   1.363  -2.573  1.00  0.00     0.003 A 
HETATM   16  C   UNL     1       0.353   0.941  -3.395  1.00  0.00     0.007 A 
ENDBRANCH   9  10
ENDBRANCH   5   9
BRANCH   5  17
HETATM   17  C   UNL     1       3.803  -2.019  -5.147  1.00  0.00     0.027 C 
HETATM   18  C   UNL     1       4.319  -0.964  -6.143  1.00  0.00     0.035 C 
HETATM   19  C   UNL     1       3.517  -0.825  -7.432  1.00  0.00     0.235 C 
HETATM   20  N   UNL     1       3.300  -2.162  -8.091  1.00  0.00    -0.067 N 
HETATM   21  H   UNL     1       4.224  -2.475  -8.420  1.00  0.00     0.280 HD
HETATM   22  C   UNL     1       2.750  -3.221  -7.169  1.00  0.00     0.235 C 
HETATM   23  C   UNL     1       3.591  -3.341  -5.911  1.00  0.00     0.035 C 
BRANCH  20  24
HETATM   24  C   UNL     1       2.426  -2.074  -9.341  1.00  0.00     0.273 C 
BRANCH  24  25
HETATM   25  C   UNL     1       2.756  -0.939 -10.271  1.00  0.00    -0.030 A 
HETATM   26  C   UNL     1       3.861  -1.009 -11.131  1.00  0.00     0.048 A 
HETATM   27  C   UNL     1       4.168   0.067 -11.966  1.00  0.00     0.102 A 
HETATM   28  C   UNL     1       3.402   1.234 -11.925  1.00  0.00     0.102 A 
HETATM   29  O   UNL     1       5.246  -0.091 -12.797  1.00  0.00    -0.346 OA
HETATM   30  O   UNL     1       3.669   2.339 -12.687  1.00  0.00    -0.346 OA
HETATM   31  C   UNL     1       2.295   1.308 -11.086  1.00  0.00     0.040 A 
HETATM   32  C   UNL     1       4.975   2.278 -13.273  1.00  0.00     0.202 C 
HETATM   33  C   UNL     1       5.245   0.894 -13.842  1.00  0.00     0.202 C 
HETATM   34  C   UNL     1       1.970   0.228 -10.264  1.00  0.00     0.012 A 
ENDBRANCH  24  25
ENDBRANCH  20  24
ENDBRANCH   5  17
BRANCH   1  35
HETATM   35  C   UNL     1       3.087  -0.596  -0.583  1.00  0.00     0.140 C 
BRANCH  35  36
HETATM   36  C   UNL     1       4.172  -1.279   0.264  1.00  0.00    -0.004 C 
HETATM   37  C   UNL     1       4.226  -0.631   1.649  1.00  0.00     0.011 C 
HETATM   38  C   UNL     1       5.546  -1.202  -0.403  1.00  0.00     0.011 C 
ENDBRANCH  35  36
ENDBRANCH   1  35
TORSDOF 7
