REMARK  8 active torsions:
REMARK  status: ('A' for Active; 'I' for Inactive)
REMARK    1  A    between atoms: C_2  and  O_3 
REMARK    2  A    between atoms: O_3  and  C_4 
REMARK    3  A    between atoms: C_4  and  C_5 
REMARK    4  A    between atoms: C_6  and  N_7 
REMARK       I    between atoms: N_7  and  C_8 
REMARK    5  A    between atoms: C_8  and  C_9 
REMARK    6  A    between atoms: C_9  and  S_10 
REMARK    7  A    between atoms: S_10  and  C_11 
REMARK    8  A    between atoms: N_18  and  C_19 
ROOT
HETATM    1  C   UNL     1       5.151   3.285   2.263  1.00  0.00     0.185 C 
ENDROOT
BRANCH   1   2
HETATM    2  C   UNL     1       5.235   3.568   0.771  1.00  0.00     0.232 C 
HETATM    3  N   UNL     1       4.454   2.705   0.016  1.00  0.00    -0.320 N 
HETATM    4  H   UNL     1       4.030   1.902   0.481  1.00  0.00     0.169 HD
HETATM    5  O   UNL     1       5.915   4.503   0.357  1.00  0.00    -0.272 OA
BRANCH   3   6
HETATM    6  C   UNL     1       4.155   2.810  -1.338  1.00  0.00     0.094 A 
HETATM    7  C   UNL     1       3.356   1.939  -2.076  1.00  0.00     0.080 A 
HETATM    8  C   UNL     1       3.251   2.382  -3.457  1.00  0.00    -0.026 A 
HETATM    9  C   UNL     1       3.918   3.577  -3.653  1.00  0.00    -0.008 A 
HETATM   10  C   UNL     1       2.470   1.739  -4.573  1.00  0.00     0.041 C 
HETATM   11  S   UNL     1       4.725   4.111  -2.266  1.00  0.00    -0.075 SA
HETATM   12  C   UNL     1       3.965   4.351  -4.933  1.00  0.00     0.047 C 
HETATM   13  C   UNL     1       2.830   3.905  -5.863  1.00  0.00     0.005 C 
HETATM   14  C   UNL     1       2.753   2.376  -5.943  1.00  0.00     0.005 C 
BRANCH   7  15
HETATM   15  C   UNL     1       2.715   0.774  -1.455  1.00  0.00     0.296 C 
HETATM   16  O   UNL     1       2.761   0.561  -0.247  1.00  0.00    -0.259 OA
BRANCH  15  17
HETATM   17  O   UNL     1       2.064  -0.020  -2.348  1.00  0.00    -0.318 OA
BRANCH  17  18
HETATM   18  C   UNL     1       1.392  -1.160  -1.798  1.00  0.00     0.174 C 
HETATM   19  C   UNL     1       1.132  -2.136  -2.929  1.00  0.00     0.034 C 
ENDBRANCH  17  18
ENDBRANCH  15  17
ENDBRANCH   7  15
ENDBRANCH   3   6
ENDBRANCH   1   2
BRANCH   1  20
HETATM   20  S   UNL     1       6.777   2.809   2.920  1.00  0.00    -0.083 SA
BRANCH  20  21
HETATM   21  C   UNL     1       6.385   1.212   3.456  1.00  0.00     0.171 A 
HETATM   22  N   UNL     1       5.917   0.316   2.643  1.00  0.00    -0.204 NA
HETATM   23  C   UNL     1       5.632  -0.867   3.259  1.00  0.00     0.171 A 
HETATM   24  C   UNL     1       5.752  -1.124   4.606  1.00  0.00     0.099 A 
HETATM   25  N   UNL     1       5.142  -2.038   2.685  1.00  0.00    -0.215 N 
HETATM   26  C   UNL     1       6.286  -0.115   5.473  1.00  0.00     0.263 A 
HETATM   27  C   UNL     1       5.248  -2.407   4.799  1.00  0.00     0.160 A 
HETATM   28  O   UNL     1       6.431  -0.250   6.681  1.00  0.00    -0.267 OA
HETATM   29  N   UNL     1       6.605   1.043   4.800  1.00  0.00    -0.301 N 
HETATM   30  H   UNL     1       6.981   1.807   5.340  1.00  0.00     0.171 HD
HETATM   31  N   UNL     1       4.831  -2.957   3.656  1.00  0.00    -0.177 NA
BRANCH  25  32
HETATM   32  C   UNL     1       4.971  -2.374   1.310  1.00  0.00     0.060 A 
HETATM   33  C   UNL     1       5.527  -1.592   0.286  1.00  0.00     0.034 A 
HETATM   34  C   UNL     1       5.374  -1.975  -1.050  1.00  0.00     0.044 A 
HETATM   35  C   UNL     1       4.662  -3.127  -1.361  1.00  0.00     0.116 A 
HETATM   36  F   UNL     1       4.508  -3.482  -2.643  1.00  0.00    -0.206 F 
HETATM   37  C   UNL     1       4.101  -3.912  -0.362  1.00  0.00     0.044 A 
HETATM   38  C   UNL     1       4.261  -3.542   0.975  1.00  0.00     0.034 A 
ENDBRANCH  25  32
ENDBRANCH  20  21
ENDBRANCH   1  20
TORSDOF 8
