REMARK  9 active torsions:
REMARK  status: ('A' for Active; 'I' for Inactive)
REMARK    1  A    between atoms: C_2  and  O_3 
REMARK    2  A    between atoms: O_3  and  C_4 
REMARK    3  A    between atoms: C_6  and  C_7 
REMARK       I    between atoms: C_7  and  N_8 
REMARK    4  A    between atoms: N_8  and  C_9 
REMARK    5  A    between atoms: C_9  and  N_10 
REMARK    6  A    between atoms: N_10  and  C_11 
REMARK    7  A    between atoms: C_14  and  N_15 
REMARK    8  A    between atoms: N_18  and  C_20 
REMARK    9  A    between atoms: C_20  and  C_21 
ROOT
HETATM    1  C   UNL     1       2.005   0.457  -6.068  1.00  0.00     0.034 A 
HETATM    2  C   UNL     1       0.841   0.301  -5.316  1.00  0.00     0.032 A 
HETATM    3  C   UNL     1       0.783   0.730  -3.982  1.00  0.00     0.031 A 
HETATM    4  C   UNL     1       1.868   1.352  -3.347  1.00  0.00     0.030 A 
HETATM    5  C   UNL     1       3.016   1.528  -4.137  1.00  0.00     0.031 A 
HETATM    6  C   UNL     1       3.090   1.087  -5.473  1.00  0.00     0.032 A 
ENDROOT
BRANCH   1   7
HETATM    7  N   UNL     1       2.027  -0.156  -7.343  1.00  0.00    -0.333 N 
HETATM    8  H   UNL     1       1.307  -0.863  -7.455  1.00  0.00     0.168 HD
BRANCH   7   9
HETATM    9  C   UNL     1       3.091  -0.379  -8.144  1.00  0.00     0.179 C 
HETATM   10  S   UNL     1       3.313  -1.915  -8.775  1.00  0.00    -0.040 SA
BRANCH   9  11
HETATM   11  N   UNL     1       3.960   0.592  -8.528  1.00  0.00    -0.299 N 
HETATM   12  C   UNL     1       3.609   1.900  -8.850  1.00  0.00     0.257 C 
HETATM   13  O   UNL     1       2.869   2.606  -8.170  1.00  0.00    -0.267 OA
HETATM   14  H   UNL     1       4.660   0.170  -9.116  1.00  0.00     0.171 HD
BRANCH  12  15
HETATM   15  C   UNL     1       4.263   2.502 -10.067  1.00  0.00     0.035 A 
HETATM   16  C   UNL     1       5.198   1.834 -10.871  1.00  0.00     0.053 A 
HETATM   17  C   UNL     1       5.755   2.456 -11.995  1.00  0.00     0.070 A 
HETATM   18  C   UNL     1       5.351   3.737 -12.356  1.00  0.00     0.037 A 
HETATM   19  C   UNL     1       4.417   4.413 -11.572  1.00  0.00     0.004 A 
HETATM   20  C   UNL     1       3.882   3.803 -10.433  1.00  0.00     0.017 A 
BRANCH  17  21
HETATM   21  O   UNL     1       6.634   1.687 -12.707  1.00  0.00    -0.347 OA
BRANCH  21  22
HETATM   22  C   UNL     1       7.752   2.362 -13.301  1.00  0.00     0.120 C 
HETATM   23  C   UNL     1       7.577   2.379 -14.815  1.00  0.00     0.040 C 
HETATM   24  C   UNL     1       9.000   1.567 -12.922  1.00  0.00     0.040 C 
ENDBRANCH  21  22
ENDBRANCH  17  21
ENDBRANCH  12  15
ENDBRANCH   9  11
ENDBRANCH   7   9
ENDBRANCH   1   7
BRANCH   4  25
HETATM   25  N   UNL     1       1.809   1.695  -2.000  1.00  0.00    -0.378 N 
HETATM   26  C   UNL     1       0.555   2.230  -1.430  1.00  0.00     0.150 C 
HETATM   27  C   UNL     1       0.639   3.765  -1.293  1.00  0.00     0.255 C 
HETATM   28  N   UNL     1       1.878   4.164  -0.488  1.00  0.00    -0.064 N 
HETATM   29  H   UNL     1       1.788   3.731   0.443  1.00  0.00     0.280 HD
HETATM   30  C   UNL     1       3.146   3.584  -1.115  1.00  0.00     0.255 C 
HETATM   31  C   UNL     1       3.017   2.052  -1.238  1.00  0.00     0.150 C 
BRANCH  28  32
HETATM   32  C   UNL     1       1.977   5.650  -0.257  1.00  0.00     0.276 C 
BRANCH  32  33
HETATM   33  C   UNL     1       0.941   6.188   0.687  1.00  0.00     0.006 A 
HETATM   34  C   UNL     1       0.772   5.604   1.947  1.00  0.00     0.124 A 
HETATM   35  F   UNL     1       1.505   4.525   2.263  1.00  0.00    -0.206 F 
HETATM   36  C   UNL     1      -0.156   6.087   2.861  1.00  0.00     0.043 A 
HETATM   37  C   UNL     1      -0.937   7.188   2.520  1.00  0.00     0.003 A 
HETATM   38  C   UNL     1      -0.781   7.793   1.272  1.00  0.00     0.001 A 
HETATM   39  C   UNL     1       0.155   7.300   0.358  1.00  0.00     0.012 A 
ENDBRANCH  32  33
ENDBRANCH  28  32
ENDBRANCH   4  25
TORSDOF 9
