REMARK  9 active torsions:
REMARK  status: ('A' for Active; 'I' for Inactive)
REMARK    1  A    between atoms: C_2  and  O_3 
REMARK    2  A    between atoms: O_3  and  C_4 
REMARK    3  A    between atoms: C_5  and  C_6 
REMARK    4  A    between atoms: N_7  and  C_9 
REMARK    5  A    between atoms: C_9  and  C_10 
REMARK       I    between atoms: C_10  and  N_11 
REMARK    6  A    between atoms: N_11  and  C_12 
REMARK    7  A    between atoms: C_20  and  C_21 
REMARK    8  A    between atoms: C_21  and  O_22 
REMARK    9  A    between atoms: C_28  and  O_29 
ROOT
HETATM    1  C   UNL     1       0.029  -1.069   0.713  1.00  0.00     0.231 C 
HETATM    2  N   UNL     1       0.723   0.275   0.482  1.00  0.00    -0.054 N 
HETATM    3  H   UNL     1       1.191   0.202  -0.434  1.00  0.00     0.281 HD
HETATM    4  C   UNL     1      -0.283   1.390   0.311  1.00  0.00     0.239 C 
HETATM    5  C   UNL     1      -1.184   1.496   1.534  1.00  0.00     0.066 C 
HETATM    6  C   UNL     1      -1.908   0.175   1.798  1.00  0.00     0.065 C 
HETATM    7  C   UNL     1      -0.892  -0.985   1.962  1.00  0.00     0.055 C 
HETATM    8  C   UNL     1      -2.815   0.279   3.035  1.00  0.00     0.038 C 
HETATM    9  C   UNL     1      -3.547  -1.034   3.314  1.00  0.00     0.003 C 
HETATM   10  C   UNL     1      -2.576  -2.204   3.428  1.00  0.00     0.001 C 
HETATM   11  C   UNL     1      -1.649  -2.308   2.218  1.00  0.00     0.010 C 
ENDROOT
BRANCH   2  12
HETATM   12  C   UNL     1       1.879   0.621   1.426  1.00  0.00     0.338 C 
BRANCH  12  13
HETATM   13  C   UNL     1       2.609   1.896   0.991  1.00  0.00     0.248 C 
HETATM   14  N   UNL     1       2.997   2.692   2.048  1.00  0.00    -0.319 N 
HETATM   15  H   UNL     1       2.923   2.334   3.002  1.00  0.00     0.169 HD
HETATM   16  O   UNL     1       2.727   2.112  -0.213  1.00  0.00    -0.271 OA
BRANCH  14  17
HETATM   17  C   UNL     1       3.513   3.983   1.983  1.00  0.00     0.094 A 
HETATM   18  S   UNL     1       3.688   4.789   0.503  1.00  0.00    -0.075 SA
HETATM   19  C   UNL     1       4.286   6.184   1.254  1.00  0.00    -0.008 A 
HETATM   20  C   UNL     1       4.338   6.071   2.631  1.00  0.00    -0.026 A 
HETATM   21  C   UNL     1       4.664   7.399   0.461  1.00  0.00     0.047 C 
HETATM   22  C   UNL     1       4.827   7.213   3.484  1.00  0.00     0.041 C 
HETATM   23  C   UNL     1       3.906   4.759   3.072  1.00  0.00     0.080 A 
HETATM   24  C   UNL     1       4.883   8.540   2.710  1.00  0.00     0.005 C 
HETATM   25  C   UNL     1       5.496   8.362   1.316  1.00  0.00     0.005 C 
BRANCH  23  26
HETATM   26  C   UNL     1       3.845   4.233   4.441  1.00  0.00     0.296 C 
HETATM   27  O   UNL     1       3.361   3.130   4.691  1.00  0.00    -0.259 OA
BRANCH  26  28
HETATM   28  O   UNL     1       4.376   5.068   5.373  1.00  0.00    -0.322 OA
HETATM   29  C   UNL     1       4.335   4.577   6.714  1.00  0.00     0.213 C 
ENDBRANCH  26  28
ENDBRANCH  23  26
ENDBRANCH  14  17
ENDBRANCH  12  13
ENDBRANCH   2  12
BRANCH   1  30
HETATM   30  C   UNL     1       0.957  -2.273   0.593  1.00  0.00     0.006 A 
HETATM   31  C   UNL     1       1.790  -2.745   1.629  1.00  0.00     0.077 A 
HETATM   32  C   UNL     1       2.536  -3.917   1.442  1.00  0.00     0.037 A 
HETATM   33  C   UNL     1       2.492  -4.606   0.230  1.00  0.00     0.003 A 
HETATM   34  C   UNL     1       1.705  -4.133  -0.810  1.00  0.00     0.001 A 
HETATM   35  C   UNL     1       0.946  -2.979  -0.631  1.00  0.00     0.012 A 
BRANCH  31  36
HETATM   36  O   UNL     1       1.818  -2.006   2.784  1.00  0.00    -0.351 OA
BRANCH  36  37
HETATM   37  C   UNL     1       2.833  -2.328   3.743  1.00  0.00     0.171 C 
HETATM   38  C   UNL     1       2.868  -1.218   4.777  1.00  0.00     0.034 C 
ENDBRANCH  36  37
ENDBRANCH  31  36
ENDBRANCH   1  30
BRANCH   6  39
HETATM   39  O   UNL     1      -2.715  -0.090   0.643  1.00  0.00    -0.389 OA
HETATM   40  H   UNL     1      -3.597   0.313   0.766  1.00  0.00     0.210 HD
ENDBRANCH   6  39
TORSDOF 9
