REMARK  2 active torsions:
REMARK  status: ('A' for Active; 'I' for Inactive)
REMARK    1  A    between atoms: N_6  and  C_7 
REMARK    2  A    between atoms: C_8  and  N_9 
ROOT
HETATM    1  C   UNL     1       5.302   0.100   3.284  1.00  0.00     0.066 A 
HETATM    2  C   UNL     1       6.313  -0.722   3.840  1.00  0.00     0.130 A 
HETATM    3  C   UNL     1       6.751  -0.615   5.170  1.00  0.00     0.060 A 
HETATM    4  C   UNL     1       6.182   0.354   5.986  1.00  0.00     0.052 A 
HETATM    5 BR   UNL     1       6.743   0.514   7.781  1.00  0.00    -0.048 Br
HETATM    6  C   UNL     1       5.206   1.199   5.469  1.00  0.00     0.136 A 
HETATM    7  F   UNL     1       4.637   2.143   6.233  1.00  0.00    -0.205 F 
HETATM    8  C   UNL     1       4.777   1.079   4.143  1.00  0.00     0.075 A 
ENDROOT
BRANCH   1   9
HETATM    9  N   UNL     1       4.804  -0.024   1.997  1.00  0.00    -0.376 N 
HETATM   10  C   UNL     1       4.582   1.153   1.143  1.00  0.00     0.150 C 
HETATM   11  C   UNL     1       3.091   1.285   0.770  1.00  0.00     0.254 C 
HETATM   12  N   UNL     1       2.571  -0.022   0.170  1.00  0.00    -0.072 N 
HETATM   13  C   UNL     1       1.132   0.085  -0.238  1.00  0.00     0.269 C 
HETATM   14  H   UNL     1       3.122  -0.205  -0.679  1.00  0.00     0.279 HD
HETATM   15  C   UNL     1       2.807  -1.199   1.116  1.00  0.00     0.254 C 
HETATM   16  C   UNL     1       4.300  -1.314   1.494  1.00  0.00     0.150 C 
ENDBRANCH   1   9
BRANCH   2  17
HETATM   17  N   UNL     1       6.994  -1.698   3.012  1.00  0.00    -0.113 N 
HETATM   18  O   UNL     1       7.660  -1.274   2.059  1.00  0.00    -0.532 OA
HETATM   19  O   UNL     1       6.824  -2.888   3.305  1.00  0.00    -0.532 OA
ENDBRANCH   2  17
TORSDOF 2
