REMARK  6 active torsions:
REMARK  status: ('A' for Active; 'I' for Inactive)
REMARK    1  A    between atoms: C_2  and  C_3 
REMARK    2  A    between atoms: C_4  and  O_5 
REMARK    3  A    between atoms: O_5  and  C_6 
REMARK    4  A    between atoms: C_6  and  C_7 
REMARK       I    between atoms: C_7  and  N_8 
REMARK    5  A    between atoms: N_8  and  C_9 
REMARK    6  A    between atoms: C_16  and  C_17 
REMARK       I    between atoms: C_17  and  N_18 
ROOT
HETATM    1  C   UNL     1       6.338   1.306   2.368  1.00  0.00     0.246 C 
HETATM    2  N   UNL     1       5.817   2.434   2.987  1.00  0.00    -0.325 N 
HETATM    3  O   UNL     1       7.181   1.282   1.477  1.00  0.00    -0.271 OA
HETATM    4  H   UNL     1       5.187   2.264   3.762  1.00  0.00     0.169 HD
ENDROOT
BRANCH   2   5
HETATM    5  C   UNL     1       6.096   3.785   2.697  1.00  0.00     0.035 A 
HETATM    6  C   UNL     1       6.779   4.210   1.550  1.00  0.00     0.046 A 
HETATM    7  C   UNL     1       6.987   5.593   1.338  1.00  0.00     0.030 A 
HETATM    8  C   UNL     1       6.530   6.494   2.292  1.00  0.00     0.063 A 
HETATM    9  C   UNL     1       7.570   6.405   0.317  1.00  0.00     0.156 A 
HETATM   10  N   UNL     1       6.884   7.728   1.827  1.00  0.00    -0.277 N 
HETATM   11  C   UNL     1       5.853   6.103   3.449  1.00  0.00     0.034 A 
HETATM   12  H   UNL     1       6.719   8.624   2.274  1.00  0.00     0.189 HD
HETATM   13  N   UNL     1       7.503   7.718   0.636  1.00  0.00    -0.168 NA
HETATM   14  C   UNL     1       5.634   4.732   3.622  1.00  0.00     0.032 A 
BRANCH   9  15
HETATM   15  C   UNL     1       8.168   5.964  -0.951  1.00  0.00     0.270 C 
HETATM   16  N   UNL     1       8.617   6.989  -1.740  1.00  0.00    -0.365 N 
HETATM   17  H   UNL     1       8.488   7.940  -1.417  1.00  0.00     0.159 HD
HETATM   18  H   UNL     1       9.003   6.786  -2.648  1.00  0.00     0.159 HD
HETATM   19  O   UNL     1       8.261   4.797  -1.314  1.00  0.00    -0.266 OA
ENDBRANCH   9  15
ENDBRANCH   2   5
BRANCH   1  20
HETATM   20  C   UNL     1       5.784   0.012   2.973  1.00  0.00     0.278 C 
BRANCH  20  21
HETATM   21  O   UNL     1       4.426  -0.209   2.630  1.00  0.00    -0.342 OA
BRANCH  21  22
HETATM   22  C   UNL     1       4.118  -0.845   1.455  1.00  0.00     0.076 A 
HETATM   23  C   UNL     1       2.739  -0.992   1.150  1.00  0.00    -0.017 A 
HETATM   24  C   UNL     1       2.409  -1.752   0.004  1.00  0.00     0.011 A 
HETATM   25  C   UNL     1       3.386  -2.301  -0.828  1.00  0.00     0.001 A 
HETATM   26  C   UNL     1       4.725  -2.096  -0.545  1.00  0.00     0.003 A 
HETATM   27  C   UNL     1       5.089  -1.370   0.588  1.00  0.00     0.037 A 
BRANCH  23  28
HETATM   28  C   UNL     1       1.615  -0.371   2.019  1.00  0.00    -0.021 C 
HETATM   29  C   UNL     1       1.887   1.119   2.339  1.00  0.00     0.019 C 
HETATM   30  C   UNL     1       1.485  -1.171   3.330  1.00  0.00     0.019 C 
HETATM   31  C   UNL     1       0.223  -0.395   1.331  1.00  0.00     0.019 C 
ENDBRANCH  23  28
ENDBRANCH  21  22
ENDBRANCH  20  21
ENDBRANCH   1  20
TORSDOF 6
