REMARK  8 active torsions:
REMARK  status: ('A' for Active; 'I' for Inactive)
REMARK    1  A    between atoms: C_2  and  N_3 
REMARK    2  A    between atoms: N_3  and  C_4 
REMARK    3  A    between atoms: C_4  and  N_5 
REMARK    4  A    between atoms: N_5  and  C_6 
REMARK    5  A    between atoms: N_5  and  C_21 
REMARK    6  A    between atoms: C_6  and  C_7 
REMARK    7  A    between atoms: C_21  and  C_22 
REMARK    8  A    between atoms: C_22  and  N_23 
ROOT
HETATM    1  N   UNL     1      -0.822   3.795   0.275  1.00  0.00    -0.352 N 
ENDROOT
BRANCH   1   2
HETATM    2  C   UNL     1       0.544   3.651   0.436  1.00  0.00     0.174 C 
HETATM    3  S   UNL     1       1.355   4.179   1.809  1.00  0.00    -0.041 SA
BRANCH   2   4
HETATM    4  N   UNL     1       1.251   2.846  -0.402  1.00  0.00    -0.333 N 
HETATM    5  H   UNL     1       2.162   2.587  -0.027  1.00  0.00     0.168 HD
BRANCH   4   6
HETATM    6  C   UNL     1       1.155   2.649  -1.796  1.00  0.00     0.034 A 
HETATM    7  C   UNL     1       0.362   3.429  -2.640  1.00  0.00     0.032 A 
HETATM    8  C   UNL     1       0.348   3.187  -4.017  1.00  0.00     0.044 A 
HETATM    9  C   UNL     1       1.142   2.178  -4.547  1.00  0.00     0.116 A 
HETATM   10  C   UNL     1       1.959   1.412  -3.728  1.00  0.00     0.044 A 
HETATM   11  F   UNL     1       1.128   1.949  -5.866  1.00  0.00    -0.206 F 
HETATM   12  C   UNL     1       1.973   1.655  -2.353  1.00  0.00     0.032 A 
ENDBRANCH   4   6
ENDBRANCH   2   4
ENDBRANCH   1   2
BRANCH   1  13
HETATM   13  C   UNL     1      -1.520   5.047   0.664  1.00  0.00     0.169 C 
BRANCH  13  14
HETATM   14  C   UNL     1      -2.013   5.810  -0.533  1.00  0.00     0.029 A 
HETATM   15  C   UNL     1      -3.416   5.548  -0.979  1.00  0.00     0.253 A 
HETATM   16  O   UNL     1      -4.106   4.691  -0.433  1.00  0.00    -0.268 OA
HETATM   17  N   UNL     1      -3.900   6.295  -2.017  1.00  0.00    -0.322 N 
HETATM   18  C   UNL     1      -3.184   7.330  -2.632  1.00  0.00     0.048 A 
HETATM   19  H   UNL     1      -4.853   6.108  -2.302  1.00  0.00     0.169 HD
HETATM   20  C   UNL     1      -1.870   7.606  -2.194  1.00  0.00    -0.006 A 
HETATM   21  C   UNL     1      -3.789   8.085  -3.638  1.00  0.00     0.070 A 
HETATM   22  C   UNL     1      -1.151   8.661  -2.765  1.00  0.00     0.053 A 
HETATM   23  C   UNL     1      -1.303   6.795  -1.114  1.00  0.00     0.028 A 
HETATM   24  C   UNL     1      -1.777   9.405  -3.746  1.00  0.00     0.106 A 
HETATM   25  C   UNL     1      -3.055   9.124  -4.170  1.00  0.00     0.107 A 
HETATM   26  O   UNL     1      -1.243  10.478  -4.388  1.00  0.00    -0.323 OA
HETATM   27  O   UNL     1      -3.482   9.984  -5.132  1.00  0.00    -0.323 OA
HETATM   28  C   UNL     1      -2.343  10.865  -5.240  1.00  0.00     0.352 A 
ENDBRANCH  13  14
ENDBRANCH   1  13
BRANCH   1  29
HETATM   29  C   UNL     1      -1.681   2.659  -0.140  1.00  0.00     0.153 C 
BRANCH  29  30
HETATM   30  C   UNL     1      -1.393   1.323   0.578  1.00  0.00     0.254 C 
BRANCH  30  31
HETATM   31  N   UNL     1      -1.220   1.505   2.077  1.00  0.00    -0.066 N 
HETATM   32  H   UNL     1      -0.563   2.290   2.206  1.00  0.00     0.280 HD
HETATM   33  C   UNL     1      -2.503   1.875   2.814  1.00  0.00     0.261 C 
HETATM   34  C   UNL     1      -2.193   2.059   4.304  1.00  0.00     0.195 C 
HETATM   35  O   UNL     1      -1.627   0.865   4.857  1.00  0.00    -0.388 OA
HETATM   36  C   UNL     1      -0.390   0.523   4.222  1.00  0.00     0.195 C 
HETATM   37  C   UNL     1      -0.592   0.276   2.723  1.00  0.00     0.261 C 
ENDBRANCH  30  31
ENDBRANCH  29  30
ENDBRANCH   1  29
TORSDOF 8
