REMARK  7 active torsions:
REMARK  status: ('A' for Active; 'I' for Inactive)
REMARK    1  A    between atoms: C_3  and  N_4 
REMARK    2  A    between atoms: N_7  and  C_9 
REMARK    3  A    between atoms: C_9  and  C_10 
REMARK    4  A    between atoms: C_10  and  C_11 
REMARK    5  A    between atoms: C_11  and  N_12 
REMARK       I    between atoms: N_12  and  C_13 
REMARK    6  A    between atoms: C_13  and  C_14 
REMARK    7  A    between atoms: C_14  and  N_15 
ROOT
HETATM    1  N   UNL     1      -1.467   7.333   4.675  1.00  0.00    -0.360 N 
HETATM    2  C   UNL     1      -1.555   6.329   5.618  1.00  0.00     0.237 C 
HETATM    3  O   UNL     1      -0.764   5.385   5.622  1.00  0.00    -0.272 OA
HETATM    4  H   UNL     1      -2.160   8.078   4.736  1.00  0.00     0.162 HD
ENDROOT
BRANCH   1   5
HETATM    5  C   UNL     1      -0.313   7.458   3.819  1.00  0.00     0.124 C 
BRANCH   5   6
HETATM    6  C   UNL     1      -0.318   6.428   2.687  1.00  0.00     0.047 C 
BRANCH   6   7
HETATM    7  C   UNL     1       0.992   6.490   1.915  1.00  0.00     0.236 C 
BRANCH   7   8
HETATM    8  N   UNL     1       1.064   5.438   0.822  1.00  0.00    -0.068 N 
HETATM    9  C   UNL     1      -0.030   5.601  -0.244  1.00  0.00     0.254 C 
HETATM   10  C   UNL     1       0.170   4.632  -1.428  1.00  0.00     0.150 C 
HETATM   11  N   UNL     1       1.525   4.824  -1.976  1.00  0.00    -0.377 N 
HETATM   12  C   UNL     1       2.583   4.491  -1.009  1.00  0.00     0.150 C 
HETATM   13  C   UNL     1       2.474   5.448   0.196  1.00  0.00     0.254 C 
HETATM   14  H   UNL     1       0.934   4.515   1.256  1.00  0.00     0.280 HD
BRANCH  11  15
HETATM   15  C   UNL     1       1.674   4.390  -3.301  1.00  0.00     0.037 A 
HETATM   16  C   UNL     1       1.166   5.176  -4.366  1.00  0.00    -0.035 A 
HETATM   17  C   UNL     1       0.471   6.493  -4.137  1.00  0.00     0.050 C 
HETATM   18  C   UNL     1       1.296   4.732  -5.695  1.00  0.00     0.011 A 
HETATM   19  C   UNL     1       1.956   3.542  -5.988  1.00  0.00     0.024 A 
HETATM   20  C   UNL     1       2.478   2.782  -4.951  1.00  0.00     0.036 A 
HETATM   21  C   UNL     1       2.337   3.195  -3.623  1.00  0.00     0.053 A 
HETATM   22 CL   UNL     1       3.304   1.314  -5.301  1.00  0.00    -0.084 Cl
ENDBRANCH  11  15
ENDBRANCH   7   8
ENDBRANCH   6   7
ENDBRANCH   5   6
ENDBRANCH   1   5
BRANCH   2  23
HETATM   23  C   UNL     1      -2.775   6.382   6.534  1.00  0.00     0.257 C 
BRANCH  23  24
HETATM   24  N   UNL     1      -3.356   7.717   6.638  1.00  0.00    -0.224 N 
HETATM   25  N   UNL     1      -4.458   7.992   5.806  1.00  0.00    -0.180 NA
HETATM   26  C   UNL     1      -5.120   9.106   5.965  1.00  0.00     0.153 A 
HETATM   27  C   UNL     1      -4.720  10.067   6.953  1.00  0.00     0.028 A 
HETATM   28  C   UNL     1      -3.612   9.807   7.719  1.00  0.00     0.116 A 
HETATM   29  C   UNL     1      -5.257  11.314   7.365  1.00  0.00     0.005 A 
HETATM   30  N   UNL     1      -3.426  10.854   8.576  1.00  0.00    -0.350 N 
HETATM   31  C   UNL     1      -2.844   8.604   7.607  1.00  0.00     0.291 A 
HETATM   32  H   UNL     1      -2.687  10.919   9.265  1.00  0.00     0.166 HD
HETATM   33  C   UNL     1      -4.424  11.788   8.386  1.00  0.00     0.044 A 
HETATM   34  C   UNL     1      -4.655  13.002   9.044  1.00  0.00     0.030 A 
HETATM   35  C   UNL     1      -5.771  13.749   8.653  1.00  0.00     0.002 A 
HETATM   36  C   UNL     1      -6.618  13.301   7.642  1.00  0.00     0.001 A 
HETATM   37  C   UNL     1      -6.372  12.088   6.988  1.00  0.00     0.014 A 
HETATM   38  O   UNL     1      -1.845   8.379   8.281  1.00  0.00    -0.264 OA
ENDBRANCH  23  24
ENDBRANCH   2  23
TORSDOF 7
