REMARK  7 active torsions:
REMARK  status: ('A' for Active; 'I' for Inactive)
REMARK    1  A    between atoms: C_4  and  C_5 
REMARK    2  A    between atoms: C_5  and  C_6 
REMARK    3  A    between atoms: C_6  and  N_7 
REMARK       I    between atoms: N_7  and  C_8 
REMARK    4  A    between atoms: C_8  and  C_9 
REMARK    5  A    between atoms: C_10  and  N_11 
REMARK    6  A    between atoms: N_12  and  N_13 
REMARK    7  A    between atoms: C_14  and  C_15 
ROOT
HETATM    1  C   UNL     1       3.123  -3.721  -1.187  1.00  0.00     0.110 A 
HETATM    2  C   UNL     1       4.115  -4.681  -1.350  1.00  0.00     0.143 A 
HETATM    3  N   UNL     1       3.558  -5.937  -1.095  1.00  0.00    -0.197 N 
HETATM    4  C   UNL     1       2.270  -5.748  -0.630  1.00  0.00     0.183 A 
HETATM    5  C   UNL     1       1.977  -4.391  -0.700  1.00  0.00     0.125 A 
HETATM    6  N   UNL     1       0.779  -3.906  -0.279  1.00  0.00    -0.242 NA
HETATM    7  C   UNL     1      -0.059  -4.833   0.219  1.00  0.00     0.086 A 
HETATM    8  C   UNL     1       0.262  -6.216   0.263  1.00  0.00     0.088 A 
HETATM    9  N   UNL     1       1.428  -6.707  -0.178  1.00  0.00    -0.225 NA
HETATM   10  C   UNL     1      -1.284  -4.417   0.726  1.00  0.00     0.034 A 
HETATM   11  C   UNL     1      -2.198  -5.321   1.273  1.00  0.00     0.002 A 
HETATM   12  C   UNL     1      -1.886  -6.673   1.304  1.00  0.00     0.002 A 
HETATM   13  C   UNL     1      -0.661  -7.106   0.797  1.00  0.00     0.034 A 
ENDROOT
BRANCH   1  14
HETATM   14  C   UNL     1       3.315  -2.305  -1.430  1.00  0.00     0.257 C 
HETATM   15  N   UNL     1       4.321  -1.760  -0.647  1.00  0.00    -0.356 N 
HETATM   16  H   UNL     1       4.721  -2.430   0.002  1.00  0.00     0.162 HD
HETATM   17  O   UNL     1       2.736  -1.710  -2.329  1.00  0.00    -0.267 OA
BRANCH  15  18
HETATM   18  C   UNL     1       5.306  -0.864  -1.219  1.00  0.00     0.127 C 
BRANCH  18  19
HETATM   19  C   UNL     1       4.816   0.460  -1.806  1.00  0.00     0.058 C 
BRANCH  19  20
HETATM   20  C   UNL     1       5.981   1.149  -2.485  1.00  0.00    -0.057 A 
HETATM   21  C   UNL     1       6.371   0.752  -3.774  1.00  0.00     0.007 A 
HETATM   22  C   UNL     1       7.507   1.298  -4.371  1.00  0.00     0.001 A 
HETATM   23  C   UNL     1       8.260   2.252  -3.689  1.00  0.00     0.000 A 
HETATM   24  C   UNL     1       7.873   2.663  -2.414  1.00  0.00     0.001 A 
HETATM   25  C   UNL     1       6.740   2.113  -1.812  1.00  0.00     0.007 A 
ENDBRANCH  19  20
ENDBRANCH  18  19
ENDBRANCH  15  18
ENDBRANCH   1  14
BRANCH   2  26
HETATM   26  N   UNL     1       5.427  -4.514  -1.683  1.00  0.00    -0.383 N 
HETATM   27  H   UNL     1       5.681  -3.737  -2.291  1.00  0.00     0.157 HD
HETATM   28  H   UNL     1       5.996  -5.332  -1.887  1.00  0.00     0.157 HD
ENDBRANCH   2  26
BRANCH   3  29
HETATM   29  N   UNL     1       4.220  -7.135  -1.076  1.00  0.00    -0.176 NA
HETATM   30  C   UNL     1       4.748  -7.569  -2.179  1.00  0.00     0.153 C 
BRANCH  30  31
HETATM   31  C   UNL     1       4.606  -7.015  -3.510  1.00  0.00     0.011 A 
HETATM   32  C   UNL     1       5.666  -6.692  -4.418  1.00  0.00     0.004 A 
HETATM   33  C   UNL     1       5.079  -6.217  -5.591  1.00  0.00     0.043 A 
HETATM   34  C   UNL     1       7.074  -6.730  -4.338  1.00  0.00     0.014 A 
HETATM   35  C   UNL     1       5.827  -5.792  -6.695  1.00  0.00     0.030 A 
HETATM   36  N   UNL     1       3.714  -6.267  -5.410  1.00  0.00    -0.364 N 
HETATM   37  C   UNL     1       7.220  -5.834  -6.588  1.00  0.00     0.002 A 
HETATM   38  C   UNL     1       7.838  -6.293  -5.427  1.00  0.00     0.001 A 
HETATM   39  H   UNL     1       3.033  -5.990  -6.105  1.00  0.00     0.165 HD
HETATM   40  C   UNL     1       3.419  -6.740  -4.159  1.00  0.00     0.102 A 
ENDBRANCH  30  31
ENDBRANCH   3  29
TORSDOF 7
