REMARK  7 active torsions:
REMARK  status: ('A' for Active; 'I' for Inactive)
REMARK    1  A    between atoms: C_2  and  C_3 
REMARK    2  A    between atoms: C_6  and  C_7 
REMARK       I    between atoms: C_7  and  N_8 
REMARK    3  A    between atoms: C_14  and  C_15 
REMARK       I    between atoms: C_15  and  N_16 
REMARK    4  A    between atoms: N_16  and  C_17 
REMARK    5  A    between atoms: C_17  and  C_18 
REMARK       I    between atoms: N_25  and  C_26 
REMARK    6  A    between atoms: C_26  and  C_27 
REMARK    7  A    between atoms: C_30  and  O_31 
ROOT
HETATM    1  C   UNL     1       4.379  -5.580  -0.924  1.00  0.00     0.253 C 
HETATM    2  N   UNL     1       5.742  -5.868  -1.108  1.00  0.00    -0.348 N 
HETATM    3  C   UNL     1       6.790  -4.871  -0.917  1.00  0.00     0.131 C 
HETATM    4  C   UNL     1       8.149  -5.477  -0.635  1.00  0.00     0.081 C 
HETATM    5  C   UNL     1       8.566  -6.595  -1.600  1.00  0.00     0.142 C 
HETATM    6  O   UNL     1       9.586  -7.317  -0.845  1.00  0.00    -0.358 OA
HETATM    7  C   UNL     1      10.800  -7.342  -1.591  1.00  0.00     0.206 C 
HETATM    8  C   UNL     1      10.703  -6.214  -2.594  1.00  0.00     0.206 C 
HETATM    9  N   UNL     1       9.263  -6.133  -2.813  1.00  0.00    -0.300 N 
HETATM   10  C   UNL     1       8.635  -5.339  -3.760  1.00  0.00     0.257 C 
HETATM   11  O   UNL     1       7.422  -5.171  -3.820  1.00  0.00    -0.267 OA
HETATM   12  C   UNL     1       7.429  -7.600  -1.811  1.00  0.00     0.081 C 
HETATM   13  C   UNL     1       6.040  -6.997  -1.986  1.00  0.00     0.131 C 
HETATM   14  O   UNL     1       3.482  -6.404  -1.095  1.00  0.00    -0.267 OA
ENDROOT
BRANCH   8  15
HETATM   15  C   UNL     1      11.698  -6.558  -3.704  1.00  0.00     0.243 C 
HETATM   16  N   UNL     1      11.241  -7.316  -4.747  1.00  0.00    -0.354 N 
HETATM   17  H   UNL     1      10.258  -7.548  -4.855  1.00  0.00     0.162 HD
HETATM   18  O   UNL     1      12.890  -6.272  -3.577  1.00  0.00    -0.271 OA
BRANCH  16  19
HETATM   19  C   UNL     1      12.126  -7.705  -5.827  1.00  0.00     0.181 C 
BRANCH  19  20
HETATM   20  C   UNL     1      11.399  -7.913  -7.136  1.00  0.00     0.051 A 
HETATM   21  N   UNL     1      10.068  -8.192  -7.094  1.00  0.00    -0.264 NA
HETATM   22  C   UNL     1       9.445  -8.386  -8.278  1.00  0.00     0.117 A 
HETATM   23  C   UNL     1      10.082  -8.326  -9.507  1.00  0.00     0.019 A 
HETATM   24  C   UNL     1      11.444  -8.055  -9.531  1.00  0.00     0.003 A 
HETATM   25  C   UNL     1      12.116  -7.849  -8.330  1.00  0.00     0.029 A 
ENDBRANCH  19  20
ENDBRANCH  16  19
ENDBRANCH   8  15
BRANCH  10  26
HETATM   26  C   UNL     1       9.409  -4.687  -4.833  1.00  0.00     0.032 A 
HETATM   27  C   UNL     1       9.100  -5.029  -6.152  1.00  0.00     0.020 A 
HETATM   28  C   UNL     1       9.764  -4.405  -7.206  1.00  0.00     0.038 A 
HETATM   29  C   UNL     1      10.719  -3.418  -6.955  1.00  0.00     0.068 A 
HETATM   30  C   UNL     1      11.008  -3.061  -5.634  1.00  0.00     0.038 A 
HETATM   31  C   UNL     1      10.345  -3.685  -4.570  1.00  0.00     0.020 A 
BRANCH  29  32
HETATM   32  O   UNL     1      11.284  -2.882  -8.078  1.00  0.00    -0.356 OA
HETATM   33  C   UNL     1      12.158  -1.776  -7.893  1.00  0.00     0.210 C 
ENDBRANCH  29  32
ENDBRANCH  10  26
BRANCH   1  34
HETATM   34  C   UNL     1       3.972  -4.217  -0.507  1.00  0.00     0.032 A 
HETATM   35  C   UNL     1       4.243  -3.113  -1.321  1.00  0.00     0.017 A 
HETATM   36  C   UNL     1       3.840  -1.838  -0.921  1.00  0.00     0.008 A 
HETATM   37  C   UNL     1       3.128  -1.659   0.275  1.00  0.00    -0.059 A 
HETATM   38  C   UNL     1       2.826  -2.780   1.062  1.00  0.00     0.008 A 
HETATM   39  C   UNL     1       3.242  -4.056   0.672  1.00  0.00     0.017 A 
BRANCH  37  40
HETATM   40  C   UNL     1       2.682  -0.281   0.699  1.00  0.00     0.034 C 
HETATM   41  C   UNL     1       1.598   0.285  -0.207  1.00  0.00     0.010 C 
ENDBRANCH  37  40
ENDBRANCH   1  34
TORSDOF 7
