REMARK  9 active torsions:
REMARK  status: ('A' for Active; 'I' for Inactive)
REMARK    1  A    between atoms: C_2  and  O_3 
REMARK    2  A    between atoms: O_3  and  C_4 
REMARK    3  A    between atoms: C_4  and  C_5 
REMARK    4  A    between atoms: C_11  and  O_12 
REMARK    5  A    between atoms: C_13  and  C_14 
REMARK    6  A    between atoms: C_14  and  N_15 
REMARK    7  A    between atoms: N_22  and  C_23 
REMARK    8  A    between atoms: C_29  and  C_30 
REMARK    9  A    between atoms: C_30  and  N_31 
ROOT
HETATM    1  C   UNL     1       5.357  -0.009   0.416  1.00  0.00     0.077 C 
HETATM    2  C   UNL     1       5.985   1.104  -0.270  1.00  0.00     0.020 A 
HETATM    3  C   UNL     1       6.752   0.542  -1.302  1.00  0.00     0.053 A 
HETATM    4  C   UNL     1       7.542   1.332  -2.161  1.00  0.00     0.053 A 
HETATM    5  C   UNL     1       7.619   2.698  -1.930  1.00  0.00     0.047 A 
HETATM    6 BR   UNL     1       8.745   3.746  -3.036  1.00  0.00    -0.048 Br
HETATM    7  C   UNL     1       6.861   3.285  -0.924  1.00  0.00     0.092 A 
HETATM    8  C   UNL     1       5.970   2.538  -0.113  1.00  0.00     0.016 A 
HETATM    9  N   UNL     1       6.501  -0.828  -1.336  1.00  0.00    -0.312 N 
HETATM   10  C   UNL     1       5.754  -1.192  -0.224  1.00  0.00     0.060 C 
ENDROOT
BRANCH   8  11
HETATM   11  C   UNL     1       5.103   3.259   0.910  1.00  0.00     0.277 C 
BRANCH  11  12
HETATM   12  N   UNL     1       4.682   4.666   0.559  1.00  0.00    -0.063 N 
HETATM   13  H   UNL     1       5.543   5.113   0.197  1.00  0.00     0.280 HD
HETATM   14  C   UNL     1       3.642   4.735  -0.547  1.00  0.00     0.261 C 
HETATM   15  C   UNL     1       3.319   6.201  -0.854  1.00  0.00     0.195 C 
HETATM   16  O   UNL     1       2.861   6.875   0.323  1.00  0.00    -0.388 OA
HETATM   17  C   UNL     1       3.859   6.884   1.350  1.00  0.00     0.195 C 
HETATM   18  C   UNL     1       4.224   5.457   1.773  1.00  0.00     0.261 C 
ENDBRANCH  11  12
ENDBRANCH   8  11
BRANCH   7  19
HETATM   19  O   UNL     1       6.952   4.645  -0.708  1.00  0.00    -0.359 OA
HETATM   20  H   UNL     1       7.685   4.975  -1.278  1.00  0.00     0.218 HD
ENDBRANCH   7  19
BRANCH   1  21
HETATM   21  C   UNL     1       4.509   0.058   1.611  1.00  0.00     0.296 C 
HETATM   22  O   UNL     1       4.617   0.949   2.442  1.00  0.00    -0.259 OA
BRANCH  21  23
HETATM   23  O   UNL     1       3.597  -0.949   1.663  1.00  0.00    -0.318 OA
BRANCH  23  24
HETATM   24  C   UNL     1       2.686  -0.922   2.779  1.00  0.00     0.174 C 
HETATM   25  C   UNL     1       3.307  -1.616   3.976  1.00  0.00     0.034 C 
ENDBRANCH  23  24
ENDBRANCH  21  23
ENDBRANCH   1  21
BRANCH  10  26
HETATM   26  C   UNL     1       5.482  -2.621   0.176  1.00  0.00     0.293 C 
BRANCH  26  27
HETATM   27  N   UNL     1       6.671  -3.559   0.194  1.00  0.00    -0.066 N 
HETATM   28  H   UNL     1       7.085  -3.562  -0.747  1.00  0.00     0.280 HD
HETATM   29  C   UNL     1       7.756  -3.151   1.162  1.00  0.00     0.235 C 
HETATM   30  C   UNL     1       8.953  -4.078   0.997  1.00  0.00     0.028 C 
HETATM   31  C   UNL     1       8.567  -5.541   1.184  1.00  0.00     0.003 C 
HETATM   32  C   UNL     1       7.412  -5.927   0.268  1.00  0.00     0.028 C 
HETATM   33  C   UNL     1       6.225  -4.990   0.434  1.00  0.00     0.235 C 
ENDBRANCH  26  27
ENDBRANCH  10  26
BRANCH   9  34
HETATM   34  C   UNL     1       6.998  -1.726  -2.316  1.00  0.00     0.040 A 
HETATM   35  C   UNL     1       8.373  -1.789  -2.570  1.00  0.00     0.030 A 
HETATM   36  C   UNL     1       8.861  -2.734  -3.472  1.00  0.00     0.002 A 
HETATM   37  C   UNL     1       7.983  -3.604  -4.119  1.00  0.00     0.000 A 
HETATM   38  C   UNL     1       6.612  -3.531  -3.873  1.00  0.00     0.002 A 
HETATM   39  C   UNL     1       6.113  -2.594  -2.970  1.00  0.00     0.030 A 
ENDBRANCH   9  34
TORSDOF 9
