REMARK  7 active torsions:
REMARK  status: ('A' for Active; 'I' for Inactive)
REMARK    1  A    between atoms: O_2  and  C_3 
REMARK    2  A    between atoms: C_4  and  C_5 
REMARK    3  A    between atoms: C_5  and  N_6 
REMARK    4  A    between atoms: C_5  and  C_12 
REMARK    5  A    between atoms: C_12  and  N_13 
REMARK       I    between atoms: N_13  and  C_14 
REMARK       I    between atoms: C_14  and  N_15 
REMARK    6  A    between atoms: N_15  and  C_16 
REMARK    7  A    between atoms: C_17  and  O_18 
ROOT
HETATM    1  N   UNL     1       4.834   2.829  -4.062  1.00  0.00    -0.341 N 
HETATM    2  C   UNL     1       5.509   3.812  -3.407  1.00  0.00     0.316 C 
HETATM    3  N   UNL     1       5.536   4.987  -4.085  1.00  0.00    -0.332 N 
HETATM    4  O   UNL     1       6.024   3.626  -2.310  1.00  0.00    -0.247 OA
HETATM    5  H   UNL     1       4.427   3.067  -4.959  1.00  0.00     0.164 HD
HETATM    6  H   UNL     1       5.427   4.955  -5.090  1.00  0.00     0.165 HD
ENDROOT
BRANCH   1   7
HETATM    7  C   UNL     1       4.898   1.417  -3.689  1.00  0.00     0.162 C 
BRANCH   7   8
HETATM    8  C   UNL     1       4.181   1.028  -2.352  1.00  0.00     0.241 C 
BRANCH   8   9
HETATM    9  C   UNL     1       3.850  -0.462  -2.289  1.00  0.00     0.007 A 
HETATM   10  C   UNL     1       2.566  -0.899  -1.897  1.00  0.00     0.076 A 
HETATM   11  C   UNL     1       2.290  -2.267  -1.797  1.00  0.00     0.037 A 
HETATM   12  C   UNL     1       3.264  -3.212  -2.116  1.00  0.00     0.003 A 
HETATM   13  C   UNL     1       4.518  -2.799  -2.546  1.00  0.00     0.001 A 
HETATM   14  C   UNL     1       4.807  -1.438  -2.637  1.00  0.00     0.012 A 
BRANCH  10  15
HETATM   15  O   UNL     1       1.651   0.084  -1.618  1.00  0.00    -0.355 OA
HETATM   16  C   UNL     1       0.280  -0.309  -1.556  1.00  0.00     0.210 C 
ENDBRANCH  10  15
ENDBRANCH   8   9
BRANCH   8  17
HETATM   17  N   UNL     1       4.952   1.561  -1.139  1.00  0.00    -0.061 N 
HETATM   18  H   UNL     1       5.221   2.529  -1.409  1.00  0.00     0.280 HD
HETATM   19  C   UNL     1       6.260   0.917  -0.757  1.00  0.00     0.236 C 
HETATM   20  C   UNL     1       5.992   0.297   0.597  1.00  0.00     0.029 C 
HETATM   21  C   UNL     1       5.073   1.313   1.244  1.00  0.00     0.029 C 
HETATM   22  C   UNL     1       4.123   1.685   0.121  1.00  0.00     0.236 C 
ENDBRANCH   8  17
ENDBRANCH   7   8
ENDBRANCH   1   7
BRANCH   3  23
HETATM   23  C   UNL     1       6.378   6.082  -3.628  1.00  0.00     0.149 C 
HETATM   24  C   UNL     1       7.892   5.842  -3.923  1.00  0.00     0.149 C 
HETATM   25  C   UNL     1       8.506   7.218  -4.236  1.00  0.00     0.073 C 
HETATM   26  C   UNL     1       7.316   7.988  -4.727  1.00  0.00    -0.047 A 
HETATM   27  C   UNL     1       6.116   7.356  -4.381  1.00  0.00    -0.026 A 
HETATM   28  C   UNL     1       7.322   9.204  -5.391  1.00  0.00     0.008 A 
HETATM   29  C   UNL     1       4.895   7.941  -4.687  1.00  0.00     0.010 A 
HETATM   30  C   UNL     1       4.892   9.162  -5.365  1.00  0.00     0.001 A 
HETATM   31  C   UNL     1       6.098   9.787  -5.717  1.00  0.00     0.001 A 
BRANCH  24  32
HETATM   32  O   UNL     1       8.076   4.982  -5.063  1.00  0.00    -0.393 OA
HETATM   33  H   UNL     1       7.852   4.083  -4.773  1.00  0.00     0.210 HD
ENDBRANCH  24  32
ENDBRANCH   3  23
TORSDOF 7
