REMARK  7 active torsions:
REMARK  status: ('A' for Active; 'I' for Inactive)
REMARK    1  A    between atoms: C_2  and  O_3 
REMARK    2  A    between atoms: O_3  and  C_4 
REMARK    3  A    between atoms: C_4  and  C_5 
REMARK    4  A    between atoms: C_6  and  C_7 
REMARK    5  A    between atoms: C_18  and  C_19 
REMARK    6  A    between atoms: C_19  and  N_20 
REMARK    7  A    between atoms: N_20  and  C_21 
ROOT
HETATM    1  C   UNL     1       5.532  -0.505  -0.451  1.00  0.00     0.068 A 
HETATM    2  C   UNL     1       5.142   0.940  -0.564  1.00  0.00     0.161 A 
HETATM    3  N   UNL     1       5.934   1.776   0.318  1.00  0.00    -0.330 N 
HETATM    4  C   UNL     1       6.997   1.362   1.046  1.00  0.00     0.321 A 
HETATM    5  O   UNL     1       7.663   2.144   1.716  1.00  0.00    -0.247 OA
HETATM    6  N   UNL     1       7.285   0.033   1.002  1.00  0.00    -0.311 N 
HETATM    7  C   UNL     1       6.579  -0.916   0.290  1.00  0.00     0.041 A 
HETATM    8  H   UNL     1       5.751   2.770   0.348  1.00  0.00     0.165 HD
HETATM    9  H   UNL     1       8.079  -0.242   1.569  1.00  0.00     0.170 HD
ENDROOT
BRANCH   7  10
HETATM   10  C   UNL     1       7.061  -2.345   0.429  1.00  0.00     0.150 C 
BRANCH  10  11
HETATM   11  N   UNL     1       6.412  -2.919   1.603  1.00  0.00    -0.287 NA
HETATM   12  H   UNL     1       6.508  -2.322   2.421  1.00  0.00     0.128 HD
BRANCH  11  13
HETATM   13  C   UNL     1       6.668  -4.264   1.906  1.00  0.00     0.010 A 
HETATM   14  C   UNL     1       6.577  -4.689   3.237  1.00  0.00     0.047 A 
HETATM   15  C   UNL     1       6.772  -6.032   3.589  1.00  0.00     0.041 A 
HETATM   16 CL   UNL     1       6.663  -6.451   5.263  1.00  0.00    -0.084 Cl
HETATM   17  C   UNL     1       7.038  -6.997   2.611  1.00  0.00    -0.040 A 
HETATM   18  C   UNL     1       7.240  -8.447   2.944  1.00  0.00     0.050 C 
HETATM   19  C   UNL     1       7.067  -6.588   1.273  1.00  0.00     0.010 A 
HETATM   20  C   UNL     1       6.873  -5.244   0.929  1.00  0.00     0.024 A 
ENDBRANCH  11  13
ENDBRANCH  10  11
ENDBRANCH   7  10
BRANCH   1  21
HETATM   21  C   UNL     1       4.704  -1.472  -1.205  1.00  0.00     0.293 C 
HETATM   22  O   UNL     1       5.150  -2.356  -1.917  1.00  0.00    -0.259 OA
BRANCH  21  23
HETATM   23  O   UNL     1       3.392  -1.203  -0.987  1.00  0.00    -0.318 OA
BRANCH  23  24
HETATM   24  C   UNL     1       2.465  -2.101  -1.614  1.00  0.00     0.174 C 
HETATM   25  C   UNL     1       2.221  -1.699  -3.057  1.00  0.00     0.034 C 
ENDBRANCH  23  24
ENDBRANCH  21  23
ENDBRANCH   1  21
BRANCH   2  26
HETATM   26  C   UNL     1       5.245   1.460  -1.993  1.00  0.00    -0.031 A 
HETATM   27  C   UNL     1       4.082   1.769  -2.718  1.00  0.00     0.011 A 
HETATM   28  C   UNL     1       4.164   2.202  -4.044  1.00  0.00     0.024 A 
HETATM   29  C   UNL     1       5.409   2.331  -4.656  1.00  0.00     0.034 A 
HETATM   30 CL   UNL     1       5.507   2.857  -6.291  1.00  0.00    -0.084 Cl
HETATM   31  C   UNL     1       6.574   2.034  -3.953  1.00  0.00     0.024 A 
HETATM   32  C   UNL     1       6.493   1.600  -2.628  1.00  0.00     0.011 A 
ENDBRANCH   2  26
TORSDOF 7
