REMARK  5 active torsions:
REMARK  status: ('A' for Active; 'I' for Inactive)
REMARK    1  A    between atoms: C_4  and  N_5 
REMARK       I    between atoms: N_5  and  C_6 
REMARK    2  A    between atoms: C_6  and  C_7 
REMARK    3  A    between atoms: C_7  and  N_8 
REMARK    4  A    between atoms: N_8  and  C_11 
REMARK    5  A    between atoms: C_11  and  C_12 
ROOT
HETATM    1  N   UNL     1       4.868   2.220  -0.198  1.00  0.00    -0.324 N 
HETATM    2  C   UNL     1       4.175   3.379  -0.424  1.00  0.00     0.248 C 
HETATM    3  O   UNL     1       2.961   3.514  -0.562  1.00  0.00    -0.271 OA
HETATM    4  H   UNL     1       5.891   2.214  -0.176  1.00  0.00     0.169 HD
ENDROOT
BRANCH   1   5
HETATM    5  C   UNL     1       4.358   0.902  -0.061  1.00  0.00     0.065 A 
HETATM    6  C   UNL     1       2.994   0.593  -0.030  1.00  0.00     0.038 A 
HETATM    7  C   UNL     1       2.576  -0.735   0.106  1.00  0.00    -0.059 A 
HETATM    8  C   UNL     1       1.116  -1.086   0.146  1.00  0.00     0.048 C 
HETATM    9  C   UNL     1       3.537  -1.746   0.204  1.00  0.00     0.020 A 
HETATM   10  C   UNL     1       4.907  -1.440   0.173  1.00  0.00    -0.005 A 
HETATM   11  C   UNL     1       5.331  -0.103   0.044  1.00  0.00     0.093 A 
HETATM   12  C   UNL     1       5.887  -2.436   0.264  1.00  0.00     0.015 A 
HETATM   13  N   UNL     1       6.643   0.242   0.009  1.00  0.00    -0.258 NA
HETATM   14  C   UNL     1       7.556  -0.753   0.099  1.00  0.00     0.117 A 
HETATM   15  C   UNL     1       7.232  -2.090   0.226  1.00  0.00     0.020 A 
ENDBRANCH   1   5
BRANCH   2  16
HETATM   16  C   UNL     1       5.062   4.620  -0.537  1.00  0.00     0.335 C 
BRANCH  16  17
HETATM   17  N   UNL     1       4.236   5.847  -0.849  1.00  0.00    -0.059 N 
HETATM   18  H   UNL     1       4.795   6.559  -1.341  1.00  0.00     0.278 HD
HETATM   19  H   UNL     1       3.497   5.542  -1.511  1.00  0.00     0.278 HD
BRANCH  17  20
HETATM   20  C   UNL     1       3.522   6.471   0.348  1.00  0.00     0.349 C 
BRANCH  20  21
HETATM   21  C   UNL     1       2.656   7.664  -0.074  1.00  0.00     0.411 C 
HETATM   22  F   UNL     1       3.441   8.595  -0.663  1.00  0.00    -0.169 F 
HETATM   23  F   UNL     1       1.742   7.268  -0.985  1.00  0.00    -0.169 F 
HETATM   24  F   UNL     1       2.027   8.223   0.970  1.00  0.00    -0.169 F 
ENDBRANCH  20  21
ENDBRANCH  17  20
ENDBRANCH  16  17
ENDBRANCH   2  16
TORSDOF 5
