REMARK  3 active torsions:
REMARK  status: ('A' for Active; 'I' for Inactive)
REMARK    1  A    between atoms: C_7  and  C_8 
REMARK    2  A    between atoms: C_17  and  C_18 
REMARK       I    between atoms: C_18  and  N_19 
REMARK    3  A    between atoms: N_19  and  C_20 
ROOT
HETATM    1  C   UNL     1       2.642  -2.791   0.070  1.00  0.00     0.206 C 
HETATM    2  N   UNL     1       2.190  -3.335  -1.216  1.00  0.00    -0.084 N 
HETATM    3  C   UNL     1       2.487  -4.595  -1.660  1.00  0.00     0.725 A 
HETATM    4  N   UNL     1       1.935  -4.787  -2.830  1.00  0.00    -0.054 NA
HETATM    5  C   UNL     1       1.329  -3.582  -3.080  1.00  0.00     0.275 A 
HETATM    6  N   UNL     1       1.473  -2.649  -2.132  1.00  0.00    -0.149 NA
HETATM    7  N   UNL     1       3.279  -5.389  -0.913  1.00  0.00    -0.192 N 
HETATM    8  C   UNL     1       3.969  -4.928   0.205  1.00  0.00     0.037 C 
HETATM    9  C   UNL     1       5.060  -5.837   0.714  1.00  0.00     0.070 C 
HETATM   10  C   UNL     1       3.683  -3.701   0.709  1.00  0.00     0.063 C 
HETATM   11  H   UNL     1       3.581  -6.271  -1.320  1.00  0.00     0.184 HD
ENDROOT
BRANCH  10  12
HETATM   12  C   UNL     1       4.421  -3.069   1.836  1.00  0.00     0.256 C 
HETATM   13  N   UNL     1       4.447  -3.837   2.979  1.00  0.00    -0.323 N 
HETATM   14  H   UNL     1       3.928  -4.706   2.963  1.00  0.00     0.169 HD
HETATM   15  O   UNL     1       4.899  -1.954   1.671  1.00  0.00    -0.267 OA
BRANCH  13  16
HETATM   16  C   UNL     1       5.154  -3.569   4.171  1.00  0.00     0.035 A 
HETATM   17  C   UNL     1       5.890  -2.404   4.398  1.00  0.00     0.029 A 
HETATM   18  C   UNL     1       6.589  -2.229   5.597  1.00  0.00     0.002 A 
HETATM   19  C   UNL     1       6.563  -3.218   6.576  1.00  0.00     0.000 A 
HETATM   20  C   UNL     1       5.832  -4.383   6.361  1.00  0.00     0.002 A 
HETATM   21  C   UNL     1       5.126  -4.555   5.167  1.00  0.00     0.029 A 
ENDBRANCH  13  16
ENDBRANCH  10  12
BRANCH   1  22
HETATM   22  C   UNL     1       1.452  -2.595   0.974  1.00  0.00     0.015 A 
HETATM   23  C   UNL     1       1.029  -1.440   1.620  1.00  0.00     0.036 A 
HETATM   24  C   UNL     1       1.599  -0.068   1.637  1.00  0.00     0.070 C 
HETATM   25  N   UNL     1      -0.128  -1.781   2.277  1.00  0.00    -0.278 N 
HETATM   26  C   UNL     1      -1.006  -0.920   3.035  1.00  0.00     0.179 C 
HETATM   27  N   UNL     1      -0.434  -3.087   2.174  1.00  0.00    -0.185 NA
HETATM   28  C   UNL     1       0.499  -3.571   1.357  1.00  0.00     0.150 A 
ENDBRANCH   1  22
TORSDOF 3
