REMARK  6 active torsions:
REMARK  status: ('A' for Active; 'I' for Inactive)
REMARK    1  A    between atoms: C_8  and  C_9 
REMARK    2  A    between atoms: C_9  and  C_10 
REMARK    3  A    between atoms: C_10  and  N_11 
REMARK       I    between atoms: N_11  and  C_12 
REMARK    4  A    between atoms: C_12  and  C_13 
REMARK    5  A    between atoms: C_18  and  C_19 
REMARK    6  A    between atoms: C_29  and  C_30 
ROOT
HETATM    1  C   UNL     1       0.749  -5.863   0.020  1.00  0.00     0.148 A 
HETATM    2  N   UNL     1       1.626  -6.852   0.315  1.00  0.00    -0.165 NA
HETATM    3  N   UNL     1       2.816  -6.228   0.286  1.00  0.00    -0.240 N 
HETATM    4  C   UNL     1       2.748  -4.911  -0.069  1.00  0.00     0.123 A 
HETATM    5  N   UNL     1       3.862  -4.175  -0.251  1.00  0.00    -0.366 N 
HETATM    6  C   UNL     1       5.193  -4.774  -0.331  1.00  0.00     0.118 C 
HETATM    7  C   UNL     1       5.120  -6.310  -0.484  1.00  0.00     0.066 C 
HETATM    8  C   UNL     1       4.070  -6.937   0.449  1.00  0.00     0.221 C 
HETATM    9  C   UNL     1       1.417  -4.626  -0.196  1.00  0.00     0.088 A 
HETATM   10  H   UNL     1       3.804  -3.194  -0.522  1.00  0.00     0.161 HD
ENDROOT
BRANCH   1  11
HETATM   11  C   UNL     1      -0.699  -6.094  -0.092  1.00  0.00     0.272 C 
HETATM   12  N   UNL     1      -1.081  -7.382   0.212  1.00  0.00    -0.355 N 
HETATM   13  H   UNL     1      -0.366  -7.945   0.667  1.00  0.00     0.162 HD
HETATM   14  O   UNL     1      -1.488  -5.216  -0.427  1.00  0.00    -0.266 OA
BRANCH  12  15
HETATM   15  C   UNL     1      -2.476  -7.754   0.292  1.00  0.00     0.127 C 
BRANCH  15  16
HETATM   16  C   UNL     1      -2.690  -9.256   0.477  1.00  0.00     0.060 C 
BRANCH  16  17
HETATM   17  C   UNL     1      -2.297  -9.733   1.842  1.00  0.00    -0.029 A 
HETATM   18  C   UNL     1      -1.063 -10.355   2.220  1.00  0.00    -0.002 A 
HETATM   19  C   UNL     1       0.108 -10.720   1.525  1.00  0.00     0.014 A 
HETATM   20  C   UNL     1      -1.128 -10.611   3.590  1.00  0.00     0.042 A 
HETATM   21  C   UNL     1       1.164 -11.321   2.220  1.00  0.00     0.001 A 
HETATM   22  C   UNL     1       1.068 -11.561   3.589  1.00  0.00     0.002 A 
HETATM   23  C   UNL     1      -0.082 -11.210   4.301  1.00  0.00     0.030 A 
HETATM   24  N   UNL     1      -2.354 -10.168   4.028  1.00  0.00    -0.365 N 
HETATM   25  H   UNL     1      -2.674 -10.223   4.984  1.00  0.00     0.165 HD
HETATM   26  C   UNL     1      -3.067  -9.643   2.985  1.00  0.00     0.096 A 
ENDBRANCH  16  17
ENDBRANCH  15  16
ENDBRANCH  12  15
ENDBRANCH   1  11
BRANCH   8  27
HETATM   27  C   UNL     1       4.494  -6.924   1.899  1.00  0.00     0.409 C 
HETATM   28  F   UNL     1       3.611  -7.551   2.705  1.00  0.00    -0.169 F 
HETATM   29  F   UNL     1       5.674  -7.586   2.033  1.00  0.00    -0.169 F 
HETATM   30  F   UNL     1       4.695  -5.684   2.392  1.00  0.00    -0.169 F 
ENDBRANCH   8  27
BRANCH   6  31
HETATM   31  C   UNL     1       5.936  -4.127  -1.489  1.00  0.00    -0.033 A 
HETATM   32  C   UNL     1       5.423  -4.198  -2.800  1.00  0.00     0.049 A 
HETATM   33  C   UNL     1       6.111  -3.564  -3.811  1.00  0.00     0.105 A 
HETATM   34  C   UNL     1       7.269  -2.867  -3.571  1.00  0.00     0.105 A 
HETATM   35  O   UNL     1       5.746  -3.534  -5.120  1.00  0.00    -0.323 OA
HETATM   36  O   UNL     1       7.781  -2.308  -4.700  1.00  0.00    -0.323 OA
HETATM   37  C   UNL     1       7.805  -2.767  -2.305  1.00  0.00     0.040 A 
HETATM   38  C   UNL     1       6.806  -2.728  -5.677  1.00  0.00     0.352 A 
HETATM   39  C   UNL     1       7.130  -3.404  -1.257  1.00  0.00     0.012 A 
ENDBRANCH   6  31
TORSDOF 6
