REMARK  5 active torsions:
REMARK  status: ('A' for Active; 'I' for Inactive)
REMARK    1  A    between atoms: C_2  and  N_4 
REMARK    2  A    between atoms: N_4  and  C_5 
REMARK       I    between atoms: N_4  and  C_12 
REMARK    3  A    between atoms: C_5  and  C_6 
REMARK       I    between atoms: C_12  and  N_14 
REMARK    4  A    between atoms: N_14  and  C_15 
REMARK    5  A    between atoms: C_18  and  C_21 
ROOT
HETATM    1  N   UNL     1       3.041   1.404  -0.370  1.00  0.00    -0.326 N 
HETATM    2  C   UNL     1       4.412   1.567  -0.128  1.00  0.00     0.323 C 
HETATM    3  O   UNL     1       5.060   0.741   0.508  1.00  0.00    -0.247 OA
HETATM    4  N   UNL     1       4.947   2.728  -0.646  1.00  0.00    -0.309 N 
HETATM    5  H   UNL     1       4.296   3.486  -0.785  1.00  0.00     0.170 HD
ENDROOT
BRANCH   4   6
HETATM    6  C   UNL     1       6.310   3.074  -0.739  1.00  0.00     0.036 A 
HETATM    7  C   UNL     1       7.354   2.168  -0.559  1.00  0.00     0.030 A 
HETATM    8  C   UNL     1       8.686   2.583  -0.685  1.00  0.00     0.014 A 
HETATM    9  C   UNL     1       9.000   3.910  -1.000  1.00  0.00    -0.023 A 
HETATM   10  C   UNL     1       7.949   4.813  -1.196  1.00  0.00     0.014 A 
HETATM   11  C   UNL     1       6.617   4.398  -1.069  1.00  0.00     0.030 A 
BRANCH   9  12
HETATM   12  C   UNL     1      10.379   4.349  -1.133  1.00  0.00     0.010 A 
HETATM   13  C   UNL     1      10.948   5.409  -1.879  1.00  0.00     0.152 A 
HETATM   14  N   UNL     1      12.272   5.501  -1.725  1.00  0.00    -0.187 NA
HETATM   15  N   UNL     1      12.558   4.501  -0.877  1.00  0.00    -0.289 N 
HETATM   16  H   UNL     1      13.524   4.367  -0.598  1.00  0.00     0.188 HD
HETATM   17  C   UNL     1      11.462   3.784  -0.492  1.00  0.00     0.123 A 
ENDBRANCH   9  12
ENDBRANCH   4   6
BRANCH   1  18
HETATM   18  C   UNL     1       2.322   0.251   0.211  1.00  0.00     0.081 C 
HETATM   19  C   UNL     1       2.819  -1.086  -0.344  1.00  0.00     0.032 C 
HETATM   20  C   UNL     1       2.318   0.255   1.742  1.00  0.00     0.032 C 
ENDBRANCH   1  18
BRANCH   1  21
HETATM   21  C   UNL     1       2.309   2.195  -1.366  1.00  0.00     0.166 C 
BRANCH  21  22
HETATM   22  C   UNL     1       1.727   3.497  -0.855  1.00  0.00    -0.040 A 
HETATM   23  C   UNL     1       1.050   4.329  -1.763  1.00  0.00     0.009 A 
HETATM   24  C   UNL     1       0.512   5.551  -1.353  1.00  0.00     0.001 A 
HETATM   25  C   UNL     1       0.643   5.961  -0.029  1.00  0.00     0.000 A 
HETATM   26  C   UNL     1       1.307   5.148   0.885  1.00  0.00     0.001 A 
HETATM   27  C   UNL     1       1.844   3.926   0.476  1.00  0.00     0.009 A 
ENDBRANCH  21  22
ENDBRANCH   1  21
TORSDOF 5
