REMARK  10 active torsions:
REMARK  status: ('A' for Active; 'I' for Inactive)
REMARK    1  A    between atoms: C_2  and  C_3 
REMARK    2  A    between atoms: C_3  and  O_4 
REMARK    3  A    between atoms: O_4  and  C_5 
REMARK    4  A    between atoms: C_8  and  C_9 
REMARK       I    between atoms: C_9  and  N_10 
REMARK    5  A    between atoms: N_10  and  C_11 
REMARK    6  A    between atoms: C_11  and  N_12 
REMARK    7  A    between atoms: N_12  and  C_13 
REMARK    8  A    between atoms: C_16  and  N_17 
REMARK    9  A    between atoms: N_20  and  C_22 
REMARK   10  A    between atoms: C_22  and  C_23 
ROOT
HETATM    1  C   UNL     1       7.217  -0.170   4.688  1.00  0.00     0.034 A 
HETATM    2  C   UNL     1       7.748  -1.439   4.459  1.00  0.00     0.032 A 
HETATM    3  C   UNL     1       7.111  -2.337   3.591  1.00  0.00     0.031 A 
HETATM    4  C   UNL     1       5.909  -2.013   2.946  1.00  0.00     0.030 A 
HETATM    5  C   UNL     1       5.383  -0.742   3.202  1.00  0.00     0.031 A 
HETATM    6  C   UNL     1       6.030   0.172   4.050  1.00  0.00     0.032 A 
ENDROOT
BRANCH   1   7
HETATM    7  N   UNL     1       7.865   0.632   5.647  1.00  0.00    -0.333 N 
HETATM    8  H   UNL     1       8.510   0.129   6.260  1.00  0.00     0.168 HD
BRANCH   7   9
HETATM    9  C   UNL     1       7.741   1.962   5.969  1.00  0.00     0.179 C 
HETATM   10  S   UNL     1       7.184   3.216   5.013  1.00  0.00    -0.040 SA
BRANCH   9  11
HETATM   11  N   UNL     1       8.136   2.287   7.257  1.00  0.00    -0.299 N 
HETATM   12  C   UNL     1       8.492   1.407   8.269  1.00  0.00     0.257 C 
HETATM   13  O   UNL     1       8.832   0.243   8.081  1.00  0.00    -0.267 OA
HETATM   14  H   UNL     1       7.912   3.240   7.509  1.00  0.00     0.171 HD
BRANCH  12  15
HETATM   15  C   UNL     1       8.410   1.947   9.647  1.00  0.00     0.032 A 
HETATM   16  C   UNL     1       7.842   1.134  10.633  1.00  0.00     0.020 A 
HETATM   17  C   UNL     1       7.680   1.615  11.935  1.00  0.00     0.038 A 
HETATM   18  C   UNL     1       8.099   2.906  12.260  1.00  0.00     0.068 A 
HETATM   19  C   UNL     1       8.698   3.701  11.277  1.00  0.00     0.038 A 
HETATM   20  C   UNL     1       8.854   3.231   9.970  1.00  0.00     0.020 A 
BRANCH  18  21
HETATM   21  O   UNL     1       7.991   3.497  13.488  1.00  0.00    -0.351 OA
BRANCH  21  22
HETATM   22  C   UNL     1       7.254   2.788  14.486  1.00  0.00     0.175 C 
BRANCH  22  23
HETATM   23  C   UNL     1       7.193   3.660  15.736  1.00  0.00     0.022 C 
HETATM   24  C   UNL     1       6.403   2.994  16.848  1.00  0.00     0.007 C 
ENDBRANCH  22  23
ENDBRANCH  21  22
ENDBRANCH  18  21
ENDBRANCH  12  15
ENDBRANCH   9  11
ENDBRANCH   7   9
ENDBRANCH   1   7
BRANCH   4  25
HETATM   25  N   UNL     1       5.274  -2.960   2.147  1.00  0.00    -0.378 N 
HETATM   26  C   UNL     1       6.057  -3.541   1.040  1.00  0.00     0.150 C 
HETATM   27  C   UNL     1       5.739  -2.824  -0.290  1.00  0.00     0.255 C 
HETATM   28  N   UNL     1       4.229  -2.836  -0.555  1.00  0.00    -0.064 N 
HETATM   29  H   UNL     1       3.949  -3.823  -0.601  1.00  0.00     0.280 HD
HETATM   30  C   UNL     1       3.471  -2.199   0.606  1.00  0.00     0.255 C 
HETATM   31  C   UNL     1       3.821  -2.904   1.931  1.00  0.00     0.150 C 
BRANCH  28  32
HETATM   32  C   UNL     1       3.855  -2.207  -1.873  1.00  0.00     0.273 C 
BRANCH  32  33
HETATM   33  C   UNL     1       4.288  -3.029  -3.055  1.00  0.00    -0.033 A 
HETATM   34  C   UNL     1       3.647  -4.242  -3.353  1.00  0.00     0.009 A 
HETATM   35  C   UNL     1       4.066  -5.016  -4.436  1.00  0.00     0.001 A 
HETATM   36  C   UNL     1       5.126  -4.585  -5.232  1.00  0.00     0.000 A 
HETATM   37  C   UNL     1       5.765  -3.380  -4.950  1.00  0.00     0.001 A 
HETATM   38  C   UNL     1       5.350  -2.604  -3.868  1.00  0.00     0.009 A 
ENDBRANCH  32  33
ENDBRANCH  28  32
ENDBRANCH   4  25
TORSDOF 10
