REMARK  7 active torsions:
REMARK  status: ('A' for Active; 'I' for Inactive)
REMARK    1  A    between atoms: C_2  and  N_3 
REMARK    2  A    between atoms: C_2  and  C_26 
REMARK       I    between atoms: N_3  and  C_4 
REMARK    3  A    between atoms: C_4  and  C_5 
REMARK    4  A    between atoms: C_8  and  C_9 
REMARK       I    between atoms: C_9  and  N_10 
REMARK    5  A    between atoms: N_10  and  C_11 
REMARK    6  A    between atoms: N_20  and  C_21 
REMARK    7  A    between atoms: C_28  and  O_29 
ROOT
HETATM    1  C   UNL     1       2.202  -1.921   1.795  1.00  0.00     0.098 A 
HETATM    2  C   UNL     1       2.021  -0.528   2.305  1.00  0.00     0.206 A 
HETATM    3  O   UNL     1       2.747   0.385   1.906  1.00  0.00    -0.286 OA
HETATM    4  C   UNL     1       0.955  -0.264   3.319  1.00  0.00     0.098 A 
HETATM    5  C   UNL     1       0.229  -1.321   3.722  1.00  0.00     0.112 A 
HETATM    6  N   UNL     1       0.403  -2.602   3.238  1.00  0.00    -0.360 N 
HETATM    7  C   UNL     1       1.394  -2.862   2.312  1.00  0.00     0.112 A 
ENDROOT
BRANCH   1   8
HETATM    8  C   UNL     1       3.217  -2.318   0.777  1.00  0.00     0.257 C 
HETATM    9  N   UNL     1       4.037  -1.307   0.353  1.00  0.00    -0.348 N 
HETATM   10  H   UNL     1       3.867  -0.367   0.710  1.00  0.00     0.163 HD
HETATM   11  O   UNL     1       3.297  -3.469   0.358  1.00  0.00    -0.267 OA
BRANCH   9  12
HETATM   12  C   UNL     1       5.076  -1.467  -0.650  1.00  0.00     0.114 C 
HETATM   13  C   UNL     1       6.245  -2.308  -0.131  1.00  0.00     0.037 C 
BRANCH  12  14
HETATM   14  C   UNL     1       5.561  -0.101  -1.113  1.00  0.00    -0.033 A 
HETATM   15  C   UNL     1       5.495   0.249  -2.475  1.00  0.00     0.046 A 
HETATM   16  C   UNL     1       5.934   1.502  -2.911  1.00  0.00     0.068 A 
HETATM   17  C   UNL     1       6.429   2.419  -1.981  1.00  0.00     0.037 A 
HETATM   18  C   UNL     1       6.502   2.089  -0.630  1.00  0.00     0.003 A 
HETATM   19  C   UNL     1       6.076   0.834  -0.199  1.00  0.00     0.009 A 
BRANCH  16  20
HETATM   20  O   UNL     1       5.928   1.954  -4.203  1.00  0.00    -0.356 OA
HETATM   21  C   UNL     1       5.563   1.019  -5.210  1.00  0.00     0.210 C 
ENDBRANCH  16  20
ENDBRANCH  12  14
ENDBRANCH   9  12
ENDBRANCH   1   8
BRANCH   4  22
HETATM   22  C   UNL     1       0.662   1.080   3.895  1.00  0.00     0.257 C 
HETATM   23  N   UNL     1       1.575   2.053   3.576  1.00  0.00    -0.352 N 
HETATM   24  H   UNL     1       2.306   1.811   2.907  1.00  0.00     0.163 HD
HETATM   25  O   UNL     1      -0.327   1.281   4.592  1.00  0.00    -0.267 OA
BRANCH  23  26
HETATM   26  C   UNL     1       1.385   3.476   3.847  1.00  0.00     0.084 C 
HETATM   27  C   UNL     1       2.732   4.060   4.289  1.00  0.00     0.025 C 
HETATM   28  C   UNL     1       2.780   5.574   4.483  1.00  0.00     0.002 C 
HETATM   29  C   UNL     1       2.765   6.332   3.160  1.00  0.00     0.000 C 
HETATM   30  C   UNL     1       1.376   6.627   2.603  1.00  0.00     0.000 C 
HETATM   31  C   UNL     1       0.305   5.565   2.829  1.00  0.00     0.002 C 
HETATM   32  C   UNL     1       0.770   4.131   2.600  1.00  0.00     0.025 C 
ENDBRANCH  23  26
ENDBRANCH   4  22
BRANCH   6  33
HETATM   33  C   UNL     1      -0.306  -3.718   3.879  1.00  0.00     0.089 A 
HETATM   34  C   UNL     1      -1.811  -3.793   3.891  1.00  0.00     0.028 A 
HETATM   35  C   UNL     1      -1.023  -4.777   3.081  1.00  0.00     0.028 A 
ENDBRANCH   6  33
TORSDOF 7
