REMARK  6 active torsions:
REMARK  status: ('A' for Active; 'I' for Inactive)
REMARK    1  A    between atoms: C_5  and  N_6 
REMARK    2  A    between atoms: N_6  and  C_7 
REMARK    3  A    between atoms: C_7  and  C_8 
REMARK    4  A    between atoms: N_10  and  C_12 
REMARK    5  A    between atoms: C_12  and  C_13 
REMARK    6  A    between atoms: C_14  and  O_15 
ROOT
HETATM    1  C   UNL     1       5.535   4.887  -0.763  1.00  0.00     0.031 C 
HETATM    2  C   UNL     1       6.933   4.850  -0.147  1.00  0.00     0.241 C 
HETATM    3  N   UNL     1       7.364   6.293  -0.038  1.00  0.00    -0.067 N 
HETATM    4  H   UNL     1       7.712   6.427   0.931  1.00  0.00     0.280 HD
HETATM    5  C   UNL     1       6.159   7.169  -0.239  1.00  0.00     0.235 C 
HETATM    6  C   UNL     1       4.982   6.203  -0.215  1.00  0.00     0.035 C 
ENDROOT
BRANCH   1   7
HETATM    7  C   UNL     1       5.540   4.833  -2.302  1.00  0.00     0.127 C 
BRANCH   7   8
HETATM    8  N   UNL     1       6.193   3.616  -2.768  1.00  0.00    -0.376 N 
HETATM    9  H   UNL     1       6.945   3.800  -3.442  1.00  0.00     0.161 HD
BRANCH   8  10
HETATM   10  C   UNL     1       5.563   2.421  -3.102  1.00  0.00     0.101 A 
HETATM   11  N   UNL     1       4.229   2.265  -3.114  1.00  0.00    -0.347 N 
HETATM   12  C   UNL     1       3.615   1.105  -3.430  1.00  0.00     0.007 A 
HETATM   13  H   UNL     1       3.644   3.063  -2.902  1.00  0.00     0.167 HD
HETATM   14  C   UNL     1       2.120   1.059  -3.461  1.00  0.00     0.068 C 
HETATM   15  C   UNL     1       4.385  -0.015  -3.737  1.00  0.00     0.025 A 
HETATM   16  C   UNL     1       5.768   0.084  -3.713  1.00  0.00     0.006 A 
HETATM   17  C   UNL     1       6.357   1.302  -3.395  1.00  0.00     0.048 A 
ENDBRANCH   8  10
ENDBRANCH   7   8
ENDBRANCH   1   7
BRANCH   3  18
HETATM   18  C   UNL     1       8.563   6.691  -0.865  1.00  0.00     0.276 C 
BRANCH  18  19
HETATM   19  C   UNL     1       9.792   5.881  -0.561  1.00  0.00     0.002 A 
HETATM   20  C   UNL     1      10.280   5.772   0.747  1.00  0.00     0.073 A 
HETATM   21  C   UNL     1      11.417   5.020   1.036  1.00  0.00     0.038 A 
HETATM   22  C   UNL     1      12.082   4.355   0.005  1.00  0.00     0.022 A 
HETATM   23  C   UNL     1      11.610   4.456  -1.302  1.00  0.00     0.011 A 
HETATM   24 BR   UNL     1      12.491   3.536  -2.697  1.00  0.00    -0.051 Br
HETATM   25  C   UNL     1      10.479   5.221  -1.592  1.00  0.00     0.030 A 
BRANCH  20  26
HETATM   26  O   UNL     1       9.589   6.400   1.747  1.00  0.00    -0.360 OA
HETATM   27  H   UNL     1      10.160   6.409   2.545  1.00  0.00     0.217 HD
ENDBRANCH  20  26
ENDBRANCH  18  19
ENDBRANCH   3  18
TORSDOF 6
