REMARK  6 active torsions:
REMARK  status: ('A' for Active; 'I' for Inactive)
REMARK    1  A    between atoms: O_2  and  C_3 
REMARK    2  A    between atoms: C_5  and  O_6 
REMARK    3  A    between atoms: C_9  and  C_10 
REMARK       I    between atoms: C_10  and  N_11 
REMARK    4  A    between atoms: N_11  and  C_12 
REMARK    5  A    between atoms: N_15  and  C_16 
REMARK    6  A    between atoms: C_20  and  C_21 
ROOT
HETATM    1  C   UNL     1       5.927   4.672  -2.960  1.00  0.00     0.087 C 
HETATM    2  C   UNL     1       6.497   5.932  -3.638  1.00  0.00     0.045 C 
HETATM    3  C   UNL     1       6.841   5.672  -5.102  1.00  0.00     0.126 C 
HETATM    4  N   UNL     1       5.647   5.178  -5.806  1.00  0.00    -0.366 N 
HETATM    5  C   UNL     1       5.132   3.922  -5.248  1.00  0.00     0.126 C 
HETATM    6  C   UNL     1       4.747   4.125  -3.781  1.00  0.00     0.045 C 
ENDROOT
BRANCH   1   7
HETATM    7  N   UNL     1       6.931   3.622  -2.753  1.00  0.00    -0.352 N 
HETATM    8  C   UNL     1       8.036   3.805  -1.943  1.00  0.00     0.252 C 
HETATM    9  O   UNL     1       8.295   4.862  -1.381  1.00  0.00    -0.268 OA
HETATM   10  H   UNL     1       6.618   2.667  -2.864  1.00  0.00     0.163 HD
BRANCH   8  11
HETATM   11  C   UNL     1       8.921   2.619  -1.754  1.00  0.00     0.037 A 
HETATM   12  C   UNL     1       8.966   1.569  -2.683  1.00  0.00     0.054 A 
HETATM   13  C   UNL     1       9.815   0.483  -2.464  1.00  0.00     0.071 A 
HETATM   14  C   UNL     1      10.632   0.458  -1.327  1.00  0.00     0.073 A 
HETATM   15  C   UNL     1      10.618   1.513  -0.415  1.00  0.00     0.071 A 
HETATM   16  C   UNL     1       9.755   2.588  -0.630  1.00  0.00     0.054 A 
BRANCH  13  17
HETATM   17  O   UNL     1       9.946  -0.610  -3.277  1.00  0.00    -0.356 OA
HETATM   18  C   UNL     1       9.204  -0.613  -4.491  1.00  0.00     0.210 C 
ENDBRANCH  13  17
BRANCH  15  19
HETATM   19  O   UNL     1      11.384   1.608   0.714  1.00  0.00    -0.356 OA
HETATM   20  C   UNL     1      12.422   0.647   0.866  1.00  0.00     0.210 C 
ENDBRANCH  15  19
ENDBRANCH   8  11
ENDBRANCH   1   7
BRANCH   4  21
HETATM   21  C   UNL     1       4.797   6.026  -6.466  1.00  0.00     0.121 A 
HETATM   22  N   UNL     1       5.172   7.258  -6.938  1.00  0.00    -0.262 N 
HETATM   23  H   UNL     1       6.084   7.690  -6.881  1.00  0.00     0.191 HD
HETATM   24  N   UNL     1       4.196   7.939  -7.559  1.00  0.00    -0.173 NA
HETATM   25  C   UNL     1       3.143   7.107  -7.541  1.00  0.00     0.090 A 
HETATM   26  C   UNL     1       3.482   5.903  -6.862  1.00  0.00     0.084 A 
BRANCH  25  27
HETATM   27  C   UNL     1       1.863   7.472  -8.159  1.00  0.00    -0.005 A 
HETATM   28  C   UNL     1       0.876   6.505  -8.410  1.00  0.00     0.015 A 
HETATM   29  C   UNL     1      -0.341   6.863  -9.001  1.00  0.00     0.024 A 
HETATM   30  C   UNL     1      -0.581   8.191  -9.347  1.00  0.00     0.034 A 
HETATM   31 CL   UNL     1      -2.077   8.628 -10.073  1.00  0.00    -0.084 Cl
HETATM   32  C   UNL     1       0.386   9.164  -9.110  1.00  0.00     0.024 A 
HETATM   33  C   UNL     1       1.602   8.804  -8.520  1.00  0.00     0.015 A 
ENDBRANCH  25  27
ENDBRANCH   4  21
TORSDOF 6
