REMARK  5 active torsions:
REMARK  status: ('A' for Active; 'I' for Inactive)
REMARK    1  A    between atoms: C_5  and  N_6 
REMARK       I    between atoms: N_6  and  C_7 
REMARK       I    between atoms: C_7  and  N_8 
REMARK    2  A    between atoms: N_8  and  C_9 
REMARK    3  A    between atoms: C_11  and  C_12 
REMARK       I    between atoms: C_12  and  N_13 
REMARK    4  A    between atoms: N_13  and  C_14 
REMARK    5  A    between atoms: C_14  and  C_15 
ROOT
HETATM    1  C   UNL     1       5.027  -2.456  -0.252  1.00  0.00     0.175 A 
HETATM    2  S   UNL     1       4.078  -3.809  -0.643  1.00  0.00    -0.044 SA
HETATM    3  C   UNL     1       2.778  -3.145   0.269  1.00  0.00     0.100 A 
HETATM    4  C   UNL     1       3.185  -1.943   0.837  1.00  0.00     0.056 A 
HETATM    5  C   UNL     1       2.379  -1.049   1.713  1.00  0.00     0.072 C 
HETATM    6  N   UNL     1       4.483  -1.556   0.526  1.00  0.00    -0.228 NA
ENDROOT
BRANCH   1   7
HETATM    7  N   UNL     1       6.272  -2.438  -0.805  1.00  0.00    -0.287 N 
HETATM    8  C   UNL     1       7.183  -1.422  -0.713  1.00  0.00     0.326 C 
HETATM    9  N   UNL     1       6.821  -0.336   0.038  1.00  0.00    -0.309 N 
HETATM   10  O   UNL     1       8.244  -1.562  -1.319  1.00  0.00    -0.247 OA
HETATM   11  H   UNL     1       5.930  -0.427   0.520  1.00  0.00     0.170 HD
HETATM   12  H   UNL     1       6.552  -3.215  -1.384  1.00  0.00     0.172 HD
BRANCH   9  13
HETATM   13  C   UNL     1       7.512   0.875   0.224  1.00  0.00     0.036 A 
HETATM   14  C   UNL     1       8.711   1.196  -0.412  1.00  0.00     0.030 A 
HETATM   15  C   UNL     1       9.319   2.438  -0.194  1.00  0.00     0.009 A 
HETATM   16  C   UNL     1       8.736   3.380   0.660  1.00  0.00    -0.062 A 
HETATM   17  C   UNL     1       9.407   4.699   0.898  1.00  0.00     0.048 C 
HETATM   18  C   UNL     1       7.544   3.052   1.311  1.00  0.00     0.009 A 
HETATM   19  C   UNL     1       6.935   1.812   1.089  1.00  0.00     0.030 A 
ENDBRANCH   9  13
ENDBRANCH   1   7
BRANCH   3  20
HETATM   20  C   UNL     1       1.483  -3.794   0.379  1.00  0.00     0.260 C 
HETATM   21  N   UNL     1       1.346  -4.995  -0.283  1.00  0.00    -0.352 N 
HETATM   22  H   UNL     1       2.096  -5.309  -0.885  1.00  0.00     0.163 HD
HETATM   23  O   UNL     1       0.545  -3.310   1.010  1.00  0.00    -0.267 OA
BRANCH  21  24
HETATM   24  C   UNL     1       0.071  -5.667  -0.355  1.00  0.00     0.161 C 
BRANCH  24  25
HETATM   25  C   UNL     1       0.237  -7.096  -0.798  1.00  0.00    -0.040 A 
HETATM   26  C   UNL     1       0.796  -8.042   0.076  1.00  0.00     0.010 A 
HETATM   27  C   UNL     1       0.955  -9.371  -0.324  1.00  0.00     0.024 A 
HETATM   28  C   UNL     1       0.557  -9.760  -1.601  1.00  0.00     0.034 A 
HETATM   29 CL   UNL     1       0.747 -11.398  -2.093  1.00  0.00    -0.084 Cl
HETATM   30  C   UNL     1       0.006  -8.832  -2.482  1.00  0.00     0.024 A 
HETATM   31  C   UNL     1      -0.151  -7.502  -2.083  1.00  0.00     0.010 A 
ENDBRANCH  24  25
ENDBRANCH  21  24
ENDBRANCH   3  20
TORSDOF 5
