REMARK  5 active torsions:
REMARK  status: ('A' for Active; 'I' for Inactive)
REMARK    1  A    between atoms: C_4  and  C_5 
REMARK    2  A    between atoms: C_5  and  C_6 
REMARK    3  A    between atoms: C_12  and  S_13 
REMARK    4  A    between atoms: S_13  and  C_14 
REMARK    5  A    between atoms: C_14  and  C_15 
ROOT
HETATM    1  C   UNL     1       3.905   1.293  -0.521  1.00  0.00     0.283 C 
HETATM    2  O   UNL     1       5.287   1.027  -0.686  1.00  0.00    -0.303 OA
HETATM    3  C   UNL     1       5.821   0.548   0.481  1.00  0.00     0.201 A 
HETATM    4  C   UNL     1       6.088   1.409   1.530  1.00  0.00     0.144 A 
HETATM    5  N   UNL     1       6.695   0.908   2.623  1.00  0.00    -0.142 NA
HETATM    6  N   UNL     1       7.010  -0.423   2.652  1.00  0.00    -0.122 NA
HETATM    7  C   UNL     1       6.715  -1.210   1.592  1.00  0.00     0.212 A 
HETATM    8  N   UNL     1       6.129  -0.763   0.470  1.00  0.00    -0.195 NA
HETATM    9  C   UNL     1       5.745   2.830   1.506  1.00  0.00     0.020 A 
HETATM   10  C   UNL     1       4.573   3.293   0.867  1.00  0.00     0.023 A 
HETATM   11  N   UNL     1       3.582   2.461   0.331  1.00  0.00    -0.259 NA
HETATM   12  C   UNL     1       6.591   3.768   2.134  1.00  0.00     0.016 A 
HETATM   13  C   UNL     1       6.285   5.129   2.151  1.00  0.00     0.001 A 
HETATM   14  C   UNL     1       5.112   5.575   1.558  1.00  0.00     0.002 A 
HETATM   15  C   UNL     1       4.259   4.661   0.941  1.00  0.00     0.024 A 
HETATM   16  H   UNL     1       2.963   2.146   1.088  1.00  0.00     0.130 HD
ENDROOT
BRANCH   7  17
HETATM   17  S   UNL     1       7.133  -2.931   1.647  1.00  0.00    -0.084 SA
BRANCH  17  18
HETATM   18  C   UNL     1       7.137  -3.178   3.449  1.00  0.00     0.121 C 
BRANCH  18  19
HETATM   19  C   UNL     1       7.401  -4.622   3.804  1.00  0.00    -0.048 A 
HETATM   20  C   UNL     1       8.710  -5.066   4.048  1.00  0.00     0.009 A 
HETATM   21  C   UNL     1       8.956  -6.404   4.366  1.00  0.00     0.024 A 
HETATM   22  C   UNL     1       7.897  -7.306   4.435  1.00  0.00     0.034 A 
HETATM   23 CL   UNL     1       8.202  -8.954   4.825  1.00  0.00    -0.084 Cl
HETATM   24  C   UNL     1       6.593  -6.883   4.188  1.00  0.00     0.024 A 
HETATM   25  C   UNL     1       6.346  -5.545   3.871  1.00  0.00     0.009 A 
ENDBRANCH  18  19
ENDBRANCH  17  18
ENDBRANCH   7  17
BRANCH   1  26
HETATM   26  C   UNL     1       3.026   0.082  -0.100  1.00  0.00     0.203 C 
HETATM   27  O   UNL     1       2.419   0.081   0.976  1.00  0.00    -0.288 OA
BRANCH  26  28
HETATM   28  C   UNL     1       2.886  -1.080  -1.032  1.00  0.00     0.014 A 
HETATM   29  C   UNL     1       3.580  -1.168  -2.246  1.00  0.00     0.015 A 
HETATM   30  C   UNL     1       3.389  -2.268  -3.087  1.00  0.00     0.001 A 
HETATM   31  C   UNL     1       2.508  -3.285  -2.725  1.00  0.00     0.000 A 
HETATM   32  C   UNL     1       1.818  -3.209  -1.518  1.00  0.00     0.001 A 
HETATM   33  C   UNL     1       2.006  -2.112  -0.674  1.00  0.00     0.015 A 
ENDBRANCH  26  28
ENDBRANCH   1  26
TORSDOF 5
