REMARK  3 active torsions:
REMARK  status: ('A' for Active; 'I' for Inactive)
REMARK    1  A    between atoms: C_8  and  N_9 
REMARK       I    between atoms: N_9  and  C_10 
REMARK       I    between atoms: C_10  and  N_11 
REMARK    2  A    between atoms: N_11  and  C_12 
REMARK    3  A    between atoms: C_16  and  O_17 
ROOT
HETATM    1  N   UNL     1       2.519  -2.505  -0.129  1.00  0.00    -0.305 N 
HETATM    2  C   UNL     1       1.195  -2.860   0.059  1.00  0.00     0.325 C 
HETATM    3  N   UNL     1       0.403  -1.718   0.110  1.00  0.00    -0.309 N 
HETATM    4  O   UNL     1       0.769  -4.002   0.143  1.00  0.00    -0.247 OA
HETATM    5  H   UNL     1       2.692  -1.564  -0.444  1.00  0.00     0.171 HD
HETATM    6  H   UNL     1       0.898  -0.852   0.262  1.00  0.00     0.170 HD
ENDROOT
BRANCH   1   7
HETATM    7  C   UNL     1       3.615  -3.350  -0.189  1.00  0.00     0.086 A 
HETATM    8  C   UNL     1       4.851  -2.897  -0.616  1.00  0.00     0.052 A 
HETATM    9  C   UNL     1       5.326  -1.573  -1.083  1.00  0.00     0.072 C 
HETATM   10  N   UNL     1       5.685  -3.977  -0.562  1.00  0.00    -0.280 N 
HETATM   11  H   UNL     1       6.666  -4.026  -0.814  1.00  0.00     0.189 HD
HETATM   12  N   UNL     1       5.099  -5.088  -0.110  1.00  0.00    -0.177 NA
HETATM   13  C   UNL     1       3.829  -4.724   0.127  1.00  0.00     0.079 A 
HETATM   14  C   UNL     1       2.903  -5.746   0.677  1.00  0.00     0.075 C 
ENDBRANCH   1   7
BRANCH   3  15
HETATM   15  C   UNL     1      -1.005  -1.635   0.071  1.00  0.00     0.039 A 
HETATM   16  C   UNL     1      -1.850  -2.731  -0.110  1.00  0.00     0.056 A 
HETATM   17  C   UNL     1      -3.237  -2.549  -0.198  1.00  0.00     0.071 A 
HETATM   18 CL   UNL     1      -4.233  -3.941  -0.436  1.00  0.00    -0.081 Cl
HETATM   19  C   UNL     1      -3.796  -1.270  -0.100  1.00  0.00     0.111 A 
HETATM   20  C   UNL     1      -2.950  -0.172   0.072  1.00  0.00     0.071 A 
HETATM   21 CL   UNL     1      -3.552   1.446   0.135  1.00  0.00    -0.081 Cl
HETATM   22  C   UNL     1      -1.566  -0.356   0.170  1.00  0.00     0.056 A 
BRANCH  19  23
HETATM   23  O   UNL     1      -5.147  -1.111  -0.276  1.00  0.00    -0.352 OA
HETATM   24  C   UNL     1      -5.823  -0.893   0.963  1.00  0.00     0.210 C 
ENDBRANCH  19  23
ENDBRANCH   3  15
TORSDOF 3
