REMARK  3 active torsions:
REMARK  status: ('A' for Active; 'I' for Inactive)
REMARK    1  A    between atoms: C_2  and  N_3 
REMARK       I    between atoms: N_3  and  C_4 
REMARK    2  A    between atoms: C_4  and  C_5 
REMARK    3  A    between atoms: C_5  and  C_6 
ROOT
HETATM    1  C   UNL     1      -0.962   2.679  -0.070  1.00  0.00     0.286 C 
HETATM    2  N   UNL     1      -1.822   3.171   1.090  1.00  0.00    -0.056 N 
HETATM    3  H   UNL     1      -2.630   2.513   1.125  1.00  0.00     0.278 HD
HETATM    4  H   UNL     1      -1.334   3.070   1.988  1.00  0.00     0.278 HD
HETATM    5  C   UNL     1      -2.375   4.558   0.920  1.00  0.00     0.209 C 
HETATM    6  C   UNL     1      -3.125   4.646  -0.432  1.00  0.00     0.115 C 
HETATM    7  N   UNL     1      -2.342   4.125  -1.552  1.00  0.00    -0.353 N 
HETATM    8  C   UNL     1      -1.562   2.995  -1.455  1.00  0.00     0.249 C 
HETATM    9  O   UNL     1      -1.287   2.347  -2.459  1.00  0.00    -0.271 OA
HETATM   10  C   UNL     1      -1.256   5.592   1.060  1.00  0.00     0.035 C 
HETATM   11  C   UNL     1      -1.780   7.002   0.802  1.00  0.00     0.002 C 
HETATM   12  C   UNL     1      -2.463   7.103  -0.560  1.00  0.00     0.002 C 
HETATM   13  C   UNL     1      -3.590   6.081  -0.705  1.00  0.00     0.027 C 
HETATM   14  H   UNL     1      -2.727   4.241  -2.488  1.00  0.00     0.163 HD
ENDROOT
BRANCH   1  15
HETATM   15  C   UNL     1      -0.641   1.184   0.082  1.00  0.00     0.146 C 
BRANCH  15  16
HETATM   16  C   UNL     1      -1.907   0.368   0.128  1.00  0.00     0.224 C 
HETATM   17  N   UNL     1      -1.918  -0.978  -0.048  1.00  0.00    -0.327 N 
HETATM   18  H   UNL     1      -2.867  -1.338  -0.102  1.00  0.00     0.169 HD
HETATM   19  O   UNL     1      -2.972   0.951   0.379  1.00  0.00    -0.273 OA
BRANCH  17  20
HETATM   20  C   UNL     1      -0.910  -1.958  -0.150  1.00  0.00     0.034 A 
HETATM   21  C   UNL     1       0.447  -1.759   0.112  1.00  0.00     0.031 A 
HETATM   22  C   UNL     1       1.356  -2.823   0.013  1.00  0.00     0.026 A 
HETATM   23  C   UNL     1       0.914  -4.093  -0.342  1.00  0.00     0.034 A 
HETATM   24  C   UNL     1      -0.433  -4.311  -0.599  1.00  0.00     0.026 A 
HETATM   25 CL   UNL     1       2.034  -5.391  -0.449  1.00  0.00    -0.084 Cl
HETATM   26  C   UNL     1      -1.338  -3.249  -0.498  1.00  0.00     0.031 A 
ENDBRANCH  17  20
ENDBRANCH  15  16
ENDBRANCH   1  15
TORSDOF 3
