REMARK  7 active torsions:
REMARK  status: ('A' for Active; 'I' for Inactive)
REMARK    1  A    between atoms: C_6  and  C_7 
REMARK       I    between atoms: C_7  and  N_8 
REMARK    2  A    between atoms: N_8  and  N_9 
REMARK       I    between atoms: N_9  and  C_10 
REMARK    3  A    between atoms: C_10  and  C_11 
REMARK    4  A    between atoms: C_11  and  C_12 
REMARK    5  A    between atoms: C_12  and  C_13 
REMARK    6  A    between atoms: C_13  and  O_14 
REMARK    7  A    between atoms: O_14  and  C_15 
ROOT
HETATM    1  N   UNL     1       8.614   2.126  -0.241  1.00  0.00    -0.267 N 
HETATM    2  C   UNL     1       8.435   0.779   0.006  1.00  0.00     0.236 C 
HETATM    3  O   UNL     1       7.346   0.279   0.271  1.00  0.00    -0.272 OA
HETATM    4  H   UNL     1       9.475   2.504  -0.634  1.00  0.00     0.190 HD
ENDROOT
BRANCH   2   5
HETATM    5  C   UNL     1       9.734   0.002  -0.054  1.00  0.00     0.107 C 
BRANCH   5   6
HETATM    6  C   UNL     1       9.557  -1.507   0.080  1.00  0.00     0.036 C 
BRANCH   6   7
HETATM    7  C   UNL     1       8.893  -2.138  -1.146  1.00  0.00     0.176 C 
BRANCH   7   8
HETATM    8  O   UNL     1       9.030  -3.551  -1.026  1.00  0.00    -0.349 OA
BRANCH   8   9
HETATM    9  C   UNL     1       8.267  -4.381  -1.798  1.00  0.00     0.090 A 
HETATM   10  C   UNL     1       7.620  -4.140  -3.020  1.00  0.00     0.069 A 
HETATM   11 CL   UNL     1       7.676  -2.651  -3.896  1.00  0.00    -0.081 Cl
HETATM   12  C   UNL     1       6.902  -5.171  -3.648  1.00  0.00     0.050 A 
HETATM   13  C   UNL     1       6.838  -6.438  -3.076  1.00  0.00     0.035 A 
HETATM   14 CL   UNL     1       5.967  -7.693  -3.867  1.00  0.00    -0.084 Cl
HETATM   15  C   UNL     1       7.486  -6.697  -1.876  1.00  0.00     0.026 A 
HETATM   16  C   UNL     1       8.196  -5.673  -1.248  1.00  0.00     0.040 A 
ENDBRANCH   8   9
ENDBRANCH   7   8
ENDBRANCH   6   7
ENDBRANCH   5   6
ENDBRANCH   2   5
BRANCH   1  17
HETATM   17  N   UNL     1       7.487   2.944  -0.331  1.00  0.00    -0.262 N 
HETATM   18  C   UNL     1       7.562   4.138  -1.019  1.00  0.00     0.290 C 
HETATM   19  O   UNL     1       8.609   4.557  -1.514  1.00  0.00    -0.264 OA
HETATM   20  H   UNL     1       6.583   2.587  -0.018  1.00  0.00     0.190 HD
BRANCH  18  21
HETATM   21  C   UNL     1       6.282   4.852  -1.101  1.00  0.00     0.147 A 
HETATM   22  N   UNL     1       5.150   4.362  -0.555  1.00  0.00    -0.169 NA
HETATM   23  N   UNL     1       4.221   5.293  -0.831  1.00  0.00    -0.282 N 
HETATM   24  C   UNL     1       4.703   6.363  -1.532  1.00  0.00     0.026 A 
HETATM   25  H   UNL     1       3.272   5.134  -0.507  1.00  0.00     0.189 HD
HETATM   26  C   UNL     1       3.856   7.505  -1.937  1.00  0.00     0.070 C 
HETATM   27  C   UNL     1       6.041   6.102  -1.727  1.00  0.00     0.065 A 
ENDBRANCH  18  21
ENDBRANCH   1  17
TORSDOF 7
