REMARK  7 active torsions:
REMARK  status: ('A' for Active; 'I' for Inactive)
REMARK    1  A    between atoms: O_2  and  C_3 
REMARK    2  A    between atoms: C_5  and  C_6 
REMARK    3  A    between atoms: C_6  and  O_7 
REMARK    4  A    between atoms: C_6  and  C_8 
REMARK    5  A    between atoms: C_8  and  N_9 
REMARK       I    between atoms: N_9  and  C_10 
REMARK    6  A    between atoms: C_10  and  C_11 
REMARK    7  A    between atoms: C_12  and  C_13 
ROOT
HETATM    1  C   UNL     1      -0.991   4.611   2.699  1.00  0.00     0.089 C 
HETATM    2  C   UNL     1      -2.389   5.272   2.608  1.00  0.00     0.068 C 
HETATM    3  C   UNL     1      -2.784   5.549   1.142  1.00  0.00     0.013 C 
HETATM    4  C   UNL     1      -2.661   4.318   0.255  1.00  0.00     0.001 C 
HETATM    5  C   UNL     1      -1.258   3.733   0.324  1.00  0.00     0.001 C 
HETATM    6  C   UNL     1      -0.887   3.394   1.760  1.00  0.00     0.015 C 
ENDROOT
BRANCH   1   7
HETATM    7  C   UNL     1      -0.678   4.156   4.127  1.00  0.00     0.222 C 
HETATM    8  N   UNL     1      -0.242   5.156   4.966  1.00  0.00    -0.358 N 
HETATM    9  H   UNL     1      -0.391   6.121   4.662  1.00  0.00     0.162 HD
HETATM   10  O   UNL     1      -0.804   2.995   4.506  1.00  0.00    -0.273 OA
BRANCH   8  11
HETATM   11  C   UNL     1      -0.012   4.910   6.384  1.00  0.00     0.159 C 
BRANCH  11  12
HETATM   12  C   UNL     1       1.329   4.194   6.634  1.00  0.00     0.169 C 
BRANCH  12  13
HETATM   13  C   UNL     1       1.515   3.861   8.098  1.00  0.00    -0.025 A 
HETATM   14  C   UNL     1       1.985   4.819   9.015  1.00  0.00     0.046 A 
HETATM   15  C   UNL     1       2.121   4.506  10.370  1.00  0.00     0.068 A 
HETATM   16  C   UNL     1       1.782   3.226  10.812  1.00  0.00     0.037 A 
HETATM   17  C   UNL     1       1.312   2.266   9.917  1.00  0.00     0.003 A 
HETATM   18  C   UNL     1       1.175   2.583   8.567  1.00  0.00     0.010 A 
BRANCH  15  19
HETATM   19  O   UNL     1       2.562   5.351  11.351  1.00  0.00    -0.356 OA
HETATM   20  C   UNL     1       2.940   6.661  10.946  1.00  0.00     0.210 C 
ENDBRANCH  15  19
ENDBRANCH  12  13
BRANCH  12  21
HETATM   21  O   UNL     1       2.399   5.041   6.192  1.00  0.00    -0.389 OA
HETATM   22  H   UNL     1       2.185   5.251   5.265  1.00  0.00     0.210 HD
ENDBRANCH  12  21
ENDBRANCH  11  12
ENDBRANCH   8  11
ENDBRANCH   1   7
BRANCH   2  23
HETATM   23  C   UNL     1      -2.469   6.569   3.371  1.00  0.00     0.110 A 
HETATM   24  N   UNL     1      -1.462   7.340   3.736  1.00  0.00    -0.233 NA
HETATM   25  C   UNL     1      -2.028   8.421   4.367  1.00  0.00     0.087 A 
HETATM   26  C   UNL     1      -3.412   8.302   4.405  1.00  0.00     0.062 A 
HETATM   27  C   UNL     1      -1.414   9.544   4.937  1.00  0.00     0.057 A 
HETATM   28  N   UNL     1      -3.667   7.109   3.778  1.00  0.00    -0.342 N 
HETATM   29  C   UNL     1      -4.250   9.258   4.982  1.00  0.00     0.034 A 
HETATM   30  H   UNL     1      -4.580   6.706   3.621  1.00  0.00     0.167 HD
HETATM   31  C   UNL     1      -3.625  10.378   5.543  1.00  0.00     0.026 A 
HETATM   32  C   UNL     1      -2.234  10.514   5.521  1.00  0.00     0.036 A 
HETATM   33 CL   UNL     1      -1.513  11.910   6.228  1.00  0.00    -0.084 Cl
ENDBRANCH   2  23
TORSDOF 7
