REMARK  7 active torsions:
REMARK  status: ('A' for Active; 'I' for Inactive)
REMARK    1  A    between atoms: O_2  and  C_3 
REMARK    2  A    between atoms: C_4  and  O_5 
REMARK    3  A    between atoms: C_9  and  C_10 
REMARK    4  A    between atoms: C_10  and  N_11 
REMARK    5  A    between atoms: C_14  and  C_15 
REMARK    6  A    between atoms: C_15  and  N_16 
REMARK    7  A    between atoms: N_16  and  C_17 
ROOT
HETATM    1  N   UNL     1       1.559  -4.863   0.149  1.00  0.00    -0.067 N 
HETATM    2  H   UNL     1       1.867  -4.762   1.130  1.00  0.00     0.280 HD
HETATM    3  C   UNL     1       0.850  -6.198   0.052  1.00  0.00     0.241 C 
HETATM    4  C   UNL     1      -0.478  -5.904  -0.644  1.00  0.00     0.031 C 
HETATM    5  C   UNL     1      -0.798  -4.500  -0.136  1.00  0.00     0.035 C 
HETATM    6  C   UNL     1       0.538  -3.774  -0.110  1.00  0.00     0.235 C 
ENDROOT
BRANCH   1   7
HETATM    7  C   UNL     1       2.825  -4.697  -0.664  1.00  0.00     0.274 C 
BRANCH   7   8
HETATM    8  C   UNL     1       3.875  -5.743  -0.396  1.00  0.00    -0.012 A 
HETATM    9  C   UNL     1       4.591  -5.799   0.813  1.00  0.00     0.021 A 
HETATM   10  C   UNL     1       5.553  -6.785   1.023  1.00  0.00     0.059 A 
HETATM   11 BR   UNL     1       4.277  -4.561   2.219  1.00  0.00    -0.050 Br
HETATM   12  C   UNL     1       5.790  -7.727   0.030  1.00  0.00     0.100 A 
HETATM   13  C   UNL     1       5.087  -7.715  -1.176  1.00  0.00     0.101 A 
HETATM   14  C   UNL     1       4.144  -6.711  -1.392  1.00  0.00     0.049 A 
BRANCH  12  15
HETATM   15  O   UNL     1       6.734  -8.684   0.274  1.00  0.00    -0.358 OA
HETATM   16  H   UNL     1       6.811  -9.218  -0.541  1.00  0.00     0.218 HD
ENDBRANCH  12  15
BRANCH  13  17
HETATM   17  O   UNL     1       5.414  -8.715  -2.050  1.00  0.00    -0.353 OA
HETATM   18  C   UNL     1       4.559  -8.916  -3.169  1.00  0.00     0.210 C 
ENDBRANCH  13  17
ENDBRANCH   7   8
ENDBRANCH   1   7
BRANCH   4  19
HETATM   19  C   UNL     1      -0.347  -6.012  -2.175  1.00  0.00     0.127 C 
BRANCH  19  20
HETATM   20  N   UNL     1      -1.646  -5.845  -2.832  1.00  0.00    -0.376 N 
HETATM   21  H   UNL     1      -2.435  -6.215  -2.309  1.00  0.00     0.161 HD
BRANCH  20  22
HETATM   22  C   UNL     1      -1.729  -5.946  -4.217  1.00  0.00     0.100 A 
HETATM   23  N   UNL     1      -2.906  -6.298  -4.767  1.00  0.00    -0.353 N 
HETATM   24  H   UNL     1      -3.694  -6.474  -4.151  1.00  0.00     0.166 HD
HETATM   25  C   UNL     1      -3.106  -6.419  -6.090  1.00  0.00     0.089 A 
HETATM   26  C   UNL     1      -2.074  -6.161  -6.977  1.00  0.00     0.017 A 
HETATM   27  C   UNL     1      -0.845  -5.766  -6.472  1.00  0.00     0.005 A 
HETATM   28  C   UNL     1      -0.673  -5.651  -5.093  1.00  0.00     0.048 A 
ENDBRANCH  20  22
ENDBRANCH  19  20
ENDBRANCH   4  19
TORSDOF 7
