REMARK  4 active torsions:
REMARK  status: ('A' for Active; 'I' for Inactive)
REMARK    1  A    between atoms: C_4  and  N_5 
REMARK       I    between atoms: N_5  and  C_6 
REMARK    2  A    between atoms: C_6  and  C_7 
REMARK    3  A    between atoms: C_7  and  N_8 
REMARK    4  A    between atoms: C_12  and  C_13 
ROOT
HETATM    1  N   UNL     1       3.075   1.931   0.401  1.00  0.00    -0.304 N 
HETATM    2  C   UNL     1       3.552   0.744  -0.136  1.00  0.00     0.261 C 
HETATM    3  O   UNL     1       4.575   0.630  -0.788  1.00  0.00    -0.267 OA
HETATM    4  C   UNL     1       2.488  -0.288   0.174  1.00  0.00     0.068 C 
HETATM    5  C   UNL     1       2.668  -1.622   0.097  1.00  0.00     0.093 C 
HETATM    6  C   UNL     1       1.588  -2.594   0.543  1.00  0.00     0.025 C 
HETATM    7  N   UNL     1       0.692  -3.400   0.913  1.00  0.00    -0.096 N 
HETATM    8  C   UNL     1       1.321   0.471   0.679  1.00  0.00     0.008 A 
HETATM    9  C   UNL     1       1.746   1.801   0.824  1.00  0.00     0.049 A 
HETATM   10  C   UNL     1       0.016   0.128   0.999  1.00  0.00     0.015 A 
HETATM   11  C   UNL     1      -0.844   1.125   1.477  1.00  0.00     0.001 A 
HETATM   12  C   UNL     1      -0.402   2.447   1.626  1.00  0.00     0.002 A 
HETATM   13  C   UNL     1       0.907   2.797   1.296  1.00  0.00     0.030 A 
ENDROOT
BRANCH   5  14
HETATM   14  C   UNL     1       3.917  -2.214  -0.247  1.00  0.00     0.149 A 
HETATM   15  N   UNL     1       5.135  -1.967   0.191  1.00  0.00    -0.228 NA
HETATM   16  C   UNL     1       5.953  -2.893  -0.408  1.00  0.00     0.086 A 
HETATM   17  C   UNL     1       5.216  -3.756  -1.208  1.00  0.00     0.062 A 
HETATM   18  C   UNL     1       7.339  -3.072  -0.304  1.00  0.00     0.034 A 
HETATM   19  N   UNL     1       3.929  -3.298  -1.100  1.00  0.00    -0.338 N 
HETATM   20  C   UNL     1       5.779  -4.823  -1.912  1.00  0.00     0.032 A 
HETATM   21  H   UNL     1       3.129  -3.710  -1.559  1.00  0.00     0.167 HD
HETATM   22  C   UNL     1       7.163  -4.992  -1.789  1.00  0.00     0.002 A 
HETATM   23  C   UNL     1       7.934  -4.130  -1.004  1.00  0.00     0.002 A 
ENDBRANCH   5  14
BRANCH   1  24
HETATM   24  C   UNL     1       3.905   3.095   0.611  1.00  0.00     0.235 C 
BRANCH  24  25
HETATM   25  C   UNL     1       4.064   4.008  -0.600  1.00  0.00     0.240 C 
HETATM   26  N   UNL     1       4.789   3.430  -1.627  1.00  0.00    -0.326 N 
HETATM   27  H   UNL     1       4.891   2.414  -1.600  1.00  0.00     0.169 HD
HETATM   28  O   UNL     1       3.639   5.162  -0.567  1.00  0.00    -0.271 OA
BRANCH  26  29
HETATM   29  C   UNL     1       5.435   4.101  -2.685  1.00  0.00     0.035 A 
HETATM   30  C   UNL     1       5.615   5.488  -2.723  1.00  0.00     0.036 A 
HETATM   31  C   UNL     1       6.346   6.095  -3.757  1.00  0.00    -0.060 A 
HETATM   32  C   UNL     1       6.612   7.572  -3.732  1.00  0.00     0.048 C 
HETATM   33  C   UNL     1       6.895   5.296  -4.765  1.00  0.00     0.007 A 
HETATM   34  C   UNL     1       6.711   3.914  -4.742  1.00  0.00     0.003 A 
HETATM   35  C   UNL     1       5.993   3.319  -3.702  1.00  0.00     0.029 A 
ENDBRANCH  26  29
ENDBRANCH  24  25
ENDBRANCH   1  24
TORSDOF 4
