REMARK  7 active torsions:
REMARK  status: ('A' for Active; 'I' for Inactive)
REMARK    1  A    between atoms: C_8  and  C_9 
REMARK    2  A    between atoms: C_9  and  C_10 
REMARK    3  A    between atoms: C_10  and  N_11 
REMARK       I    between atoms: N_11  and  C_12 
REMARK    4  A    between atoms: C_12  and  C_13 
REMARK    5  A    between atoms: C_13  and  C_14 
REMARK    6  A    between atoms: C_14  and  C_15 
REMARK    7  A    between atoms: C_15  and  N_16 
ROOT
HETATM    1  C   UNL     1       0.961  -5.755  -0.134  1.00  0.00     0.104 C 
ENDROOT
BRANCH   1   2
HETATM    2  C   UNL     1      -0.516  -6.018   0.067  1.00  0.00     0.217 C 
HETATM    3  N   UNL     1      -1.344  -5.354  -0.807  1.00  0.00    -0.361 N 
HETATM    4  H   UNL     1      -0.986  -4.527  -1.271  1.00  0.00     0.162 HD
HETATM    5  O   UNL     1      -0.921  -6.811   0.912  1.00  0.00    -0.274 OA
BRANCH   3   6
HETATM    6  C   UNL     1      -2.788  -5.478  -0.694  1.00  0.00     0.127 C 
BRANCH   6   7
HETATM    7  C   UNL     1      -3.528  -4.997  -1.944  1.00  0.00     0.060 C 
BRANCH   7   8
HETATM    8  C   UNL     1      -3.456  -3.512  -2.130  1.00  0.00    -0.029 A 
HETATM    9  C   UNL     1      -2.506  -2.783  -2.916  1.00  0.00    -0.002 A 
HETATM   10  C   UNL     1      -1.412  -3.150  -3.727  1.00  0.00     0.014 A 
HETATM   11  C   UNL     1      -2.806  -1.427  -2.781  1.00  0.00     0.042 A 
HETATM   12  C   UNL     1      -0.656  -2.155  -4.358  1.00  0.00     0.001 A 
HETATM   13  C   UNL     1      -0.981  -0.810  -4.201  1.00  0.00     0.002 A 
HETATM   14  C   UNL     1      -2.065  -0.419  -3.410  1.00  0.00     0.030 A 
HETATM   15  N   UNL     1      -3.905  -1.334  -1.961  1.00  0.00    -0.365 N 
HETATM   16  H   UNL     1      -4.349  -0.466  -1.694  1.00  0.00     0.165 HD
HETATM   17  C   UNL     1      -4.304  -2.580  -1.561  1.00  0.00     0.096 A 
ENDBRANCH   7   8
ENDBRANCH   6   7
ENDBRANCH   3   6
ENDBRANCH   1   2
BRANCH   1  18
HETATM   18  C   UNL     1       1.354  -4.298   0.091  1.00  0.00     0.029 C 
BRANCH  18  19
HETATM   19  C   UNL     1       2.878  -4.166   0.175  1.00  0.00     0.135 C 
BRANCH  19  20
HETATM   20  N   UNL     1       3.317  -2.765   0.240  1.00  0.00    -0.290 N 
HETATM   21  C   UNL     1       3.492  -2.105   1.456  1.00  0.00     0.181 A 
HETATM   22  S   UNL     1       3.219  -2.722   2.992  1.00  0.00    -0.040 SA
HETATM   23  N   UNL     1       3.942  -0.813   1.400  1.00  0.00    -0.332 N 
HETATM   24  C   UNL     1       4.232  -0.137   0.219  1.00  0.00     0.050 A 
HETATM   25  H   UNL     1       4.079  -0.349   2.292  1.00  0.00     0.168 HD
HETATM   26  C   UNL     1       4.031  -0.767  -1.001  1.00  0.00     0.060 A 
HETATM   27  C   UNL     1       4.725   1.167   0.267  1.00  0.00     0.032 A 
HETATM   28  C   UNL     1       3.516  -2.148  -1.005  1.00  0.00     0.262 A 
HETATM   29  C   UNL     1       4.321  -0.101  -2.197  1.00  0.00     0.038 A 
HETATM   30  O   UNL     1       3.289  -2.689  -2.086  1.00  0.00    -0.267 OA
HETATM   31  C   UNL     1       4.818   1.199  -2.148  1.00  0.00     0.012 A 
HETATM   32  C   UNL     1       5.022   1.837  -0.923  1.00  0.00     0.021 A 
HETATM   33 BR   UNL     1       5.224   2.109  -3.755  1.00  0.00    -0.051 Br
ENDBRANCH  19  20
ENDBRANCH  18  19
ENDBRANCH   1  18
TORSDOF 7
