REMARK  5 active torsions:
REMARK  status: ('A' for Active; 'I' for Inactive)
REMARK    1  A    between atoms: C_8  and  C_9 
REMARK    2  A    between atoms: C_11  and  O_12 
REMARK    3  A    between atoms: C_14  and  O_15 
REMARK    4  A    between atoms: C_18  and  C_19 
REMARK    5  A    between atoms: C_22  and  O_23 
ROOT
HETATM    1  C   UNL     1       1.237  -0.334   0.265  1.00  0.00     0.070 C 
HETATM    2  C   UNL     1       2.688  -0.037   0.282  1.00  0.00     0.033 A 
HETATM    3  N   UNL     1       3.624  -1.032   0.382  1.00  0.00    -0.282 N 
HETATM    4  H   UNL     1       3.468  -2.031   0.466  1.00  0.00     0.189 HD
HETATM    5  N   UNL     1       4.891  -0.593   0.344  1.00  0.00    -0.179 NA
HETATM    6  C   UNL     1       4.759   0.725   0.188  1.00  0.00     0.066 A 
HETATM    7  C   UNL     1       3.406   1.144   0.210  1.00  0.00     0.001 A 
HETATM    8  C   UNL     1       3.009   2.585   0.072  1.00  0.00     0.070 C 
HETATM    9  C   UNL     1       4.223   3.531   0.288  1.00  0.00     0.102 C 
HETATM   10  C   UNL     1       5.497   3.044  -0.470  1.00  0.00     0.071 C 
HETATM   11  C   UNL     1       6.681   4.004  -0.282  1.00  0.00     0.047 C 
HETATM   12  C   UNL     1       5.928   1.635   0.031  1.00  0.00     0.100 C 
ENDROOT
BRANCH   8  13
HETATM   13  C   UNL     1       1.894   2.824   1.085  1.00  0.00    -0.046 A 
HETATM   14  C   UNL     1       0.595   3.119   0.621  1.00  0.00     0.047 A 
HETATM   15  C   UNL     1      -0.450   3.337   1.520  1.00  0.00     0.101 A 
HETATM   16  C   UNL     1      -0.181   3.310   2.891  1.00  0.00     0.099 A 
HETATM   17  C   UNL     1       1.086   3.022   3.374  1.00  0.00     0.040 A 
HETATM   18  C   UNL     1       2.120   2.767   2.474  1.00  0.00     0.011 A 
BRANCH  15  19
HETATM   19  O   UNL     1      -1.753   3.601   1.183  1.00  0.00    -0.353 OA
HETATM   20  C   UNL     1      -2.152   3.170  -0.115  1.00  0.00     0.210 C 
ENDBRANCH  15  19
BRANCH  16  21
HETATM   21  O   UNL     1      -1.180   3.551   3.794  1.00  0.00    -0.358 OA
HETATM   22  H   UNL     1      -1.971   3.736   3.252  1.00  0.00     0.218 HD
ENDBRANCH  16  21
ENDBRANCH   8  13
BRANCH   9  23
HETATM   23  C   UNL     1       3.829   4.930  -0.166  1.00  0.00     0.131 C 
HETATM   24  C   UNL     1       3.490   5.942   0.897  1.00  0.00     0.091 C 
HETATM   25  O   UNL     1       3.775   5.220  -1.364  1.00  0.00    -0.298 OA
ENDBRANCH   9  23
BRANCH  10  26
HETATM   26  O   UNL     1       5.243   2.958  -1.881  1.00  0.00    -0.389 OA
HETATM   27  H   UNL     1       4.877   3.820  -2.175  1.00  0.00     0.210 HD
ENDBRANCH  10  26
TORSDOF 5
