REMARK  3 active torsions:
REMARK  status: ('A' for Active; 'I' for Inactive)
REMARK    1  A    between atoms: C_7  and  C_8 
REMARK    2  A    between atoms: N_9  and  C_11 
REMARK    3  A    between atoms: C_11  and  C_12 
ROOT
HETATM    1  C   UNL     1      -3.861   0.182  -0.487  1.00  0.00     0.238 C 
HETATM    2  N   UNL     1      -4.871   0.948   0.355  1.00  0.00    -0.056 N 
HETATM    3  H   UNL     1      -5.782   0.741  -0.069  1.00  0.00     0.281 HD
HETATM    4  C   UNL     1      -4.729   2.448   0.298  1.00  0.00     0.236 C 
HETATM    5  C   UNL     1      -4.777   2.928  -1.143  1.00  0.00     0.028 C 
HETATM    6  C   UNL     1      -3.728   2.245  -2.006  1.00  0.00     0.004 C 
HETATM    7  C   UNL     1      -3.855   0.729  -1.921  1.00  0.00     0.040 C 
ENDROOT
BRANCH   2   8
HETATM    8  C   UNL     1      -4.979   0.469   1.790  1.00  0.00     0.294 C 
BRANCH   8   9
HETATM    9  C   UNL     1      -5.414  -0.938   1.896  1.00  0.00     0.061 A 
HETATM   10  N   UNL     1      -4.707  -1.933   2.543  1.00  0.00    -0.305 N 
HETATM   11  C   UNL     1      -5.427  -3.092   2.382  1.00  0.00     0.151 A 
HETATM   12  C   UNL     1      -3.506  -1.964   3.232  1.00  0.00     0.118 A 
HETATM   13  C   UNL     1      -4.901  -4.315   2.925  1.00  0.00     0.167 A 
HETATM   14  N   UNL     1      -6.541  -2.906   1.715  1.00  0.00    -0.239 NA
HETATM   15  N   UNL     1      -3.756  -4.340   3.554  1.00  0.00    -0.268 NA
HETATM   16  C   UNL     1      -3.074  -3.146   3.707  1.00  0.00     0.134 A 
HETATM   17  C   UNL     1      -6.564  -1.566   1.447  1.00  0.00     0.146 A 
ENDBRANCH   8   9
ENDBRANCH   2   8
BRANCH   1  18
HETATM   18  C   UNL     1      -2.494   0.086   0.115  1.00  0.00     0.041 A 
HETATM   19  N   UNL     1      -1.901  -1.145   0.326  1.00  0.00    -0.357 N 
HETATM   20  C   UNL     1      -0.694  -1.000   0.968  1.00  0.00     0.042 A 
HETATM   21  H   UNL     1      -2.290  -2.048   0.083  1.00  0.00     0.166 HD
HETATM   22  C   UNL     1      -0.457   0.365   1.094  1.00  0.00    -0.008 A 
HETATM   23  C   UNL     1       0.203  -1.969   1.430  1.00  0.00     0.030 A 
HETATM   24  C   UNL     1       0.738   0.795   1.700  1.00  0.00     0.014 A 
HETATM   25  C   UNL     1      -1.576   1.035   0.531  1.00  0.00     0.040 A 
HETATM   26  C   UNL     1       1.647  -0.160   2.170  1.00  0.00     0.001 A 
HETATM   27  C   UNL     1       1.379  -1.521   2.038  1.00  0.00     0.002 A 
ENDBRANCH   1  18
TORSDOF 3
