REMARK  6 active torsions:
REMARK  status: ('A' for Active; 'I' for Inactive)
REMARK    1  A    between atoms: C_3  and  C_4 
REMARK    2  A    between atoms: C_4  and  N_5 
REMARK       I    between atoms: N_5  and  C_6 
REMARK    3  A    between atoms: C_6  and  C_7 
REMARK    4  A    between atoms: C_10  and  C_11 
REMARK    5  A    between atoms: C_11  and  N_12 
REMARK    6  A    between atoms: N_12  and  C_13 
ROOT
HETATM    1  C   UNL     1       2.218   5.383  -0.403  1.00  0.00     0.032 A 
HETATM    2  C   UNL     1       2.587   6.708  -0.664  1.00  0.00     0.017 A 
HETATM    3  C   UNL     1       3.891   7.001  -1.074  1.00  0.00     0.010 A 
HETATM    4  C   UNL     1       4.838   5.977  -1.233  1.00  0.00    -0.041 A 
HETATM    5  C   UNL     1       4.468   4.656  -0.943  1.00  0.00     0.010 A 
HETATM    6  C   UNL     1       3.167   4.362  -0.528  1.00  0.00     0.017 A 
ENDROOT
BRANCH   4   7
HETATM    7  C   UNL     1       6.247   6.303  -1.670  1.00  0.00     0.160 C 
BRANCH   7   8
HETATM    8  N   UNL     1       7.014   6.762  -0.526  1.00  0.00    -0.370 N 
HETATM    9  H   UNL     1       6.771   6.284   0.333  1.00  0.00     0.161 HD
BRANCH   8  10
HETATM   10  C   UNL     1       8.324   7.177  -0.668  1.00  0.00     0.139 A 
HETATM   11  N   UNL     1       8.818   7.320  -1.866  1.00  0.00    -0.202 NA
HETATM   12  C   UNL     1      10.118   7.701  -2.065  1.00  0.00     0.200 A 
HETATM   13  S   UNL     1      10.791   7.906  -3.590  1.00  0.00    -0.039 SA
HETATM   14  N   UNL     1      10.932   7.918  -0.985  1.00  0.00    -0.331 N 
HETATM   15  C   UNL     1      10.474   7.805   0.324  1.00  0.00     0.048 A 
HETATM   16  H   UNL     1      11.885   8.193  -1.180  1.00  0.00     0.168 HD
HETATM   17  C   UNL     1       9.147   7.445   0.546  1.00  0.00     0.036 A 
HETATM   18  C   UNL     1      11.332   8.065   1.392  1.00  0.00     0.030 A 
HETATM   19  C   UNL     1       8.658   7.369   1.854  1.00  0.00     0.017 A 
HETATM   20  C   UNL     1       9.514   7.631   2.928  1.00  0.00     0.001 A 
HETATM   21  C   UNL     1      10.848   7.973   2.697  1.00  0.00     0.002 A 
ENDBRANCH   8  10
ENDBRANCH   7   8
ENDBRANCH   4   7
BRANCH   1  22
HETATM   22  C   UNL     1       0.845   5.020   0.039  1.00  0.00     0.251 C 
HETATM   23  N   UNL     1      -0.180   5.798  -0.452  1.00  0.00    -0.353 N 
HETATM   24  H   UNL     1       0.005   6.482  -1.172  1.00  0.00     0.163 HD
HETATM   25  O   UNL     1       0.677   4.051   0.770  1.00  0.00    -0.268 OA
BRANCH  23  26
HETATM   26  C   UNL     1      -1.567   5.528  -0.129  1.00  0.00     0.163 C 
BRANCH  26  27
HETATM   27  C   UNL     1      -2.338   4.799  -1.210  1.00  0.00    -0.019 A 
HETATM   28  C   UNL     1      -1.693   4.165  -2.287  1.00  0.00     0.010 A 
HETATM   29  C   UNL     1      -2.420   3.476  -3.263  1.00  0.00     0.001 A 
HETATM   30  C   UNL     1      -3.806   3.395  -3.175  1.00  0.00     0.002 A 
HETATM   31  C   UNL     1      -4.466   4.001  -2.109  1.00  0.00     0.024 A 
HETATM   32  C   UNL     1      -3.740   4.693  -1.133  1.00  0.00     0.042 A 
HETATM   33 CL   UNL     1      -4.636   5.401   0.167  1.00  0.00    -0.084 Cl
ENDBRANCH  26  27
ENDBRANCH  23  26
ENDBRANCH   1  22
TORSDOF 6
