REMARK  7 active torsions:
REMARK  status: ('A' for Active; 'I' for Inactive)
REMARK    1  A    between atoms: C_2  and  N_3 
REMARK    2  A    between atoms: C_2  and  C_25 
REMARK       I    between atoms: N_3  and  C_4 
REMARK    3  A    between atoms: C_4  and  C_5 
REMARK    4  A    between atoms: C_8  and  C_9 
REMARK       I    between atoms: C_9  and  N_10 
REMARK    5  A    between atoms: N_10  and  C_11 
REMARK    6  A    between atoms: N_19  and  C_20 
REMARK    7  A    between atoms: C_33  and  O_34 
ROOT
HETATM    1  C   UNL     1       2.096  -0.717   2.932  1.00  0.00     0.098 A 
HETATM    2  C   UNL     1       2.477   0.727   3.012  1.00  0.00     0.206 A 
HETATM    3  O   UNL     1       3.463   1.154   2.407  1.00  0.00    -0.286 OA
HETATM    4  C   UNL     1       1.628   1.647   3.827  1.00  0.00     0.098 A 
HETATM    5  C   UNL     1       0.626   1.085   4.525  1.00  0.00     0.112 A 
HETATM    6  N   UNL     1       0.349  -0.268   4.520  1.00  0.00    -0.360 N 
HETATM    7  C   UNL     1       1.054  -1.110   3.684  1.00  0.00     0.112 A 
ENDROOT
BRANCH   1   8
HETATM    8  C   UNL     1       2.785  -1.724   2.076  1.00  0.00     0.257 C 
HETATM    9  N   UNL     1       3.876  -1.257   1.396  1.00  0.00    -0.348 N 
HETATM   10  H   UNL     1       4.133  -0.276   1.504  1.00  0.00     0.163 HD
HETATM   11  O   UNL     1       2.388  -2.883   1.993  1.00  0.00    -0.267 OA
BRANCH   9  12
HETATM   12  C   UNL     1       4.669  -2.063   0.486  1.00  0.00     0.114 C 
HETATM   13  C   UNL     1       5.556  -3.058   1.240  1.00  0.00     0.037 C 
BRANCH  12  14
HETATM   14  C   UNL     1       5.476  -1.141  -0.412  1.00  0.00    -0.035 A 
HETATM   15  C   UNL     1       5.148  -1.021  -1.772  1.00  0.00     0.021 A 
HETATM   16  C   UNL     1       5.838  -0.131  -2.615  1.00  0.00    -0.025 A 
HETATM   17  C   UNL     1       6.878   0.661  -2.085  1.00  0.00    -0.023 A 
HETATM   18  C   UNL     1       5.511  -0.003  -3.974  1.00  0.00     0.015 A 
HETATM   19  C   UNL     1       7.207   0.540  -0.727  1.00  0.00     0.013 A 
HETATM   20  C   UNL     1       7.557   1.558  -2.925  1.00  0.00     0.049 A 
HETATM   21  C   UNL     1       6.514  -0.347   0.099  1.00  0.00     0.010 A 
HETATM   22  C   UNL     1       7.221   1.683  -4.276  1.00  0.00     0.069 A 
HETATM   23  C   UNL     1       6.197   0.897  -4.799  1.00  0.00     0.037 A 
BRANCH  22  24
HETATM   24  O   UNL     1       7.964   2.601  -4.967  1.00  0.00    -0.356 OA
HETATM   25  C   UNL     1       7.630   2.800  -6.334  1.00  0.00     0.210 C 
ENDBRANCH  22  24
ENDBRANCH  12  14
ENDBRANCH   9  12
ENDBRANCH   1   8
BRANCH   4  26
HETATM   26  C   UNL     1       1.806   3.125   3.890  1.00  0.00     0.257 C 
HETATM   27  N   UNL     1       2.733   3.635   3.016  1.00  0.00    -0.352 N 
HETATM   28  H   UNL     1       3.316   2.975   2.502  1.00  0.00     0.163 HD
HETATM   29  O   UNL     1       1.150   3.821   4.659  1.00  0.00    -0.267 OA
BRANCH  27  30
HETATM   30  C   UNL     1       3.098   5.045   2.971  1.00  0.00     0.084 C 
HETATM   31  C   UNL     1       4.196   5.363   3.995  1.00  0.00     0.025 C 
HETATM   32  C   UNL     1       5.553   4.782   3.598  1.00  0.00     0.002 C 
HETATM   33  C   UNL     1       5.963   5.217   2.194  1.00  0.00     0.000 C 
HETATM   34  C   UNL     1       4.894   4.876   1.161  1.00  0.00     0.002 C 
HETATM   35  C   UNL     1       3.529   5.443   1.552  1.00  0.00     0.025 C 
ENDBRANCH  27  30
ENDBRANCH   4  26
BRANCH   6  36
HETATM   36  C   UNL     1      -0.868  -0.754   5.184  1.00  0.00     0.089 A 
HETATM   37  C   UNL     1      -0.867  -1.978   6.064  1.00  0.00     0.028 A 
HETATM   38  C   UNL     1      -1.053  -0.622   6.674  1.00  0.00     0.028 A 
ENDBRANCH   6  36
TORSDOF 7
