REMARK  7 active torsions:
REMARK  status: ('A' for Active; 'I' for Inactive)
REMARK    1  A    between atoms: C_5  and  N_6 
REMARK       I    between atoms: N_6  and  C_7 
REMARK    2  A    between atoms: C_7  and  C_8 
REMARK    3  A    between atoms: C_8  and  N_9 
REMARK    4  A    between atoms: N_12  and  C_13 
REMARK    5  A    between atoms: C_13  and  C_14 
REMARK    6  A    between atoms: C_29  and  C_30 
REMARK       I    between atoms: C_30  and  N_31 
REMARK    7  A    between atoms: N_31  and  C_32 
ROOT
HETATM    1  N   UNL     1       5.671  -2.132   0.125  1.00  0.00    -0.290 N 
HETATM    2  C   UNL     1       5.446  -0.877   0.666  1.00  0.00     0.332 C 
HETATM    3  O   UNL     1       6.324  -0.011   0.618  1.00  0.00    -0.246 OA
HETATM    4  N   UNL     1       4.208  -0.657   1.246  1.00  0.00    -0.261 N 
HETATM    5  C   UNL     1       3.284  -1.651   1.525  1.00  0.00     0.264 C 
HETATM    6  O   UNL     1       2.199  -1.453   2.066  1.00  0.00    -0.267 OA
HETATM    7  C   UNL     1       3.643  -3.021   1.121  1.00  0.00     0.059 A 
HETATM    8  C   UNL     1       4.820  -3.233   0.402  1.00  0.00     0.056 A 
HETATM    9  C   UNL     1       2.770  -4.080   1.418  1.00  0.00     0.020 A 
HETATM   10  C   UNL     1       3.069  -5.373   0.990  1.00  0.00     0.018 A 
HETATM   11  C   UNL     1       4.239  -5.602   0.263  1.00  0.00     0.034 A 
HETATM   12  C   UNL     1       5.118  -4.538  -0.012  1.00  0.00     0.048 A 
ENDROOT
BRANCH   1  13
HETATM   13  C   UNL     1       6.757  -2.255  -0.853  1.00  0.00     0.237 C 
BRANCH  13  14
HETATM   14  C   UNL     1       8.111  -2.692  -0.296  1.00  0.00     0.240 C 
HETATM   15  N   UNL     1       8.581  -1.889   0.728  1.00  0.00    -0.326 N 
HETATM   16  H   UNL     1       7.961  -1.143   1.037  1.00  0.00     0.169 HD
HETATM   17  O   UNL     1       8.720  -3.609  -0.841  1.00  0.00    -0.271 OA
BRANCH  15  18
HETATM   18  C   UNL     1       9.857  -1.930   1.327  1.00  0.00     0.034 A 
HETATM   19  C   UNL     1      10.884  -2.781   0.917  1.00  0.00     0.030 A 
HETATM   20  C   UNL     1      12.141  -2.732   1.532  1.00  0.00     0.009 A 
HETATM   21  C   UNL     1      12.392  -1.829   2.568  1.00  0.00    -0.062 A 
HETATM   22  C   UNL     1      13.734  -1.799   3.237  1.00  0.00     0.048 C 
HETATM   23  C   UNL     1      11.356  -0.997   3.002  1.00  0.00     0.009 A 
HETATM   24  C   UNL     1      10.103  -1.040   2.379  1.00  0.00     0.030 A 
ENDBRANCH  15  18
ENDBRANCH  13  14
ENDBRANCH   1  13
BRANCH   4  25
HETATM   25  C   UNL     1       3.817   0.728   1.485  1.00  0.00     0.175 C 
BRANCH  25  26
HETATM   26  C   UNL     1       3.367   1.373   0.185  1.00  0.00    -0.037 A 
HETATM   27  C   UNL     1       2.101   1.079  -0.352  1.00  0.00     0.048 A 
HETATM   28  C   UNL     1       1.788   1.588  -1.595  1.00  0.00     0.105 A 
HETATM   29  C   UNL     1       2.669   2.371  -2.302  1.00  0.00     0.105 A 
HETATM   30  O   UNL     1       0.629   1.371  -2.273  1.00  0.00    -0.323 OA
HETATM   31  O   UNL     1       2.175   2.746  -3.512  1.00  0.00    -0.323 OA
HETATM   32  C   UNL     1       3.910   2.697  -1.804  1.00  0.00     0.040 A 
HETATM   33  C   UNL     1       0.890   2.091  -3.496  1.00  0.00     0.352 A 
HETATM   34  C   UNL     1       4.261   2.189  -0.550  1.00  0.00     0.012 A 
ENDBRANCH  25  26
ENDBRANCH   4  25
BRANCH  11  35
HETATM   35  C   UNL     1       4.612  -6.956  -0.224  1.00  0.00     0.252 C 
HETATM   36  N   UNL     1       3.567  -7.763  -0.611  1.00  0.00    -0.352 N 
HETATM   37  H   UNL     1       2.652  -7.338  -0.666  1.00  0.00     0.163 HD
HETATM   38  O   UNL     1       5.795  -7.248  -0.290  1.00  0.00    -0.268 OA
BRANCH  36  39
HETATM   39  C   UNL     1       3.682  -9.072  -1.256  1.00  0.00     0.084 C 
HETATM   40  C   UNL     1       4.153  -8.985  -2.713  1.00  0.00     0.025 C 
HETATM   41  C   UNL     1       5.662  -9.085  -2.899  1.00  0.00     0.002 C 
HETATM   42  C   UNL     1       6.235 -10.300  -2.182  1.00  0.00     0.000 C 
HETATM   43  C   UNL     1       5.903 -10.293  -0.696  1.00  0.00     0.002 C 
HETATM   44  C   UNL     1       4.408 -10.142  -0.425  1.00  0.00     0.025 C 
ENDBRANCH  36  39
ENDBRANCH  11  35
TORSDOF 7
