REMARK  7 active torsions:
REMARK  status: ('A' for Active; 'I' for Inactive)
REMARK    1  A    between atoms: C_2  and  N_3 
REMARK    2  A    between atoms: C_2  and  C_10 
REMARK    3  A    between atoms: N_11  and  C_12 
REMARK    4  A    between atoms: C_19  and  S_20 
REMARK    5  A    between atoms: S_20  and  C_21 
REMARK    6  A    between atoms: C_21  and  C_22 
REMARK    7  A    between atoms: C_21  and  C_28 
REMARK       I    between atoms: C_22  and  N_23 
REMARK       I    between atoms: N_23  and  C_24 
REMARK       I    between atoms: C_24  and  N_25 
ROOT
HETATM    1  C   UNL     1       2.629   1.828   0.548  1.00  0.00     0.166 A 
HETATM    2  N   UNL     1       2.398   3.125   0.103  1.00  0.00    -0.274 N 
HETATM    3  C   UNL     1       3.283   3.890   0.842  1.00  0.00     0.197 A 
HETATM    4  N   UNL     1       3.933   3.130   1.694  1.00  0.00    -0.122 NA
HETATM    5  N   UNL     1       3.521   1.840   1.517  1.00  0.00    -0.131 NA
ENDROOT
BRANCH   3   6
HETATM    6  S   UNL     1       3.441   5.614   0.799  1.00  0.00    -0.070 SA
BRANCH   6   7
HETATM    7  C   UNL     1       1.855   6.175   1.520  1.00  0.00     0.180 C 
BRANCH   7   8
HETATM    8  C   UNL     1       1.610   5.461   2.859  1.00  0.00     0.244 C 
HETATM    9  N   UNL     1       2.219   6.045   3.959  1.00  0.00    -0.278 N 
HETATM   10  C   UNL     1       2.010   5.793   5.283  1.00  0.00     0.320 C 
HETATM   11  H   UNL     1       2.793   6.868   3.823  1.00  0.00     0.173 HD
HETATM   12  N   UNL     1       1.150   4.802   5.592  1.00  0.00    -0.352 N 
HETATM   13  O   UNL     1       2.548   6.468   6.152  1.00  0.00    -0.247 OA
HETATM   14  H   UNL     1       0.913   4.111   4.890  1.00  0.00     0.160 HD
HETATM   15  H   UNL     1       1.062   4.557   6.569  1.00  0.00     0.160 HD
HETATM   16  O   UNL     1       0.988   4.393   2.897  1.00  0.00    -0.271 OA
ENDBRANCH   7   8
BRANCH   7  17
HETATM   17  C   UNL     1       1.677   7.688   1.615  1.00  0.00    -0.035 A 
HETATM   18  C   UNL     1       2.736   8.610   1.570  1.00  0.00     0.009 A 
HETATM   19  C   UNL     1       2.498   9.982   1.693  1.00  0.00     0.001 A 
HETATM   20  C   UNL     1       1.203  10.456   1.877  1.00  0.00     0.000 A 
HETATM   21  C   UNL     1       0.141   9.561   1.935  1.00  0.00     0.001 A 
HETATM   22  C   UNL     1       0.374   8.191   1.804  1.00  0.00     0.009 A 
ENDBRANCH   7  17
ENDBRANCH   6   7
ENDBRANCH   3   6
BRANCH   2  23
HETATM   23  C   UNL     1       1.475   3.534  -0.888  1.00  0.00     0.043 A 
HETATM   24  C   UNL     1       0.147   3.083  -0.823  1.00  0.00     0.033 A 
HETATM   25  C   UNL     1      -0.768   3.486  -1.798  1.00  0.00     0.044 A 
HETATM   26  C   UNL     1      -0.357   4.333  -2.820  1.00  0.00     0.116 A 
HETATM   27  F   UNL     1      -1.239   4.713  -3.752  1.00  0.00    -0.206 F 
HETATM   28  C   UNL     1       0.952   4.796  -2.883  1.00  0.00     0.044 A 
HETATM   29  C   UNL     1       1.876   4.401  -1.913  1.00  0.00     0.033 A 
ENDBRANCH   2  23
BRANCH   1  30
HETATM   30  C   UNL     1       2.111   0.566  -0.075  1.00  0.00     0.255 C 
HETATM   31  C   UNL     1       3.109   0.125  -1.155  1.00  0.00     0.049 C 
BRANCH  30  32
HETATM   32  N   UNL     1       1.945  -0.546   0.988  1.00  0.00    -0.060 N 
HETATM   33  H   UNL     1       2.858  -0.581   1.471  1.00  0.00     0.280 HD
HETATM   34  C   UNL     1       0.923  -0.148   2.042  1.00  0.00     0.236 C 
HETATM   35  C   UNL     1       0.865  -1.195   3.144  1.00  0.00     0.028 C 
HETATM   36  C   UNL     1       0.550  -2.574   2.585  1.00  0.00     0.003 C 
HETATM   37  C   UNL     1       1.562  -2.956   1.516  1.00  0.00     0.028 C 
HETATM   38  C   UNL     1       1.648  -1.912   0.412  1.00  0.00     0.236 C 
ENDBRANCH  30  32
ENDBRANCH   1  30
TORSDOF 7
