REMARK  8 active torsions:
REMARK  status: ('A' for Active; 'I' for Inactive)
REMARK    1  A    between atoms: C_6  and  N_7 
REMARK       I    between atoms: N_7  and  C_8 
REMARK    2  A    between atoms: C_8  and  C_9 
REMARK    3  A    between atoms: C_9  and  N_10 
REMARK    4  A    between atoms: C_13  and  C_14 
REMARK       I    between atoms: C_14  and  N_15 
REMARK    5  A    between atoms: N_15  and  C_16 
REMARK    6  A    between atoms: C_16  and  C_17 
REMARK    7  A    between atoms: C_19  and  O_20 
REMARK    8  A    between atoms: C_26  and  N_27 
ROOT
HETATM    1  N   UNL     1       5.361   2.898   0.930  1.00  0.00    -0.248 N 
HETATM    2  N   UNL     1       4.990   2.034   1.899  1.00  0.00     0.007 NA
HETATM    3  N   UNL     1       3.688   2.170   2.081  1.00  0.00    -0.150 NA
HETATM    4  C   UNL     1       3.237   3.189   1.273  1.00  0.00     0.186 A 
HETATM    5  C   UNL     1       4.294   3.655   0.499  1.00  0.00     0.151 A 
ENDROOT
BRANCH   1   6
HETATM    6  C   UNL     1       6.762   2.987   0.583  1.00  0.00     0.251 C 
BRANCH   6   7
HETATM    7  C   UNL     1       7.332   1.694   0.026  1.00  0.00     0.241 C 
HETATM    8  N   UNL     1       7.145   0.592   0.843  1.00  0.00    -0.326 N 
HETATM    9  H   UNL     1       6.458   0.700   1.591  1.00  0.00     0.169 HD
HETATM   10  O   UNL     1       7.971   1.711  -1.023  1.00  0.00    -0.271 OA
BRANCH   8  11
HETATM   11  C   UNL     1       7.711  -0.693   0.721  1.00  0.00     0.036 A 
HETATM   12  C   UNL     1       8.689  -1.035  -0.212  1.00  0.00     0.053 A 
HETATM   13  C   UNL     1       9.230  -2.328  -0.228  1.00  0.00     0.042 A 
HETATM   14  C   UNL     1       8.799  -3.304   0.684  1.00  0.00    -0.040 A 
HETATM   15 CL   UNL     1      10.455  -2.676  -1.398  1.00  0.00    -0.084 Cl
HETATM   16  C   UNL     1       9.376  -4.691   0.703  1.00  0.00     0.050 C 
HETATM   17  C   UNL     1       7.812  -2.954   1.614  1.00  0.00     0.011 A 
HETATM   18  C   UNL     1       7.277  -1.663   1.631  1.00  0.00     0.030 A 
ENDBRANCH   8  11
ENDBRANCH   6   7
ENDBRANCH   1   6
BRANCH   5  19
HETATM   19  N   UNL     1       4.379   4.602  -0.472  1.00  0.00    -0.382 N 
HETATM   20  H   UNL     1       3.526   4.886  -0.956  1.00  0.00     0.157 HD
HETATM   21  H   UNL     1       5.169   4.630  -1.117  1.00  0.00     0.157 HD
ENDBRANCH   5  19
BRANCH   4  22
HETATM   22  C   UNL     1       1.851   3.634   1.313  1.00  0.00     0.275 C 
HETATM   23  N   UNL     1       1.663   4.976   1.054  1.00  0.00    -0.351 N 
HETATM   24  H   UNL     1       2.471   5.566   0.896  1.00  0.00     0.163 HD
HETATM   25  O   UNL     1       0.922   2.881   1.593  1.00  0.00    -0.266 OA
BRANCH  23  26
HETATM   26  C   UNL     1       0.348   5.570   1.095  1.00  0.00     0.161 C 
BRANCH  26  27
HETATM   27  C   UNL     1       0.410   7.013   1.523  1.00  0.00    -0.038 A 
HETATM   28  C   UNL     1       0.792   7.343   2.837  1.00  0.00     0.045 A 
HETATM   29  C   UNL     1       0.831   8.675   3.255  1.00  0.00     0.068 A 
HETATM   30  C   UNL     1       0.488   9.683   2.352  1.00  0.00     0.037 A 
HETATM   31  C   UNL     1       0.109   9.370   1.046  1.00  0.00     0.003 A 
HETATM   32  C   UNL     1       0.071   8.040   0.632  1.00  0.00     0.009 A 
BRANCH  29  33
HETATM   33  O   UNL     1       1.180   9.119   4.500  1.00  0.00    -0.356 OA
HETATM   34  C   UNL     1       1.486   8.130   5.475  1.00  0.00     0.210 C 
ENDBRANCH  29  33
ENDBRANCH  26  27
ENDBRANCH  23  26
ENDBRANCH   4  22
TORSDOF 8
