REMARK  2 active torsions:
REMARK  status: ('A' for Active; 'I' for Inactive)
REMARK    1  A    between atoms: C_8  and  N_9 
REMARK       I    between atoms: N_9  and  C_10 
REMARK       I    between atoms: C_10  and  N_11 
REMARK    2  A    between atoms: N_11  and  C_12 
ROOT
HETATM    1  N   UNL     1       7.163  -4.383  -1.214  1.00  0.00    -0.309 N 
HETATM    2  C   UNL     1       6.544  -3.249  -1.625  1.00  0.00     0.321 C 
HETATM    3  N   UNL     1       7.169  -2.064  -1.394  1.00  0.00    -0.337 N 
HETATM    4  O   UNL     1       5.480  -3.310  -2.242  1.00  0.00    -0.247 OA
HETATM    5  H   UNL     1       6.761  -5.214  -1.639  1.00  0.00     0.170 HD
HETATM    6  H   UNL     1       8.173  -2.141  -1.269  1.00  0.00     0.164 HD
ENDROOT
BRANCH   1   7
HETATM    7  C   UNL     1       8.150  -4.627  -0.236  1.00  0.00     0.037 A 
HETATM    8  C   UNL     1       8.531  -3.696   0.739  1.00  0.00     0.051 A 
HETATM    9  C   UNL     1       9.495  -4.077   1.695  1.00  0.00     0.037 A 
HETATM   10  S   UNL     1      10.146  -3.161   3.002  1.00  0.00    -0.073 SA
HETATM   11  C   UNL     1      10.070  -5.346   1.706  1.00  0.00     0.075 A 
HETATM   12  C   UNL     1      11.116  -4.500   3.461  1.00  0.00     0.072 A 
HETATM   13  C   UNL     1      12.021  -4.418   4.641  1.00  0.00     0.079 C 
HETATM   14  N   UNL     1      10.993  -5.571   2.708  1.00  0.00    -0.245 NA
HETATM   15  C   UNL     1       9.665  -6.276   0.732  1.00  0.00     0.035 A 
HETATM   16  C   UNL     1       8.706  -5.910  -0.221  1.00  0.00     0.032 A 
ENDBRANCH   1   7
BRANCH   3  17
HETATM   17  C   UNL     1       6.638  -0.726  -1.686  1.00  0.00     0.113 C 
HETATM   18  C   UNL     1       5.930  -0.565  -3.038  1.00  0.00     0.257 C 
HETATM   19  N   UNL     1       4.537  -1.029  -2.751  1.00  0.00    -0.073 N 
HETATM   20  H   UNL     1       3.831  -0.716  -3.427  1.00  0.00     0.277 HD
HETATM   21  H   UNL     1       4.573  -2.071  -2.811  1.00  0.00     0.277 HD
HETATM   22  C   UNL     1       4.224  -0.707  -1.327  1.00  0.00     0.234 C 
HETATM   23  C   UNL     1       5.553  -0.306  -0.698  1.00  0.00     0.054 C 
ENDBRANCH   3  17
TORSDOF 2
