REMARK  7 active torsions:
REMARK  status: ('A' for Active; 'I' for Inactive)
REMARK    1  A    between atoms: O_2  and  C_3 
REMARK    2  A    between atoms: C_6  and  C_7 
REMARK    3  A    between atoms: C_7  and  C_8 
REMARK    4  A    between atoms: C_7  and  C_14 
REMARK    5  A    between atoms: C_14  and  C_15 
REMARK       I    between atoms: C_15  and  N_16 
REMARK    6  A    between atoms: N_16  and  C_17 
REMARK    7  A    between atoms: C_17  and  C_18 
ROOT
HETATM    1  C   UNL     1       4.915  -4.805   1.322  1.00  0.00     0.060 C 
ENDROOT
BRANCH   1   2
HETATM    2  C   UNL     1       6.033  -4.509   0.309  1.00  0.00    -0.049 A 
HETATM    3  C   UNL     1       7.294  -4.019   0.683  1.00  0.00     0.010 A 
HETATM    4  C   UNL     1       8.278  -3.747  -0.274  1.00  0.00     0.037 A 
HETATM    5  C   UNL     1       8.031  -3.943  -1.631  1.00  0.00     0.068 A 
HETATM    6  C   UNL     1       6.777  -4.397  -2.026  1.00  0.00     0.037 A 
HETATM    7  C   UNL     1       5.790  -4.667  -1.068  1.00  0.00     0.010 A 
BRANCH   5   8
HETATM    8  O   UNL     1       9.079  -3.645  -2.457  1.00  0.00    -0.356 OA
HETATM    9  C   UNL     1       8.905  -3.924  -3.840  1.00  0.00     0.210 C 
ENDBRANCH   5   8
ENDBRANCH   1   2
BRANCH   1  10
HETATM   10  C   UNL     1       5.303  -4.616   2.790  1.00  0.00    -0.049 A 
HETATM   11  C   UNL     1       6.121  -5.540   3.463  1.00  0.00     0.008 A 
HETATM   12  C   UNL     1       6.448  -5.355   4.807  1.00  0.00     0.001 A 
HETATM   13  C   UNL     1       5.963  -4.247   5.498  1.00  0.00     0.000 A 
HETATM   14  C   UNL     1       5.151  -3.322   4.845  1.00  0.00     0.001 A 
HETATM   15  C   UNL     1       4.824  -3.503   3.500  1.00  0.00     0.008 A 
ENDBRANCH   1  10
BRANCH   1  16
HETATM   16  C   UNL     1       4.275  -6.195   1.091  1.00  0.00     0.116 C 
BRANCH  16  17
HETATM   17  C   UNL     1       3.160  -6.541   2.058  1.00  0.00     0.218 C 
HETATM   18  N   UNL     1       2.141  -5.630   2.129  1.00  0.00    -0.355 N 
HETATM   19  H   UNL     1       2.230  -4.699   1.740  1.00  0.00     0.162 HD
HETATM   20  O   UNL     1       3.143  -7.605   2.674  1.00  0.00    -0.274 OA
BRANCH  18  21
HETATM   21  C   UNL     1       1.095  -5.753   3.117  1.00  0.00     0.184 C 
BRANCH  21  22
HETATM   22  C   UNL     1       0.198  -4.559   3.023  1.00  0.00     0.080 A 
HETATM   23  N   UNL     1       0.625  -3.395   2.470  1.00  0.00    -0.177 NA
HETATM   24  N   UNL     1      -0.442  -2.560   2.561  1.00  0.00    -0.281 N 
HETATM   25  H   UNL     1      -0.354  -1.613   2.205  1.00  0.00     0.189 HD
HETATM   26  C   UNL     1      -1.495  -3.167   3.139  1.00  0.00     0.036 A 
HETATM   27  C   UNL     1      -1.128  -4.439   3.449  1.00  0.00    -0.006 A 
HETATM   28  C   UNL     1      -2.873  -2.802   3.488  1.00  0.00     0.059 C 
HETATM   29  C   UNL     1      -2.225  -5.186   4.083  1.00  0.00     0.043 C 
HETATM   30  C   UNL     1      -3.276  -4.048   4.355  1.00  0.00     0.011 C 
ENDBRANCH  21  22
ENDBRANCH  18  21
ENDBRANCH  16  17
ENDBRANCH   1  16
TORSDOF 7
