REMARK  9 active torsions:
REMARK  status: ('A' for Active; 'I' for Inactive)
REMARK    1  A    between atoms: O_2  and  C_3 
REMARK    2  A    between atoms: C_3  and  C_4 
REMARK    3  A    between atoms: C_4  and  S_5 
REMARK    4  A    between atoms: S_5  and  C_6 
REMARK    5  A    between atoms: C_7  and  C_8 
REMARK       I    between atoms: C_8  and  N_9 
REMARK    6  A    between atoms: N_9  and  C_10 
REMARK    7  A    between atoms: C_11  and  C_12 
REMARK       I    between atoms: C_12  and  N_13 
REMARK    8  A    between atoms: N_13  and  C_14 
REMARK    9  A    between atoms: C_14  and  C_15 
ROOT
HETATM    1  C   UNL     1       4.557   0.664  -3.282  1.00  0.00     0.050 A 
HETATM    2  C   UNL     1       5.321   0.087  -4.309  1.00  0.00     0.058 A 
HETATM    3  C   UNL     1       4.726  -0.779  -5.240  1.00  0.00     0.019 A 
HETATM    4  C   UNL     1       3.371  -1.088  -5.142  1.00  0.00     0.001 A 
HETATM    5  C   UNL     1       2.616  -0.559  -4.098  1.00  0.00     0.002 A 
HETATM    6  C   UNL     1       3.208   0.300  -3.167  1.00  0.00     0.030 A 
ENDROOT
BRANCH   1   7
HETATM    7  N   UNL     1       5.048   1.580  -2.326  1.00  0.00    -0.322 N 
HETATM    8  C   UNL     1       5.975   2.577  -2.596  1.00  0.00     0.257 C 
HETATM    9  O   UNL     1       6.315   2.918  -3.721  1.00  0.00    -0.267 OA
HETATM   10  H   UNL     1       4.525   1.669  -1.464  1.00  0.00     0.169 HD
BRANCH   8  11
HETATM   11  C   UNL     1       6.463   3.296  -1.385  1.00  0.00     0.049 A 
HETATM   12  C   UNL     1       6.633   4.692  -1.332  1.00  0.00     0.016 A 
HETATM   13  C   UNL     1       7.116   5.262  -0.140  1.00  0.00     0.019 A 
HETATM   14  C   UNL     1       7.417   4.475   0.974  1.00  0.00     0.001 A 
HETATM   15  C   UNL     1       7.257   3.096   0.912  1.00  0.00     0.001 A 
HETATM   16  C   UNL     1       6.791   2.508  -0.263  1.00  0.00     0.018 A 
BRANCH  12  17
HETATM   17  S   UNL     1       6.313   5.857  -2.653  1.00  0.00    -0.127 SA
BRANCH  17  18
HETATM   18  C   UNL     1       4.502   5.691  -2.867  1.00  0.00     0.106 C 
BRANCH  18  19
HETATM   19  C   UNL     1       3.692   6.071  -1.628  1.00  0.00     0.177 C 
BRANCH  19  20
HETATM   20  O   UNL     1       3.860   7.455  -1.323  1.00  0.00    -0.395 OA
HETATM   21  C   UNL     1       3.149   7.827  -0.151  1.00  0.00     0.201 C 
ENDBRANCH  19  20
ENDBRANCH  18  19
ENDBRANCH  17  18
ENDBRANCH  12  17
ENDBRANCH   8  11
ENDBRANCH   1   7
BRANCH   2  22
HETATM   22  C   UNL     1       6.799   0.152  -4.348  1.00  0.00     0.254 C 
HETATM   23  N   UNL     1       7.305   0.950  -5.347  1.00  0.00    -0.354 N 
HETATM   24  H   UNL     1       6.705   1.743  -5.564  1.00  0.00     0.162 HD
HETATM   25  O   UNL     1       7.457  -0.519  -3.563  1.00  0.00    -0.268 OA
BRANCH  23  26
HETATM   26  C   UNL     1       8.730   1.208  -5.452  1.00  0.00     0.155 C 
BRANCH  26  27
HETATM   27  C   UNL     1       9.154   1.409  -6.906  1.00  0.00     0.139 C 
HETATM   28  O   UNL     1      10.514   1.873  -6.993  1.00  0.00    -0.384 OA
HETATM   29  C   UNL     1      11.126   1.259  -8.138  1.00  0.00     0.168 C 
HETATM   30  C   UNL     1      10.053   0.463  -8.851  1.00  0.00     0.029 C 
HETATM   31  C   UNL     1       9.102   0.132  -7.729  1.00  0.00     0.035 C 
ENDBRANCH  26  27
ENDBRANCH  23  26
ENDBRANCH   2  22
TORSDOF 9
