REMARK  9 active torsions:
REMARK  status: ('A' for Active; 'I' for Inactive)
REMARK    1  A    between atoms: C_4  and  S_5 
REMARK    2  A    between atoms: S_5  and  C_6 
REMARK    3  A    between atoms: C_6  and  C_7 
REMARK       I    between atoms: C_7  and  N_8 
REMARK    4  A    between atoms: N_8  and  C_9 
REMARK    5  A    between atoms: N_11  and  C_12 
REMARK    6  A    between atoms: C_12  and  C_13 
REMARK       I    between atoms: C_13  and  N_14 
REMARK    7  A    between atoms: N_14  and  C_15 
REMARK    8  A    between atoms: C_15  and  C_16 
REMARK    9  A    between atoms: C_16  and  N_17 
ROOT
HETATM    1  C   UNL     1       0.482   2.486   0.198  1.00  0.00     0.253 C 
ENDROOT
BRANCH   1   2
HETATM    2  N   UNL     1      -0.240   2.918  -0.991  1.00  0.00    -0.270 N 
HETATM    3  C   UNL     1      -1.041   4.024  -1.043  1.00  0.00     0.144 A 
HETATM    4  C   UNL     1      -1.706   3.977  -2.241  1.00  0.00     0.071 A 
HETATM    5  C   UNL     1      -1.203   2.817  -2.870  1.00  0.00     0.169 A 
HETATM    6  N   UNL     1      -0.337   2.141  -2.101  1.00  0.00    -0.183 NA
BRANCH   4   7
HETATM    7  N   UNL     1      -2.684   4.833  -2.711  1.00  0.00    -0.324 N 
HETATM    8  C   UNL     1      -3.251   5.862  -1.978  1.00  0.00     0.231 C 
HETATM    9  O   UNL     1      -2.831   6.281  -0.900  1.00  0.00    -0.272 OA
HETATM   10  H   UNL     1      -3.137   4.588  -3.586  1.00  0.00     0.169 HD
BRANCH   8  11
HETATM   11  C   UNL     1      -4.471   6.505  -2.621  1.00  0.00     0.182 C 
BRANCH  11  12
HETATM   12  S   UNL     1      -5.492   5.329  -3.577  1.00  0.00    -0.121 SA
BRANCH  12  13
HETATM   13  C   UNL     1      -6.209   4.244  -2.344  1.00  0.00     0.001 A 
HETATM   14  C   UNL     1      -5.931   4.265  -0.974  1.00  0.00     0.018 A 
HETATM   15  C   UNL     1      -6.531   3.343  -0.108  1.00  0.00     0.001 A 
HETATM   16  C   UNL     1      -7.426   2.397  -0.598  1.00  0.00     0.000 A 
HETATM   17  C   UNL     1      -7.724   2.371  -1.956  1.00  0.00     0.001 A 
HETATM   18  C   UNL     1      -7.118   3.286  -2.821  1.00  0.00     0.018 A 
ENDBRANCH  12  13
ENDBRANCH  11  12
ENDBRANCH   8  11
ENDBRANCH   4   7
ENDBRANCH   1   2
BRANCH   1  19
HETATM   19  C   UNL     1       1.652   1.546  -0.006  1.00  0.00     0.237 C 
HETATM   20  N   UNL     1       1.555   0.614  -1.018  1.00  0.00    -0.357 N 
HETATM   21  H   UNL     1       0.912   0.886  -1.773  1.00  0.00     0.162 HD
HETATM   22  O   UNL     1       2.590   1.517   0.790  1.00  0.00    -0.272 OA
BRANCH  20  23
HETATM   23  C   UNL     1       2.643  -0.296  -1.322  1.00  0.00     0.161 C 
BRANCH  23  24
HETATM   24  C   UNL     1       2.605  -1.675  -0.576  1.00  0.00     0.143 C 
HETATM   25  C   UNL     1       2.732  -1.514   0.962  1.00  0.00     0.041 C 
HETATM   26  C   UNL     1       2.874  -2.837   1.716  1.00  0.00     0.002 C 
HETATM   27  C   UNL     1       4.057  -3.649   1.202  1.00  0.00     0.000 C 
HETATM   28  C   UNL     1       4.008  -3.841  -0.310  1.00  0.00     0.002 C 
HETATM   29  C   UNL     1       3.836  -2.509  -1.043  1.00  0.00     0.041 C 
BRANCH  24  30
HETATM   30  N   UNL     1       1.296  -2.483  -0.915  1.00  0.00    -0.057 N 
HETATM   31  H   UNL     1       1.431  -3.412  -0.504  1.00  0.00     0.281 HD
HETATM   32  C   UNL     1      -0.012  -1.967  -0.288  1.00  0.00     0.262 C 
HETATM   33  C   UNL     1      -1.136  -2.980  -0.553  1.00  0.00     0.195 C 
HETATM   34  O   UNL     1      -1.322  -3.188  -1.955  1.00  0.00    -0.388 OA
HETATM   35  C   UNL     1      -0.139  -3.692  -2.579  1.00  0.00     0.195 C 
HETATM   36  C   UNL     1       1.034  -2.718  -2.410  1.00  0.00     0.262 C 
ENDBRANCH  24  30
ENDBRANCH  23  24
ENDBRANCH  20  23
ENDBRANCH   1  19
TORSDOF 9
