REMARK  6 active torsions:
REMARK  status: ('A' for Active; 'I' for Inactive)
REMARK    1  A    between atoms: N_6  and  C_8 
REMARK    2  A    between atoms: C_8  and  C_9 
REMARK    3  A    between atoms: C_9  and  C_10 
REMARK    4  A    between atoms: C_10  and  N_11 
REMARK       I    between atoms: N_11  and  C_12 
REMARK       I    between atoms: C_12  and  N_13 
REMARK    5  A    between atoms: N_13  and  N_14 
REMARK       I    between atoms: N_14  and  C_15 
REMARK    6  A    between atoms: C_15  and  C_16 
ROOT
HETATM    1  N   UNL     1      -5.224  -0.618   1.572  1.00  0.00    -0.342 N 
HETATM    2  C   UNL     1      -4.137  -0.606   2.405  1.00  0.00     0.334 C 
HETATM    3  N   UNL     1      -4.483  -0.516   3.728  1.00  0.00    -0.249 N 
HETATM    4  O   UNL     1      -2.982  -0.573   1.980  1.00  0.00    -0.246 OA
HETATM    5  H   UNL     1      -6.139  -0.735   1.993  1.00  0.00     0.164 HD
HETATM    6  H   UNL     1      -5.379  -0.884   4.051  1.00  0.00     0.192 HD
ENDROOT
BRANCH   1   7
HETATM    7  C   UNL     1      -5.106  -0.776   0.140  1.00  0.00     0.126 C 
BRANCH   7   8
HETATM    8  C   UNL     1      -4.930   0.546  -0.609  1.00  0.00     0.047 C 
BRANCH   8   9
HETATM    9  C   UNL     1      -3.708   1.394  -0.246  1.00  0.00     0.237 C 
BRANCH   9  10
HETATM   10  N   UNL     1      -2.402   0.652  -0.327  1.00  0.00    -0.067 N 
HETATM   11  C   UNL     1      -2.087   0.091  -1.688  1.00  0.00     0.274 C 
HETATM   12  C   UNL     1      -0.697  -0.468  -1.828  1.00  0.00    -0.026 A 
HETATM   13  C   UNL     1       0.300  -0.206  -0.870  1.00  0.00    -0.049 A 
HETATM   14  C   UNL     1      -0.375  -1.225  -2.965  1.00  0.00     0.009 A 
HETATM   15  C   UNL     1       1.584  -0.738  -1.044  1.00  0.00     0.007 A 
HETATM   16  C   UNL     1      -0.015   0.595   0.366  1.00  0.00     0.067 C 
HETATM   17  C   UNL     1       1.888  -1.495  -2.175  1.00  0.00     0.001 A 
HETATM   18  C   UNL     1       0.911  -1.735  -3.136  1.00  0.00     0.001 A 
HETATM   19  C   UNL     1      -1.246   1.482   0.186  1.00  0.00     0.240 C 
HETATM   20  H   UNL     1      -2.469  -0.133   0.354  1.00  0.00     0.280 HD
ENDBRANCH   9  10
ENDBRANCH   8   9
ENDBRANCH   7   8
ENDBRANCH   1   7
BRANCH   3  21
HETATM   21  N   UNL     1      -3.471  -0.570   4.697  1.00  0.00    -0.261 N 
HETATM   22  C   UNL     1      -3.809  -0.965   5.981  1.00  0.00     0.277 C 
HETATM   23  O   UNL     1      -4.966  -1.308   6.233  1.00  0.00    -0.265 OA
HETATM   24  H   UNL     1      -2.521  -0.328   4.431  1.00  0.00     0.190 HD
BRANCH  22  25
HETATM   25  C   UNL     1      -2.744  -0.938   6.969  1.00  0.00     0.075 A 
HETATM   26  S   UNL     1      -1.157  -0.397   6.595  1.00  0.00    -0.077 SA
HETATM   27  C   UNL     1      -0.634  -0.643   8.186  1.00  0.00     0.052 A 
HETATM   28 BR   UNL     1       1.111  -0.274   8.756  1.00  0.00    -0.043 Br
HETATM   29  C   UNL     1      -1.613  -1.135   9.010  1.00  0.00     0.028 A 
HETATM   30  C   UNL     1      -2.840  -1.307   8.301  1.00  0.00     0.026 A 
ENDBRANCH  22  25
ENDBRANCH   3  21
TORSDOF 6
