REMARK  3 active torsions:
REMARK  status: ('A' for Active; 'I' for Inactive)
REMARK    1  A    between atoms: C_5  and  C_6 
REMARK    2  A    between atoms: C_11  and  C_12 
REMARK    3  A    between atoms: C_23  and  O_24 
ROOT
HETATM    1  C   UNL     1       6.661  -0.119  -0.711  1.00  0.00     0.031 C 
HETATM    2  C   UNL     1       7.443  -1.206  -0.786  1.00  0.00     0.066 A 
HETATM    3  C   UNL     1       7.132  -2.590  -0.349  1.00  0.00     0.274 A 
HETATM    4  O   UNL     1       6.095  -3.061   0.070  1.00  0.00    -0.266 OA
HETATM    5  N   UNL     1       8.345  -3.244  -0.503  1.00  0.00    -0.242 N 
HETATM    6  C   UNL     1       8.864  -1.285  -1.220  1.00  0.00     0.111 A 
HETATM    7  N   UNL     1       9.369  -2.481  -1.010  1.00  0.00    -0.170 NA
HETATM    8  H   UNL     1       8.474  -4.227  -0.291  1.00  0.00     0.192 HD
ENDROOT
BRANCH   6   9
HETATM    9  C   UNL     1       9.639  -0.158  -1.781  1.00  0.00     0.098 C 
HETATM   10  C   UNL     1       9.077   0.752  -2.815  1.00  0.00     0.263 C 
HETATM   11  O   UNL     1       7.985   0.488  -3.318  1.00  0.00    -0.267 OA
HETATM   12  N   UNL     1       9.819   1.873  -3.170  1.00  0.00    -0.317 N 
HETATM   13  C   UNL     1       9.233   2.816  -4.111  1.00  0.00     0.159 C 
HETATM   14  C   UNL     1      11.156   2.067  -2.711  1.00  0.00     0.050 A 
HETATM   15  C   UNL     1      11.720   1.129  -1.829  1.00  0.00     0.025 A 
HETATM   16  C   UNL     1      11.934   3.157  -3.136  1.00  0.00     0.031 A 
HETATM   17  C   UNL     1      13.048   1.296  -1.401  1.00  0.00     0.016 A 
HETATM   18  C   UNL     1      10.908  -0.004  -1.360  1.00  0.00     0.096 C 
HETATM   19  C   UNL     1      13.811   2.380  -1.835  1.00  0.00     0.001 A 
HETATM   20  C   UNL     1      13.252   3.311  -2.701  1.00  0.00     0.002 A 
BRANCH  18  21
HETATM   21  O   UNL     1      11.543  -0.854  -0.468  1.00  0.00    -0.359 OA
HETATM   22  H   UNL     1      11.027  -1.686  -0.402  1.00  0.00     0.218 HD
ENDBRANCH  18  21
ENDBRANCH   6   9
BRANCH   1  23
HETATM   23  C   UNL     1       5.254  -0.067  -0.297  1.00  0.00    -0.035 A 
HETATM   24  C   UNL     1       4.866   0.830   0.704  1.00  0.00     0.012 A 
HETATM   25  C   UNL     1       3.519   0.958   1.060  1.00  0.00     0.007 A 
HETATM   26  C   UNL     1       2.541   0.189   0.420  1.00  0.00    -0.062 A 
HETATM   27  C   UNL     1       1.090   0.344   0.768  1.00  0.00     0.048 C 
HETATM   28  C   UNL     1       2.928  -0.693  -0.594  1.00  0.00     0.007 A 
HETATM   29  C   UNL     1       4.273  -0.817  -0.952  1.00  0.00     0.012 A 
ENDBRANCH   1  23
TORSDOF 3
