REMARK  8 active torsions:
REMARK  status: ('A' for Active; 'I' for Inactive)
REMARK    1  A    between atoms: C_2  and  C_3 
REMARK    2  A    between atoms: C_3  and  N_4 
REMARK    3  A    between atoms: C_3  and  C_19 
REMARK       I    between atoms: C_19  and  N_20 
REMARK    4  A    between atoms: N_20  and  C_21 
REMARK    5  A    between atoms: C_21  and  C_22 
REMARK    6  A    between atoms: C_22  and  C_23 
REMARK    7  A    between atoms: C_23  and  O_24 
REMARK    8  A    between atoms: O_24  and  C_25 
ROOT
HETATM    1  N   UNL     1       2.676   2.241  -1.351  1.00  0.00    -0.220 N 
HETATM    2  N   UNL     1       2.802   3.056  -0.222  1.00  0.00    -0.172 NA
HETATM    3  C   UNL     1       2.623   4.340  -0.337  1.00  0.00     0.069 A 
HETATM    4  C   UNL     1       2.805   5.201   0.885  1.00  0.00     0.074 C 
HETATM    5  C   UNL     1       2.250   4.909  -1.605  1.00  0.00     0.048 A 
HETATM    6  C   UNL     1       2.122   4.141  -2.736  1.00  0.00     0.064 A 
HETATM    7  C   UNL     1       2.395   2.713  -2.650  1.00  0.00     0.277 A 
HETATM    8  O   UNL     1       2.359   1.978  -3.635  1.00  0.00    -0.266 OA
HETATM    9  S   UNL     1       1.910   6.542  -1.869  1.00  0.00    -0.086 SA
HETATM   10  C   UNL     1       1.542   6.267  -3.530  1.00  0.00     0.017 A 
HETATM   11  C   UNL     1       1.701   4.919  -3.874  1.00  0.00    -0.002 A 
HETATM   12  C   UNL     1       1.124   7.229  -4.470  1.00  0.00     0.020 A 
HETATM   13  C   UNL     1       0.858   6.826  -5.780  1.00  0.00     0.001 A 
HETATM   14  C   UNL     1       1.007   5.498  -6.150  1.00  0.00     0.001 A 
HETATM   15  C   UNL     1       1.426   4.547  -5.215  1.00  0.00     0.014 A 
ENDROOT
BRANCH   1  16
HETATM   16  C   UNL     1       2.997   0.817  -1.187  1.00  0.00     0.205 C 
BRANCH  16  17
HETATM   17  C   UNL     1       2.529   0.253   0.165  1.00  0.00     0.032 C 
HETATM   18  C   UNL     1       2.591  -1.266   0.227  1.00  0.00     0.007 C 
ENDBRANCH  16  17
BRANCH  16  19
HETATM   19  C   UNL     1       4.519   0.634  -1.367  1.00  0.00     0.242 C 
HETATM   20  N   UNL     1       4.870  -0.417  -2.196  1.00  0.00    -0.359 N 
HETATM   21  H   UNL     1       4.156  -0.894  -2.733  1.00  0.00     0.162 HD
HETATM   22  O   UNL     1       5.362   1.324  -0.798  1.00  0.00    -0.271 OA
BRANCH  20  23
HETATM   23  C   UNL     1       6.252  -0.741  -2.488  1.00  0.00     0.125 C 
BRANCH  23  24
HETATM   24  C   UNL     1       6.873  -1.678  -1.453  1.00  0.00     0.046 C 
BRANCH  24  25
HETATM   25  C   UNL     1       6.190  -3.041  -1.386  1.00  0.00     0.169 C 
BRANCH  25  26
HETATM   26  O   UNL     1       6.177  -3.628  -2.685  1.00  0.00    -0.387 OA
BRANCH  26  27
HETATM   27  C   UNL     1       5.612  -4.941  -2.723  1.00  0.00     0.113 C 
HETATM   28  C   UNL     1       4.091  -4.890  -2.604  1.00  0.00     0.039 C 
HETATM   29  C   UNL     1       6.013  -5.553  -4.061  1.00  0.00     0.039 C 
ENDBRANCH  26  27
ENDBRANCH  25  26
ENDBRANCH  24  25
ENDBRANCH  23  24
ENDBRANCH  20  23
ENDBRANCH  16  19
ENDBRANCH   1  16
TORSDOF 8
