REMARK  5 active torsions:
REMARK  status: ('A' for Active; 'I' for Inactive)
REMARK    1  A    between atoms: C_4  and  C_5 
REMARK    2  A    between atoms: C_17  and  C_18 
REMARK    3  A    between atoms: C_18  and  N_19 
REMARK       I    between atoms: N_19  and  C_20 
REMARK    4  A    between atoms: C_20  and  C_21 
REMARK    5  A    between atoms: C_21  and  C_22 
ROOT
HETATM    1  C   UNL     1       0.992  -0.269   0.127  1.00  0.00     0.048 C 
HETATM    2  C   UNL     1       2.477  -0.052   0.096  1.00  0.00    -0.060 A 
HETATM    3  C   UNL     1       3.361  -1.149   0.027  1.00  0.00     0.024 A 
HETATM    4  C   UNL     1       4.760  -0.981  -0.031  1.00  0.00     0.034 A 
HETATM    5  C   UNL     1       5.227   0.328  -0.042  1.00  0.00     0.088 A 
HETATM    6  C   UNL     1       4.365   1.416   0.021  1.00  0.00    -0.021 A 
HETATM    7  C   UNL     1       5.127   2.679  -0.087  1.00  0.00     0.075 C 
HETATM    8  C   UNL     1       6.558   2.141   0.052  1.00  0.00     0.151 C 
HETATM    9  O   UNL     1       6.541   0.706  -0.177  1.00  0.00    -0.342 OA
HETATM   10  C   UNL     1       2.992   1.248   0.089  1.00  0.00     0.017 A 
ENDROOT
BRANCH   8  11
HETATM   11  C   UNL     1       7.526   2.780  -0.952  1.00  0.00     0.155 C 
BRANCH  11  12
HETATM   12  N   UNL     1       7.560   4.232  -0.899  1.00  0.00    -0.359 N 
HETATM   13  C   UNL     1       8.195   4.909   0.119  1.00  0.00     0.219 C 
HETATM   14  O   UNL     1       8.755   4.343   1.050  1.00  0.00    -0.274 OA
HETATM   15  H   UNL     1       7.180   4.751  -1.681  1.00  0.00     0.162 HD
BRANCH  13  16
HETATM   16  C   UNL     1       8.107   6.412  -0.032  1.00  0.00     0.128 C 
BRANCH  16  17
HETATM   17  C   UNL     1       8.803   7.183   1.098  1.00  0.00     0.094 C 
HETATM   18  N   UNL     1       8.862   8.601   0.751  1.00  0.00    -0.362 N 
HETATM   19  C   UNL     1       7.903   9.505   1.072  1.00  0.00     0.168 C 
HETATM   20  H   UNL     1       9.563   8.918   0.090  1.00  0.00     0.162 HD
HETATM   21  S   UNL     1       7.911  11.032   0.424  1.00  0.00    -0.041 SA
HETATM   22  N   UNL     1       6.955   9.124   1.962  1.00  0.00    -0.363 N 
HETATM   23  C   UNL     1       6.806   7.778   2.489  1.00  0.00     0.081 C 
HETATM   24  H   UNL     1       6.221   9.802   2.130  1.00  0.00     0.162 HD
HETATM   25  C   UNL     1       6.220   7.818   3.897  1.00  0.00     0.032 C 
HETATM   26  C   UNL     1       8.144   7.042   2.474  1.00  0.00     0.050 C 
ENDBRANCH  16  17
ENDBRANCH  13  16
ENDBRANCH  11  12
ENDBRANCH   8  11
BRANCH   4  27
HETATM   27  C   UNL     1       5.612  -2.177  -0.101  1.00  0.00     0.112 A 
HETATM   28  S   UNL     1       7.142  -2.243   0.687  1.00  0.00    -0.067 SA
HETATM   29  C   UNL     1       7.347  -3.874   0.185  1.00  0.00     0.035 A 
HETATM   30  C   UNL     1       6.222  -4.268  -0.538  1.00  0.00     0.075 A 
HETATM   31  C   UNL     1       8.423  -4.747   0.419  1.00  0.00     0.021 A 
HETATM   32  N   UNL     1       5.241  -3.303  -0.681  1.00  0.00    -0.239 NA
HETATM   33  C   UNL     1       6.169  -5.582  -1.047  1.00  0.00     0.033 A 
HETATM   34  C   UNL     1       7.234  -6.460  -0.821  1.00  0.00     0.002 A 
HETATM   35  C   UNL     1       8.346  -6.045  -0.096  1.00  0.00     0.002 A 
ENDBRANCH   4  27
TORSDOF 5
