REMARK  9 active torsions:
REMARK  status: ('A' for Active; 'I' for Inactive)
REMARK    1  A    between atoms: C_6  and  C_7 
REMARK    2  A    between atoms: C_7  and  C_8 
REMARK       I    between atoms: C_8  and  N_9 
REMARK    3  A    between atoms: N_9  and  C_10 
REMARK    4  A    between atoms: C_10  and  C_11 
REMARK    5  A    between atoms: C_11  and  N_12 
REMARK    6  A    between atoms: C_19  and  C_20 
REMARK    7  A    between atoms: C_29  and  C_30 
REMARK    8  A    between atoms: C_30  and  O_31 
REMARK    9  A    between atoms: O_31  and  C_32 
ROOT
HETATM    1  C   UNL     1       0.980   1.202   0.693  1.00  0.00     0.071 C 
HETATM    2  C   UNL     1       2.306   0.482   0.672  1.00  0.00     0.048 C 
HETATM    3  N   UNL     1       3.289   1.081   1.458  1.00  0.00    -0.229 NA
HETATM    4  C   UNL     1       4.197   0.285   1.913  1.00  0.00     0.170 C 
HETATM    5  N   UNL     1       4.288  -1.195   1.474  1.00  0.00    -0.318 N 
HETATM    6  C   UNL     1       4.522  -1.942   2.499  1.00  0.00     0.011 C 
HETATM    7  C   UNL     1       3.861  -1.353   0.062  1.00  0.00     0.168 C 
HETATM    8  S   UNL     1       5.208   0.577   3.279  1.00  0.00    -0.086 SA
HETATM    9  C   UNL     1       5.118  -1.211   3.695  1.00  0.00     0.135 C 
HETATM   10  C   UNL     1       2.516  -0.696   0.038  1.00  0.00     0.069 C 
ENDROOT
BRANCH   6  11
HETATM   11  C   UNL     1       4.147  -3.397   2.486  1.00  0.00     0.156 C 
BRANCH  11  12
HETATM   12  C   UNL     1       3.659  -3.870   3.841  1.00  0.00     0.223 C 
HETATM   13  N   UNL     1       2.318  -4.181   3.953  1.00  0.00    -0.359 N 
HETATM   14  H   UNL     1       1.678  -3.949   3.198  1.00  0.00     0.162 HD
HETATM   15  O   UNL     1       4.423  -3.890   4.799  1.00  0.00    -0.273 OA
BRANCH  13  16
HETATM   16  C   UNL     1       1.769  -4.490   5.274  1.00  0.00     0.150 C 
BRANCH  16  17
HETATM   17  C   UNL     1       0.431  -5.255   5.251  1.00  0.00     0.254 C 
BRANCH  17  18
HETATM   18  N   UNL     1       0.069  -5.791   6.622  1.00  0.00    -0.070 N 
HETATM   19  H   UNL     1       0.223  -5.051   7.324  1.00  0.00     0.279 HD
HETATM   20  C   UNL     1       0.884  -7.005   7.056  1.00  0.00     0.235 C 
HETATM   21  C   UNL     1      -0.088  -8.161   6.962  1.00  0.00     0.029 C 
HETATM   22  C   UNL     1      -1.388  -7.542   7.427  1.00  0.00     0.029 C 
HETATM   23  C   UNL     1      -1.402  -6.195   6.732  1.00  0.00     0.235 C 
ENDBRANCH  17  18
ENDBRANCH  16  17
ENDBRANCH  13  16
ENDBRANCH  11  12
ENDBRANCH   6  11
BRANCH   7  24
HETATM   24  C   UNL     1       4.954  -0.814  -0.888  1.00  0.00    -0.009 A 
HETATM   25  C   UNL     1       4.741  -0.016  -2.038  1.00  0.00     0.042 A 
HETATM   26 CL   UNL     1       3.189   0.426  -2.653  1.00  0.00    -0.084 Cl
HETATM   27  C   UNL     1       5.820   0.469  -2.793  1.00  0.00     0.024 A 
HETATM   28  C   UNL     1       7.130   0.156  -2.452  1.00  0.00     0.002 A 
HETATM   29  C   UNL     1       7.370  -0.675  -1.369  1.00  0.00     0.001 A 
HETATM   30  C   UNL     1       6.303  -1.165  -0.611  1.00  0.00     0.011 A 
ENDBRANCH   7  24
BRANCH  10  31
HETATM   31  C   UNL     1       1.410  -1.574  -0.399  1.00  0.00     0.294 C 
HETATM   32  O   UNL     1       0.482  -1.853   0.343  1.00  0.00    -0.259 OA
BRANCH  31  33
HETATM   33  O   UNL     1       1.753  -2.190  -1.547  1.00  0.00    -0.313 OA
BRANCH  33  34
HETATM   34  C   UNL     1       0.882  -3.244  -2.010  1.00  0.00     0.124 C 
HETATM   35  C   UNL     1      -0.244  -2.650  -2.843  1.00  0.00     0.040 C 
HETATM   36  C   UNL     1       1.738  -4.196  -2.835  1.00  0.00     0.040 C 
ENDBRANCH  33  34
ENDBRANCH  31  33
ENDBRANCH  10  31
TORSDOF 9
