REMARK  10 active torsions:
REMARK  status: ('A' for Active; 'I' for Inactive)
REMARK    1  A    between atoms: C_2  and  N_3 
REMARK    2  A    between atoms: N_3  and  C_4 
REMARK    3  A    between atoms: N_3  and  C_37 
REMARK    4  A    between atoms: C_7  and  C_8 
REMARK    5  A    between atoms: N_9  and  C_11 
REMARK    6  A    between atoms: C_11  and  C_12 
REMARK       I    between atoms: C_12  and  N_13 
REMARK    7  A    between atoms: N_13  and  C_14 
REMARK    8  A    between atoms: C_20  and  C_21 
REMARK    9  A    between atoms: C_21  and  O_22 
REMARK   10  A    between atoms: C_28  and  O_29 
ROOT
HETATM    1  C   UNL     1      -0.853  -0.241   1.085  1.00  0.00     0.228 C 
HETATM    2  N   UNL     1      -0.035  -1.528   0.953  1.00  0.00    -0.054 N 
HETATM    3  H   UNL     1       0.151  -1.538  -0.056  1.00  0.00     0.281 HD
HETATM    4  C   UNL     1      -0.852  -2.778   1.164  1.00  0.00     0.239 C 
HETATM    5  C   UNL     1      -1.732  -2.747   2.403  1.00  0.00     0.066 C 
HETATM    6  C   UNL     1      -2.565  -1.470   2.493  1.00  0.00     0.065 C 
HETATM    7  C   UNL     1      -1.671  -0.215   2.396  1.00  0.00     0.055 C 
HETATM    8  C   UNL     1      -3.394  -1.451   3.791  1.00  0.00     0.038 C 
HETATM    9  C   UNL     1      -4.230  -0.178   3.919  1.00  0.00     0.003 C 
HETATM   10  C   UNL     1      -3.371   1.071   3.786  1.00  0.00     0.001 C 
HETATM   11  C   UNL     1      -2.544   1.059   2.504  1.00  0.00     0.010 C 
ENDROOT
BRANCH   2  12
HETATM   12  C   UNL     1       1.388  -1.581   1.520  1.00  0.00     0.338 C 
BRANCH  12  13
HETATM   13  C   UNL     1       1.607  -1.434   3.029  1.00  0.00     0.248 C 
HETATM   14  N   UNL     1       2.878  -0.983   3.334  1.00  0.00    -0.319 N 
HETATM   15  H   UNL     1       3.641  -1.135   2.683  1.00  0.00     0.169 HD
HETATM   16  O   UNL     1       0.756  -1.759   3.848  1.00  0.00    -0.271 OA
BRANCH  14  17
HETATM   17  C   UNL     1       3.287  -0.607   4.598  1.00  0.00     0.094 A 
HETATM   18  S   UNL     1       4.972  -0.761   4.752  1.00  0.00    -0.076 SA
HETATM   19  C   UNL     1       4.940  -0.290   6.389  1.00  0.00    -0.012 A 
HETATM   20  C   UNL     1       6.218  -0.259   7.166  1.00  0.00     0.057 C 
HETATM   21  C   UNL     1       3.667   0.078   6.798  1.00  0.00    -0.030 A 
HETATM   22  C   UNL     1       3.354   0.655   8.147  1.00  0.00     0.050 C 
HETATM   23  C   UNL     1       2.678  -0.118   5.738  1.00  0.00     0.080 A 
BRANCH  23  24
HETATM   24  C   UNL     1       1.267   0.262   5.832  1.00  0.00     0.296 C 
HETATM   25  O   UNL     1       0.663   0.824   4.925  1.00  0.00    -0.259 OA
BRANCH  24  26
HETATM   26  O   UNL     1       0.724  -0.023   7.049  1.00  0.00    -0.322 OA
HETATM   27  C   UNL     1      -0.631   0.401   7.194  1.00  0.00     0.213 C 
ENDBRANCH  24  26
ENDBRANCH  23  24
ENDBRANCH  14  17
ENDBRANCH  12  13
ENDBRANCH   2  12
BRANCH   1  28
HETATM   28  C   UNL     1      -0.076   1.027   0.773  1.00  0.00    -0.027 A 
HETATM   29  C   UNL     1      -0.291   1.706  -0.431  1.00  0.00     0.011 A 
HETATM   30  C   UNL     1       0.272   2.974  -0.656  1.00  0.00     0.030 A 
HETATM   31  C   UNL     1       1.076   3.625   0.292  1.00  0.00     0.030 A 
HETATM   32  C   UNL     1       1.364   2.878   1.443  1.00  0.00     0.030 A 
HETATM   33  C   UNL     1       0.787   1.625   1.691  1.00  0.00     0.011 A 
BRANCH  31  34
HETATM   34  N   UNL     1       1.553   4.922   0.120  1.00  0.00    -0.382 N 
BRANCH  34  35
HETATM   35  C   UNL     1       1.961   5.727   1.287  1.00  0.00     0.118 C 
HETATM   36  C   UNL     1       3.476   5.822   1.363  1.00  0.00     0.026 C 
ENDBRANCH  34  35
BRANCH  34  37
HETATM   37  C   UNL     1       1.308   5.686  -1.114  1.00  0.00     0.118 C 
HETATM   38  C   UNL     1       2.261   5.267  -2.223  1.00  0.00     0.026 C 
ENDBRANCH  34  37
ENDBRANCH  31  34
ENDBRANCH   1  28
BRANCH   6  39
HETATM   39  O   UNL     1      -3.447  -1.483   1.360  1.00  0.00    -0.389 OA
HETATM   40  H   UNL     1      -4.301  -1.873   1.629  1.00  0.00     0.210 HD
ENDBRANCH   6  39
TORSDOF 10
