REMARK  6 active torsions:
REMARK  status: ('A' for Active; 'I' for Inactive)
REMARK    1  A    between atoms: C_8  and  C_9 
REMARK    2  A    between atoms: C_9  and  C_10 
REMARK    3  A    between atoms: C_10  and  N_11 
REMARK    4  A    between atoms: C_10  and  C_19 
REMARK       I    between atoms: N_11  and  C_12 
REMARK    5  A    between atoms: C_12  and  C_13 
REMARK       I    between atoms: C_19  and  N_20 
REMARK    6  A    between atoms: N_20  and  C_21 
ROOT
HETATM    1  C   UNL     1      -0.504  -3.541  -0.064  1.00  0.00     0.181 C 
ENDROOT
BRANCH   1   2
HETATM    2  C   UNL     1       0.120  -3.392  -1.466  1.00  0.00     0.075 C 
BRANCH   2   3
HETATM    3  C   UNL     1       0.952  -4.555  -1.922  1.00  0.00    -0.028 A 
HETATM    4  C   UNL     1       0.803  -5.278  -3.152  1.00  0.00    -0.002 A 
HETATM    5  C   UNL     1      -0.054  -5.161  -4.267  1.00  0.00     0.014 A 
HETATM    6  C   UNL     1       1.751  -6.301  -3.153  1.00  0.00     0.042 A 
HETATM    7  C   UNL     1       0.062  -6.068  -5.327  1.00  0.00     0.001 A 
HETATM    8  C   UNL     1       1.013  -7.083  -5.291  1.00  0.00     0.002 A 
HETATM    9  C   UNL     1       1.878  -7.220  -4.202  1.00  0.00     0.030 A 
HETATM   10  N   UNL     1       2.466  -6.193  -1.984  1.00  0.00    -0.365 N 
HETATM   11  H   UNL     1       3.224  -6.805  -1.716  1.00  0.00     0.165 HD
HETATM   12  C   UNL     1       2.007  -5.136  -1.246  1.00  0.00     0.096 A 
ENDBRANCH   2   3
ENDBRANCH   1   2
BRANCH   1  13
HETATM   13  N   UNL     1       0.462  -3.272   1.003  1.00  0.00    -0.343 N 
HETATM   14  C   UNL     1       0.989  -2.031   1.259  1.00  0.00     0.259 C 
HETATM   15  O   UNL     1       0.645  -1.049   0.603  1.00  0.00    -0.267 OA
HETATM   16  H   UNL     1       0.684  -4.042   1.629  1.00  0.00     0.163 HD
BRANCH  14  17
HETATM   17  C   UNL     1       1.980  -1.968   2.324  1.00  0.00     0.072 A 
HETATM   18  S   UNL     1       2.418  -3.340   3.257  1.00  0.00    -0.097 SA
HETATM   19  C   UNL     1       3.558  -2.450   4.166  1.00  0.00     0.050 A 
HETATM   20  C   UNL     1       3.612  -1.131   3.776  1.00  0.00     0.009 A 
HETATM   21  C   UNL     1       2.700  -0.853   2.718  1.00  0.00     0.025 A 
ENDBRANCH  14  17
ENDBRANCH   1  13
BRANCH   1  22
HETATM   22  C   UNL     1      -1.122  -4.936   0.229  1.00  0.00     0.245 C 
HETATM   23  N   UNL     1      -1.912  -5.455  -0.781  1.00  0.00    -0.324 N 
HETATM   24  H   UNL     1      -1.906  -4.978  -1.672  1.00  0.00     0.169 HD
HETATM   25  O   UNL     1      -0.933  -5.478   1.320  1.00  0.00    -0.271 OA
BRANCH  23  26
HETATM   26  C   UNL     1      -2.571  -6.704  -0.772  1.00  0.00     0.052 A 
HETATM   27  C   UNL     1      -2.707  -7.538   0.335  1.00  0.00     0.145 A 
HETATM   28  N   UNL     1      -3.345  -8.738   0.312  1.00  0.00    -0.271 NA
HETATM   29  C   UNL     1      -3.866  -9.130  -0.868  1.00  0.00     0.116 A 
HETATM   30  C   UNL     1      -3.788  -8.377  -2.026  1.00  0.00     0.021 A 
HETATM   31  C   UNL     1      -3.135  -7.147  -1.972  1.00  0.00     0.032 A 
ENDBRANCH  23  26
ENDBRANCH   1  22
TORSDOF 6
