REMARK  5 active torsions:
REMARK  status: ('A' for Active; 'I' for Inactive)
REMARK    1  A    between atoms: C_4  and  N_5 
REMARK       I    between atoms: N_5  and  C_6 
REMARK    2  A    between atoms: C_6  and  C_7 
REMARK    3  A    between atoms: C_8  and  N_9 
REMARK    4  A    between atoms: N_10  and  N_11 
REMARK    5  A    between atoms: C_12  and  C_13 
ROOT
HETATM    1  C   UNL     1       2.509   2.258   0.367  1.00  0.00     0.110 A 
HETATM    2  C   UNL     1       1.799   3.432   0.519  1.00  0.00     0.143 A 
HETATM    3  N   UNL     1       0.593   3.156   1.156  1.00  0.00    -0.197 N 
HETATM    4  C   UNL     1       0.496   1.779   1.311  1.00  0.00     0.183 A 
HETATM    5  C   UNL     1       1.680   1.217   0.834  1.00  0.00     0.125 A 
HETATM    6  N   UNL     1       1.911  -0.118   0.903  1.00  0.00    -0.242 NA
HETATM    7  C   UNL     1       0.898  -0.839   1.408  1.00  0.00     0.086 A 
HETATM    8  C   UNL     1      -0.306  -0.250   1.875  1.00  0.00     0.088 A 
HETATM    9  N   UNL     1      -0.530   1.075   1.847  1.00  0.00    -0.225 NA
HETATM   10  C   UNL     1       1.044  -2.220   1.477  1.00  0.00     0.034 A 
HETATM   11  C   UNL     1       0.037  -3.036   1.995  1.00  0.00     0.002 A 
HETATM   12  C   UNL     1      -1.138  -2.461   2.457  1.00  0.00     0.002 A 
HETATM   13  C   UNL     1      -1.297  -1.076   2.392  1.00  0.00     0.034 A 
ENDROOT
BRANCH   1  14
HETATM   14  C   UNL     1       3.884   2.210  -0.080  1.00  0.00     0.262 C 
HETATM   15  N   UNL     1       4.738   2.387   0.992  1.00  0.00    -0.322 N 
HETATM   16  H   UNL     1       4.298   2.319   1.899  1.00  0.00     0.169 HD
HETATM   17  O   UNL     1       4.176   2.138  -1.265  1.00  0.00    -0.267 OA
BRANCH  15  18
HETATM   18  C   UNL     1       6.057   2.886   0.987  1.00  0.00     0.041 A 
HETATM   19  C   UNL     1       6.715   3.254  -0.193  1.00  0.00     0.037 A 
HETATM   20  C   UNL     1       7.977   3.866  -0.160  1.00  0.00    -0.060 A 
HETATM   21  C   UNL     1       8.623   4.318  -1.437  1.00  0.00     0.048 C 
HETATM   22  C   UNL     1       8.586   4.110   1.072  1.00  0.00     0.007 A 
HETATM   23  C   UNL     1       7.955   3.726   2.253  1.00  0.00     0.009 A 
HETATM   24  C   UNL     1       6.694   3.109   2.228  1.00  0.00    -0.035 A 
HETATM   25  C   UNL     1       6.052   2.743   3.541  1.00  0.00     0.050 C 
ENDBRANCH  15  18
ENDBRANCH   1  14
BRANCH   2  26
HETATM   26  N   UNL     1       2.146   4.714   0.227  1.00  0.00    -0.383 N 
HETATM   27  H   UNL     1       2.853   4.911  -0.479  1.00  0.00     0.157 HD
HETATM   28  H   UNL     1       1.416   5.428   0.284  1.00  0.00     0.157 HD
ENDBRANCH   2  26
BRANCH   3  29
HETATM   29  N   UNL     1      -0.220   4.187   1.542  1.00  0.00    -0.176 NA
HETATM   30  C   UNL     1      -1.056   3.969   2.497  1.00  0.00     0.153 C 
BRANCH  30  31
HETATM   31  C   UNL     1      -1.812   5.109   2.986  1.00  0.00     0.011 A 
HETATM   32  C   UNL     1      -2.694   5.161   4.113  1.00  0.00     0.004 A 
HETATM   33  C   UNL     1      -3.125   6.483   4.245  1.00  0.00     0.043 A 
HETATM   34  C   UNL     1      -3.149   4.212   5.053  1.00  0.00     0.014 A 
HETATM   35  C   UNL     1      -3.981   6.905   5.268  1.00  0.00     0.030 A 
HETATM   36  N   UNL     1      -2.548   7.203   3.226  1.00  0.00    -0.364 N 
HETATM   37  C   UNL     1      -4.416   5.945   6.186  1.00  0.00     0.002 A 
HETATM   38  C   UNL     1      -4.010   4.618   6.081  1.00  0.00     0.001 A 
HETATM   39  H   UNL     1      -2.679   8.195   3.078  1.00  0.00     0.165 HD
HETATM   40  C   UNL     1      -1.757   6.391   2.465  1.00  0.00     0.102 A 
ENDBRANCH  30  31
ENDBRANCH   3  29
TORSDOF 5
