REMARK  10 active torsions:
REMARK  status: ('A' for Active; 'I' for Inactive)
REMARK    1  A    between atoms: C_2  and  O_3 
REMARK    2  A    between atoms: O_3  and  C_4 
REMARK    3  A    between atoms: C_7  and  C_8 
REMARK    4  A    between atoms: C_8  and  C_9 
REMARK    5  A    between atoms: C_10  and  C_11 
REMARK    6  A    between atoms: C_14  and  N_15 
REMARK    7  A    between atoms: N_20  and  C_21 
REMARK    8  A    between atoms: C_21  and  C_22 
REMARK    9  A    between atoms: C_22  and  N_23 
REMARK   10  A    between atoms: C_34  and  O_35 
ROOT
HETATM    1  C   UNL     1       2.911  -4.231  -6.089  1.00  0.00     0.059 C 
HETATM    2  C   UNL     1       1.781  -5.115  -5.662  1.00  0.00     0.161 C 
HETATM    3  N   UNL     1       2.368  -6.434  -5.896  1.00  0.00    -0.332 N 
HETATM    4  C   UNL     1       3.510  -6.334  -6.671  1.00  0.00     0.278 C 
HETATM    5  O   UNL     1       4.075  -7.275  -7.202  1.00  0.00    -0.265 OA
HETATM    6  C   UNL     1       3.896  -4.910  -6.697  1.00  0.00     0.146 C 
ENDROOT
BRANCH   1   7
HETATM    7  C   UNL     1       2.983  -2.763  -5.973  1.00  0.00     0.193 C 
HETATM    8  O   UNL     1       3.876  -2.151  -6.553  1.00  0.00    -0.287 OA
BRANCH   7   9
HETATM    9  C   UNL     1       1.959  -2.031  -5.205  1.00  0.00     0.015 A 
HETATM   10  C   UNL     1       1.683  -2.336  -3.868  1.00  0.00     0.018 A 
HETATM   11  C   UNL     1       0.692  -1.625  -3.179  1.00  0.00     0.038 A 
HETATM   12  C   UNL     1      -0.005  -0.597  -3.814  1.00  0.00     0.069 A 
HETATM   13  C   UNL     1       0.310  -0.274  -5.137  1.00  0.00     0.038 A 
HETATM   14  C   UNL     1       1.289  -0.982  -5.835  1.00  0.00     0.018 A 
BRANCH  12  15
HETATM   15  O   UNL     1      -0.979   0.187  -3.268  1.00  0.00    -0.347 OA
BRANCH  15  16
HETATM   16  C   UNL     1      -1.554  -0.152  -2.002  1.00  0.00     0.120 C 
HETATM   17  C   UNL     1      -2.655  -1.190  -2.202  1.00  0.00     0.040 C 
HETATM   18  C   UNL     1      -2.142   1.133  -1.425  1.00  0.00     0.040 C 
ENDBRANCH  15  16
ENDBRANCH  12  15
ENDBRANCH   7   9
ENDBRANCH   1   7
BRANCH   2  19
HETATM   19  C   UNL     1       0.509  -4.897  -6.467  1.00  0.00    -0.030 A 
HETATM   20  C   UNL     1       0.479  -5.062  -7.867  1.00  0.00     0.012 A 
HETATM   21  C   UNL     1      -0.691  -4.826  -8.594  1.00  0.00     0.037 A 
HETATM   22  C   UNL     1      -1.848  -4.413  -7.926  1.00  0.00     0.102 A 
HETATM   23  C   UNL     1      -1.839  -4.234  -6.538  1.00  0.00     0.037 A 
HETATM   24  C   UNL     1      -0.666  -4.480  -5.816  1.00  0.00     0.012 A 
BRANCH  22  25
HETATM   25  N   UNL     1      -3.081  -4.179  -8.686  1.00  0.00    -0.116 N 
HETATM   26  O   UNL     1      -3.108  -4.580  -9.859  1.00  0.00    -0.532 OA
HETATM   27  O   UNL     1      -4.020  -3.627  -8.101  1.00  0.00    -0.532 OA
ENDBRANCH  22  25
ENDBRANCH   2  19
BRANCH   6  28
HETATM   28  O   UNL     1       5.045  -4.445  -7.265  1.00  0.00    -0.355 OA
HETATM   29  H   UNL     1       5.032  -3.460  -7.202  1.00  0.00     0.218 HD
ENDBRANCH   6  28
BRANCH   3  30
HETATM   30  C   UNL     1       1.666  -7.691  -5.661  1.00  0.00     0.155 C 
BRANCH  30  31
HETATM   31  C   UNL     1       2.621  -8.843  -5.237  1.00  0.00     0.254 C 
BRANCH  31  32
HETATM   32  N   UNL     1       2.349 -10.191  -5.918  1.00  0.00    -0.066 N 
HETATM   33  H   UNL     1       1.377 -10.421  -5.653  1.00  0.00     0.280 HD
HETATM   34  C   UNL     1       3.222 -11.310  -5.321  1.00  0.00     0.262 C 
HETATM   35  C   UNL     1       4.657 -11.316  -5.911  1.00  0.00     0.260 C 
HETATM   36  N   UNL     1       4.622 -11.394  -7.413  1.00  0.00    -0.072 N 
HETATM   37  H   UNL     1       4.318 -12.326  -7.738  1.00  0.00     0.277 HD
HETATM   38  H   UNL     1       5.591 -11.309  -7.769  1.00  0.00     0.277 HD
HETATM   39  C   UNL     1       3.807 -10.303  -8.057  1.00  0.00     0.260 C 
HETATM   40  C   UNL     1       2.383 -10.217  -7.455  1.00  0.00     0.262 C 
ENDBRANCH  31  32
ENDBRANCH  30  31
ENDBRANCH   3  30
TORSDOF 10
