REMARK  6 active torsions:
REMARK  status: ('A' for Active; 'I' for Inactive)
REMARK    1  A    between atoms: C_5  and  N_6 
REMARK    2  A    between atoms: N_6  and  C_7 
REMARK    3  A    between atoms: C_7  and  C_8 
REMARK    4  A    between atoms: N_10  and  C_12 
REMARK    5  A    between atoms: C_12  and  C_13 
REMARK    6  A    between atoms: C_14  and  C_15 
ROOT
HETATM    1  C   UNL     1       5.230   4.952  -0.827  1.00  0.00     0.031 C 
HETATM    2  C   UNL     1       6.682   4.790  -0.368  1.00  0.00     0.241 C 
HETATM    3  N   UNL     1       7.117   6.181   0.052  1.00  0.00    -0.067 N 
HETATM    4  H   UNL     1       7.387   6.143   1.044  1.00  0.00     0.280 HD
HETATM    5  C   UNL     1       5.919   7.092  -0.051  1.00  0.00     0.235 C 
HETATM    6  C   UNL     1       4.741   6.134   0.002  1.00  0.00     0.035 C 
ENDROOT
BRANCH   3   7
HETATM    7  C   UNL     1       8.339   6.720  -0.658  1.00  0.00     0.277 C 
BRANCH   7   8
HETATM    8  C   UNL     1       9.580   5.942  -0.405  1.00  0.00     0.016 A 
HETATM    9  C   UNL     1      10.707   5.817  -1.285  1.00  0.00     0.102 A 
HETATM   10  N   UNL     1      11.638   5.027  -0.741  1.00  0.00    -0.174 NA
HETATM   11  N   UNL     1      11.178   4.704   0.468  1.00  0.00    -0.288 N 
HETATM   12  H   UNL     1      11.769   4.132   1.068  1.00  0.00     0.188 HD
HETATM   13  C   UNL     1       9.936   5.213   0.717  1.00  0.00     0.120 A 
BRANCH   9  14
HETATM   14  C   UNL     1      10.939   6.433  -2.588  1.00  0.00     0.072 A 
HETATM   15  C   UNL     1      10.752   7.805  -2.778  1.00  0.00     0.132 A 
HETATM   16  F   UNL     1      10.278   8.568  -1.780  1.00  0.00    -0.205 F 
HETATM   17  C   UNL     1      11.026   8.417  -4.002  1.00  0.00     0.043 A 
HETATM   18  C   UNL     1      11.495   7.652  -5.068  1.00  0.00     0.006 A 
HETATM   19  C   UNL     1      11.673   6.279  -4.905  1.00  0.00     0.043 A 
HETATM   20  C   UNL     1      11.395   5.680  -3.674  1.00  0.00     0.132 A 
HETATM   21  F   UNL     1      11.532   4.350  -3.576  1.00  0.00    -0.205 F 
ENDBRANCH   9  14
ENDBRANCH   7   8
ENDBRANCH   3   7
BRANCH   1  22
HETATM   22  C   UNL     1       4.418   3.664  -0.645  1.00  0.00     0.127 C 
BRANCH  22  23
HETATM   23  N   UNL     1       3.077   3.791  -1.211  1.00  0.00    -0.376 N 
HETATM   24  H   UNL     1       2.840   4.663  -1.667  1.00  0.00     0.161 HD
BRANCH  23  25
HETATM   25  C   UNL     1       2.196   2.728  -1.256  1.00  0.00     0.101 A 
HETATM   26  N   UNL     1       1.002   2.918  -1.848  1.00  0.00    -0.347 N 
HETATM   27  C   UNL     1       0.050   1.971  -1.958  1.00  0.00     0.007 A 
HETATM   28  H   UNL     1       0.810   3.837  -2.232  1.00  0.00     0.167 HD
HETATM   29  C   UNL     1      -1.239   2.312  -2.635  1.00  0.00     0.068 C 
HETATM   30  C   UNL     1       0.289   0.703  -1.436  1.00  0.00     0.025 A 
HETATM   31  C   UNL     1       1.500   0.447  -0.811  1.00  0.00     0.006 A 
HETATM   32  C   UNL     1       2.452   1.461  -0.717  1.00  0.00     0.048 A 
ENDBRANCH  23  25
ENDBRANCH  22  23
ENDBRANCH   1  22
TORSDOF 6
