REMARK  7 active torsions:
REMARK  status: ('A' for Active; 'I' for Inactive)
REMARK    1  A    between atoms: O_2  and  C_3 
REMARK    2  A    between atoms: C_6  and  C_7 
REMARK    3  A    between atoms: C_11  and  C_12 
REMARK       I    between atoms: C_12  and  N_13 
REMARK    4  A    between atoms: N_13  and  N_14 
REMARK       I    between atoms: N_14  and  C_15 
REMARK    5  A    between atoms: C_15  and  C_16 
REMARK    6  A    between atoms: C_16  and  C_17 
REMARK    7  A    between atoms: C_17  and  C_18 
ROOT
HETATM    1  C   UNL     1       7.986   6.959  -1.817  1.00  0.00     0.288 C 
HETATM    2  N   UNL     1       9.062   6.177  -2.180  1.00  0.00    -0.262 N 
HETATM    3  O   UNL     1       8.020   8.187  -1.884  1.00  0.00    -0.264 OA
HETATM    4  H   UNL     1       8.974   5.172  -2.317  1.00  0.00     0.190 HD
ENDROOT
BRANCH   1   5
HETATM    5  C   UNL     1       6.828   6.233  -1.371  1.00  0.00     0.121 A 
HETATM    6  N   UNL     1       5.673   6.862  -1.000  1.00  0.00    -0.272 N 
HETATM    7  N   UNL     1       4.685   6.030  -0.638  1.00  0.00    -0.174 NA
HETATM    8  H   UNL     1       5.501   7.863  -0.985  1.00  0.00     0.189 HD
HETATM    9  C   UNL     1       5.213   4.801  -0.754  1.00  0.00     0.089 A 
HETATM   10  C   UNL     1       6.559   4.889  -1.209  1.00  0.00     0.071 A 
BRANCH   9  11
HETATM   11  C   UNL     1       4.441   3.590  -0.456  1.00  0.00    -0.005 A 
HETATM   12  C   UNL     1       3.041   3.636  -0.387  1.00  0.00     0.016 A 
HETATM   13  C   UNL     1       2.290   2.479  -0.136  1.00  0.00     0.037 A 
HETATM   14  C   UNL     1       2.931   1.256   0.053  1.00  0.00     0.068 A 
HETATM   15  C   UNL     1       4.325   1.206   0.007  1.00  0.00     0.037 A 
HETATM   16  C   UNL     1       5.075   2.359  -0.247  1.00  0.00     0.016 A 
BRANCH  14  17
HETATM   17  O   UNL     1       2.323   0.056   0.295  1.00  0.00    -0.356 OA
HETATM   18  C   UNL     1       0.904   0.029   0.210  1.00  0.00     0.210 C 
ENDBRANCH  14  17
ENDBRANCH   9  11
ENDBRANCH   1   5
BRANCH   2  19
HETATM   19  N   UNL     1      10.154   6.776  -2.829  1.00  0.00    -0.267 N 
HETATM   20  C   UNL     1      10.802   6.011  -3.780  1.00  0.00     0.236 C 
HETATM   21  O   UNL     1      10.545   4.820  -3.948  1.00  0.00    -0.272 OA
HETATM   22  H   UNL     1      10.161   7.795  -2.854  1.00  0.00     0.190 HD
BRANCH  20  23
HETATM   23  C   UNL     1      11.874   6.765  -4.535  1.00  0.00     0.109 C 
BRANCH  23  24
HETATM   24  C   UNL     1      12.412   5.937  -5.702  1.00  0.00     0.051 C 
BRANCH  24  25
HETATM   25  C   UNL     1      13.585   6.588  -6.388  1.00  0.00    -0.019 A 
HETATM   26  C   UNL     1      13.430   7.776  -7.108  1.00  0.00     0.122 A 
HETATM   27  F   UNL     1      12.223   8.356  -7.186  1.00  0.00    -0.206 F 
HETATM   28  C   UNL     1      14.506   8.380  -7.753  1.00  0.00     0.043 A 
HETATM   29  C   UNL     1      15.767   7.791  -7.689  1.00  0.00     0.003 A 
HETATM   30  C   UNL     1      15.942   6.603  -6.979  1.00  0.00     0.001 A 
HETATM   31  C   UNL     1      14.859   6.004  -6.331  1.00  0.00     0.010 A 
ENDBRANCH  24  25
ENDBRANCH  23  24
ENDBRANCH  20  23
ENDBRANCH   2  19
TORSDOF 7
