REMARK  4 active torsions:
REMARK  status: ('A' for Active; 'I' for Inactive)
REMARK    1  A    between atoms: C_8  and  C_9 
REMARK    2  A    between atoms: C_9  and  C_10 
REMARK    3  A    between atoms: C_18  and  C_19 
REMARK    4  A    between atoms: C_28  and  N_29 
ROOT
HETATM    1  C   UNL     1       6.706  -2.257  -0.167  1.00  0.00     0.030 A 
HETATM    2  C   UNL     1       7.466  -3.433   0.043  1.00  0.00     0.007 A 
HETATM    3  C   UNL     1       8.861  -3.262   0.119  1.00  0.00     0.068 A 
HETATM    4  C   UNL     1       9.669  -4.375   0.313  1.00  0.00     0.032 A 
HETATM    5  C   UNL     1       9.141  -5.660   0.443  1.00  0.00     0.002 A 
HETATM    6  C   UNL     1       7.769  -5.845   0.383  1.00  0.00     0.001 A 
HETATM    7  C   UNL     1       6.937  -4.743   0.188  1.00  0.00     0.015 A 
HETATM    8  N   UNL     1       9.460  -2.065   0.017  1.00  0.00    -0.248 NA
HETATM    9  C   UNL     1       8.714  -0.950  -0.166  1.00  0.00     0.068 A 
HETATM   10  C   UNL     1       7.336  -1.015  -0.297  1.00  0.00     0.049 A 
ENDROOT
BRANCH   1  11
HETATM   11  C   UNL     1       5.228  -2.315  -0.318  1.00  0.00     0.202 C 
HETATM   12  O   UNL     1       4.742  -3.154  -1.078  1.00  0.00    -0.286 OA
BRANCH  11  13
HETATM   13  C   UNL     1       4.361  -1.327   0.407  1.00  0.00     0.121 C 
HETATM   14  C   UNL     1       4.774  -0.744   1.705  1.00  0.00     0.266 C 
HETATM   15  N   UNL     1       3.990   0.244   2.207  1.00  0.00    -0.274 N 
HETATM   16  O   UNL     1       5.764  -1.128   2.317  1.00  0.00    -0.267 OA
HETATM   17  C   UNL     1       2.746   0.559   1.759  1.00  0.00     0.330 C 
HETATM   18  H   UNL     1       4.253   0.638   3.098  1.00  0.00     0.173 HD
HETATM   19  N   UNL     1       2.345  -0.073   0.591  1.00  0.00    -0.293 N 
HETATM   20  O   UNL     1       2.061   1.353   2.400  1.00  0.00    -0.246 OA
HETATM   21  C   UNL     1       1.035   0.291   0.057  1.00  0.00     0.162 C 
HETATM   22  C   UNL     1       3.142  -0.996  -0.092  1.00  0.00     0.103 C 
BRANCH  22  23
HETATM   23  N   UNL     1       2.659  -1.538  -1.280  1.00  0.00    -0.287 NA
HETATM   24  H   UNL     1       3.215  -2.349  -1.590  1.00  0.00     0.125 HD
HETATM   25  H   UNL     1       1.685  -1.818  -1.209  1.00  0.00     0.125 HD
ENDBRANCH  22  23
ENDBRANCH  11  13
ENDBRANCH   1  11
BRANCH   9  26
HETATM   26  C   UNL     1       9.468   0.319  -0.205  1.00  0.00    -0.007 A 
HETATM   27  C   UNL     1      10.764   0.368  -0.755  1.00  0.00     0.015 A 
HETATM   28  C   UNL     1      11.502   1.556  -0.781  1.00  0.00     0.024 A 
HETATM   29  C   UNL     1      10.957   2.719  -0.248  1.00  0.00     0.034 A 
HETATM   30 CL   UNL     1      11.863   4.180  -0.269  1.00  0.00    -0.084 Cl
HETATM   31  C   UNL     1       9.682   2.702   0.310  1.00  0.00     0.024 A 
HETATM   32  C   UNL     1       8.946   1.511   0.332  1.00  0.00     0.015 A 
ENDBRANCH   9  26
TORSDOF 4
