REMARK  7 active torsions:
REMARK  status: ('A' for Active; 'I' for Inactive)
REMARK    1  A    between atoms: C_4  and  C_5 
REMARK    2  A    between atoms: C_5  and  C_6 
REMARK    3  A    between atoms: C_8  and  C_9 
REMARK    4  A    between atoms: C_9  and  C_10 
REMARK       I    between atoms: C_10  and  N_11 
REMARK    5  A    between atoms: N_11  and  N_12 
REMARK       I    between atoms: N_12  and  C_13 
REMARK       I    between atoms: C_13  and  N_14 
REMARK    6  A    between atoms: N_14  and  C_15 
REMARK    7  A    between atoms: C_17  and  C_18 
ROOT
HETATM    1  C   UNL     1       5.993  -4.205   1.478  1.00  0.00     0.238 C 
HETATM    2  N   UNL     1       5.727  -5.236   0.600  1.00  0.00    -0.266 N 
HETATM    3  O   UNL     1       6.468  -4.409   2.596  1.00  0.00    -0.272 OA
HETATM    4  H   UNL     1       5.610  -5.034  -0.387  1.00  0.00     0.190 HD
ENDROOT
BRANCH   1   5
HETATM    5  C   UNL     1       5.544  -2.812   1.060  1.00  0.00     0.139 C 
BRANCH   5   6
HETATM    6  C   UNL     1       5.733  -2.391  -0.397  1.00  0.00     0.185 C 
HETATM    7  N   UNL     1       4.566  -2.774  -1.184  1.00  0.00    -0.363 N 
HETATM    8  C   UNL     1       4.599  -3.805  -2.084  1.00  0.00     0.125 C 
HETATM    9  H   UNL     1       3.729  -2.205  -1.096  1.00  0.00     0.161 HD
HETATM   10  N   UNL     1       5.680  -4.478  -2.367  1.00  0.00    -0.159 NA
HETATM   11  N   UNL     1       6.866  -4.035  -1.840  1.00  0.00    -0.244 N 
HETATM   12  C   UNL     1       7.021  -2.955  -0.992  1.00  0.00     0.261 C 
HETATM   13  H   UNL     1       7.718  -4.435  -2.227  1.00  0.00     0.192 HD
HETATM   14  O   UNL     1       8.134  -2.550  -0.668  1.00  0.00    -0.269 OA
BRANCH   8  15
HETATM   15  C   UNL     1       3.297  -4.215  -2.763  1.00  0.00     0.118 C 
BRANCH  15  16
HETATM   16  C   UNL     1       3.007  -3.407  -4.003  1.00  0.00    -0.051 A 
HETATM   17  C   UNL     1       3.898  -3.418  -5.086  1.00  0.00     0.007 A 
HETATM   18  C   UNL     1       3.615  -2.695  -6.246  1.00  0.00     0.001 A 
HETATM   19  C   UNL     1       2.436  -1.961  -6.339  1.00  0.00     0.000 A 
HETATM   20  C   UNL     1       1.538  -1.948  -5.273  1.00  0.00     0.001 A 
HETATM   21  C   UNL     1       1.820  -2.668  -4.111  1.00  0.00     0.007 A 
ENDBRANCH  15  16
ENDBRANCH   8  15
ENDBRANCH   5   6
ENDBRANCH   1   5
BRANCH   2  22
HETATM   22  N   UNL     1       6.261  -6.498   0.922  1.00  0.00    -0.249 N 
HETATM   23  C   UNL     1       5.899  -7.656   0.265  1.00  0.00     0.339 C 
HETATM   24  N   UNL     1       5.454  -7.472  -1.025  1.00  0.00    -0.308 N 
HETATM   25  O   UNL     1       6.013  -8.730   0.847  1.00  0.00    -0.245 OA
HETATM   26  H   UNL     1       5.697  -6.590  -1.452  1.00  0.00     0.170 HD
HETATM   27  H   UNL     1       6.515  -6.620   1.904  1.00  0.00     0.192 HD
BRANCH  24  28
HETATM   28  C   UNL     1       4.916  -8.448  -1.890  1.00  0.00     0.037 A 
HETATM   29  C   UNL     1       4.581  -9.745  -1.491  1.00  0.00     0.045 A 
HETATM   30  C   UNL     1       4.034 -10.666  -2.404  1.00  0.00     0.050 A 
HETATM   31  C   UNL     1       3.825 -10.268  -3.732  1.00  0.00     0.016 A 
HETATM   32  C   UNL     1       4.149  -8.975  -4.137  1.00  0.00     0.003 A 
HETATM   33  C   UNL     1       4.694  -8.073  -3.221  1.00  0.00     0.029 A 
BRANCH  30  34
HETATM   34  C   UNL     1       3.715 -12.078  -1.977  1.00  0.00     0.417 C 
HETATM   35  F   UNL     1       3.535 -12.219  -0.635  1.00  0.00    -0.166 F 
HETATM   36  F   UNL     1       2.574 -12.554  -2.553  1.00  0.00    -0.166 F 
HETATM   37  F   UNL     1       4.697 -12.957  -2.321  1.00  0.00    -0.166 F 
ENDBRANCH  30  34
ENDBRANCH  24  28
ENDBRANCH   2  22
TORSDOF 7
