REMARK  9 active torsions:
REMARK  status: ('A' for Active; 'I' for Inactive)
REMARK    1  A    between atoms: O_2  and  C_3 
REMARK    2  A    between atoms: C_6  and  N_7 
REMARK    3  A    between atoms: N_10  and  C_11 
REMARK    4  A    between atoms: C_11  and  C_12 
REMARK    5  A    between atoms: C_14  and  O_15 
REMARK    6  A    between atoms: C_17  and  O_18 
REMARK    7  A    between atoms: C_22  and  C_23 
REMARK    8  A    between atoms: C_23  and  C_24 
REMARK       I    between atoms: C_24  and  N_25 
REMARK    9  A    between atoms: N_25  and  C_26 
ROOT
HETATM    1  N   UNL     1       5.081  -4.563   0.463  1.00  0.00    -0.232 N 
HETATM    2  C   UNL     1       6.350  -4.774  -0.035  1.00  0.00     0.333 C 
HETATM    3  O   UNL     1       7.148  -3.959  -0.474  1.00  0.00    -0.246 OA
HETATM    4  N   UNL     1       6.626  -6.136   0.031  1.00  0.00    -0.315 N 
HETATM    5  C   UNL     1       5.599  -6.871   0.735  1.00  0.00     0.191 C 
HETATM    6  C   UNL     1       4.532  -5.777   0.809  1.00  0.00     0.256 C 
HETATM    7  O   UNL     1       3.368  -6.024   1.114  1.00  0.00    -0.270 OA
ENDROOT
BRANCH   4   8
HETATM    8  C   UNL     1       7.902  -6.713  -0.370  1.00  0.00     0.167 C 
BRANCH   8   9
HETATM    9  C   UNL     1       7.860  -7.279  -1.771  1.00  0.00    -0.037 A 
HETATM   10  C   UNL     1       8.160  -8.631  -2.006  1.00  0.00     0.048 A 
HETATM   11  C   UNL     1       8.107  -9.167  -3.300  1.00  0.00     0.102 A 
HETATM   12  C   UNL     1       7.760  -8.338  -4.385  1.00  0.00     0.101 A 
HETATM   13  C   UNL     1       7.482  -6.988  -4.156  1.00  0.00     0.040 A 
HETATM   14  C   UNL     1       7.538  -6.464  -2.863  1.00  0.00     0.012 A 
BRANCH  11  15
HETATM   15  O   UNL     1       8.370 -10.479  -3.608  1.00  0.00    -0.353 OA
HETATM   16  C   UNL     1       8.788 -11.336  -2.555  1.00  0.00     0.210 C 
ENDBRANCH  11  15
BRANCH  12  17
HETATM   17  O   UNL     1       7.721  -8.939  -5.619  1.00  0.00    -0.353 OA
HETATM   18  C   UNL     1       7.427  -8.121  -6.742  1.00  0.00     0.210 C 
ENDBRANCH  12  17
ENDBRANCH   8   9
ENDBRANCH   4   8
BRANCH   5  19
HETATM   19  C   UNL     1       5.057  -8.111   0.042  1.00  0.00     0.138 C 
BRANCH  19  20
HETATM   20  C   UNL     1       4.376  -9.015   1.055  1.00  0.00     0.224 C 
HETATM   21  N   UNL     1       3.067  -8.659   1.307  1.00  0.00    -0.327 N 
HETATM   22  H   UNL     1       2.754  -7.771   0.916  1.00  0.00     0.169 HD
HETATM   23  O   UNL     1       5.005  -9.927   1.583  1.00  0.00    -0.273 OA
BRANCH  21  24
HETATM   24  C   UNL     1       2.144  -9.279   2.171  1.00  0.00     0.034 A 
HETATM   25  C   UNL     1       2.396 -10.454   2.878  1.00  0.00     0.029 A 
HETATM   26  C   UNL     1       1.415 -10.995   3.717  1.00  0.00     0.002 A 
HETATM   27  C   UNL     1       0.176 -10.370   3.848  1.00  0.00     0.000 A 
HETATM   28  C   UNL     1      -0.086  -9.201   3.141  1.00  0.00     0.002 A 
HETATM   29  C   UNL     1       0.894  -8.658   2.308  1.00  0.00     0.029 A 
ENDBRANCH  21  24
ENDBRANCH  19  20
ENDBRANCH   5  19
BRANCH   1  30
HETATM   30  C   UNL     1       4.394  -3.312   0.510  1.00  0.00     0.047 A 
HETATM   31  C   UNL     1       4.876  -2.173  -0.149  1.00  0.00     0.033 A 
HETATM   32  C   UNL     1       4.166  -0.963  -0.129  1.00  0.00     0.039 A 
HETATM   33  C   UNL     1       2.956  -0.855   0.550  1.00  0.00     0.068 A 
HETATM   34  C   UNL     1       2.481  -1.958   1.246  1.00  0.00     0.039 A 
HETATM   35  C   UNL     1       3.193  -3.167   1.226  1.00  0.00     0.033 A 
BRANCH  33  36
HETATM   36  O   UNL     1       2.348   0.366   0.471  1.00  0.00    -0.356 OA
HETATM   37  C   UNL     1       0.985   0.419   0.877  1.00  0.00     0.210 C 
ENDBRANCH  33  36
ENDBRANCH   1  30
TORSDOF 9
