REMARK  5 active torsions:
REMARK  status: ('A' for Active; 'I' for Inactive)
REMARK    1  A    between atoms: C_2  and  N_3 
REMARK    2  A    between atoms: C_2  and  C_19 
REMARK       I    between atoms: N_3  and  C_4 
REMARK    3  A    between atoms: C_4  and  C_5 
REMARK    4  A    between atoms: C_6  and  O_7 
REMARK    5  A    between atoms: O_7  and  C_8 
ROOT
HETATM    1  C   UNL     1       1.799   2.798  -1.102  1.00  0.00     0.065 A 
HETATM    2  C   UNL     1       0.997   1.855  -1.757  1.00  0.00     0.091 A 
HETATM    3  C   UNL     1      -0.002   2.291  -2.639  1.00  0.00     0.038 A 
HETATM    4  C   UNL     1      -0.167   3.653  -2.900  1.00  0.00     0.003 A 
HETATM    5  C   UNL     1       0.650   4.589  -2.270  1.00  0.00     0.001 A 
HETATM    6  C   UNL     1       1.631   4.166  -1.372  1.00  0.00     0.020 A 
ENDROOT
BRANCH   1   7
HETATM    7  C   UNL     1       2.861   2.373  -0.156  1.00  0.00     0.255 C 
HETATM    8  N   UNL     1       2.940   3.108   1.008  1.00  0.00    -0.348 N 
HETATM    9  H   UNL     1       2.200   3.762   1.232  1.00  0.00     0.163 HD
HETATM   10  O   UNL     1       3.615   1.447  -0.427  1.00  0.00    -0.268 OA
BRANCH   8  11
HETATM   11  C   UNL     1       3.891   2.777   2.063  1.00  0.00     0.115 C 
HETATM   12  C   UNL     1       3.249   1.754   3.005  1.00  0.00     0.037 C 
BRANCH  11  13
HETATM   13  C   UNL     1       4.392   4.050   2.718  1.00  0.00    -0.018 A 
HETATM   14  C   UNL     1       4.434   4.250   4.095  1.00  0.00     0.125 A 
HETATM   15  N   UNL     1       4.901   5.371   4.696  1.00  0.00    -0.273 NA
HETATM   16  C   UNL     1       5.366   6.347   3.890  1.00  0.00     0.116 A 
HETATM   17  C   UNL     1       5.385   6.256   2.511  1.00  0.00     0.020 A 
HETATM   18  C   UNL     1       4.898   5.092   1.924  1.00  0.00     0.012 A 
ENDBRANCH  11  13
ENDBRANCH   8  11
ENDBRANCH   1   7
BRANCH   2  19
HETATM   19  O   UNL     1       1.126   0.520  -1.440  1.00  0.00    -0.310 OA
BRANCH  19  20
HETATM   20  C   UNL     1       1.167  -0.374  -2.487  1.00  0.00     0.076 A 
HETATM   21  C   UNL     1       2.010  -0.206  -3.588  1.00  0.00     0.037 A 
HETATM   22  C   UNL     1       2.014  -1.159  -4.608  1.00  0.00     0.003 A 
HETATM   23  C   UNL     1       1.195  -2.285  -4.516  1.00  0.00     0.000 A 
HETATM   24  C   UNL     1       0.378  -2.466  -3.399  1.00  0.00     0.003 A 
HETATM   25  C   UNL     1       0.370  -1.514  -2.380  1.00  0.00     0.037 A 
ENDBRANCH  19  20
ENDBRANCH   2  19
TORSDOF 5
