REMARK  6 active torsions:
REMARK  status: ('A' for Active; 'I' for Inactive)
REMARK    1  A    between atoms: C_7  and  C_8 
REMARK    2  A    between atoms: C_8  and  O_9 
REMARK    3  A    between atoms: N_12  and  C_13 
REMARK    4  A    between atoms: C_13  and  C_14 
REMARK    5  A    between atoms: C_14  and  C_15 
REMARK    6  A    between atoms: C_15  and  C_16 
ROOT
HETATM    1  C   UNL     1       2.082  -2.269  -0.041  1.00  0.00     0.199 A 
HETATM    2  C   UNL     1       2.618  -3.550  -0.748  1.00  0.00     0.269 A 
HETATM    3  O   UNL     1       2.716  -3.719  -1.957  1.00  0.00    -0.269 OA
HETATM    4  N   UNL     1       2.849  -4.514   0.250  1.00  0.00    -0.314 N 
HETATM    5  C   UNL     1       2.559  -3.995   1.522  1.00  0.00     0.047 A 
HETATM    6  C   UNL     1       2.119  -2.669   1.411  1.00  0.00     0.017 A 
HETATM    7  C   UNL     1       2.643  -4.624   2.752  1.00  0.00     0.030 A 
HETATM    8  C   UNL     1       2.271  -3.902   3.889  1.00  0.00     0.002 A 
HETATM    9  C   UNL     1       1.818  -2.577   3.783  1.00  0.00     0.001 A 
HETATM   10  C   UNL     1       1.734  -1.954   2.538  1.00  0.00     0.013 A 
ENDROOT
BRANCH   1  11
HETATM   11  C   UNL     1       2.934  -1.031  -0.203  1.00  0.00     0.025 A 
HETATM   12  C   UNL     1       2.471   0.275  -0.380  1.00  0.00     0.016 A 
HETATM   13  C   UNL     1       1.090   0.829  -0.454  1.00  0.00     0.069 C 
HETATM   14  N   UNL     1       3.556   1.104  -0.484  1.00  0.00    -0.359 N 
HETATM   15  H   UNL     1       3.513   2.105  -0.619  1.00  0.00     0.166 HD
HETATM   16  C   UNL     1       4.723   0.398  -0.353  1.00  0.00     0.043 A 
HETATM   17  C   UNL     1       4.376  -0.942  -0.180  1.00  0.00     0.003 A 
HETATM   18  C   UNL     1       6.047   0.853  -0.373  1.00  0.00     0.030 A 
HETATM   19  C   UNL     1       5.428  -1.871  -0.014  1.00  0.00     0.014 A 
HETATM   20  C   UNL     1       6.759  -1.435  -0.029  1.00  0.00     0.001 A 
HETATM   21  C   UNL     1       7.062  -0.090  -0.206  1.00  0.00     0.002 A 
ENDBRANCH   1  11
BRANCH   1  22
HETATM   22  O   UNL     1       0.727  -2.073  -0.448  1.00  0.00    -0.371 OA
HETATM   23  H   UNL     1       0.782  -1.985  -1.417  1.00  0.00     0.212 HD
ENDBRANCH   1  22
BRANCH   4  24
HETATM   24  C   UNL     1       3.095  -5.907  -0.046  1.00  0.00     0.133 C 
BRANCH  24  25
HETATM   25  C   UNL     1       4.529  -6.219  -0.468  1.00  0.00     0.025 C 
BRANCH  25  26
HETATM   26  C   UNL     1       5.528  -6.126   0.688  1.00  0.00     0.040 C 
BRANCH  26  27
HETATM   27  C   UNL     1       6.841  -6.795   0.352  1.00  0.00    -0.058 A 
HETATM   28  C   UNL     1       7.641  -6.325  -0.699  1.00  0.00     0.007 A 
HETATM   29  C   UNL     1       8.836  -6.969  -1.024  1.00  0.00     0.001 A 
HETATM   30  C   UNL     1       9.250  -8.084  -0.297  1.00  0.00     0.000 A 
HETATM   31  C   UNL     1       8.470  -8.553   0.759  1.00  0.00     0.001 A 
HETATM   32  C   UNL     1       7.273  -7.912   1.082  1.00  0.00     0.007 A 
ENDBRANCH  26  27
ENDBRANCH  25  26
ENDBRANCH  24  25
ENDBRANCH   4  24
TORSDOF 6
