REMARK  8 active torsions:
REMARK  status: ('A' for Active; 'I' for Inactive)
REMARK    1  A    between atoms: C_4  and  O_5 
REMARK    2  A    between atoms: O_5  and  C_6 
REMARK    3  A    between atoms: C_6  and  C_7 
REMARK       I    between atoms: C_7  and  N_8 
REMARK    4  A    between atoms: N_8  and  C_9 
REMARK    5  A    between atoms: C_9  and  N_10 
REMARK    6  A    between atoms: N_10  and  C_11 
REMARK    7  A    between atoms: C_14  and  N_15 
REMARK    8  A    between atoms: N_18  and  C_19 
ROOT
HETATM    1  C   UNL     1       2.803  -0.462   0.562  1.00  0.00     0.034 A 
HETATM    2  C   UNL     1       3.225  -1.502   1.395  1.00  0.00     0.031 A 
HETATM    3  C   UNL     1       2.943  -2.842   1.087  1.00  0.00     0.026 A 
HETATM    4  C   UNL     1       2.220  -3.194  -0.058  1.00  0.00     0.010 A 
HETATM    5  C   UNL     1       1.734  -2.130  -0.835  1.00  0.00     0.026 A 
HETATM    6  C   UNL     1       2.027  -0.787  -0.541  1.00  0.00     0.031 A 
ENDROOT
BRANCH   4   7
HETATM    7  N   UNL     1       1.941  -4.524  -0.427  1.00  0.00    -0.280 NA
HETATM    8  C   UNL     1       2.334  -5.596   0.522  1.00  0.00     0.115 C 
HETATM    9  C   UNL     1       1.814  -6.982   0.070  1.00  0.00     0.138 C 
HETATM   10  N   UNL     1       2.258  -7.288  -1.311  1.00  0.00    -0.374 N 
HETATM   11  C   UNL     1       1.827  -6.231  -2.263  1.00  0.00     0.138 C 
HETATM   12  C   UNL     1       2.350  -4.844  -1.824  1.00  0.00     0.115 C 
BRANCH  10  13
HETATM   13  C   UNL     1       2.141  -8.605  -1.797  1.00  0.00     0.115 A 
HETATM   14  C   UNL     1       1.395  -9.621  -1.164  1.00  0.00     0.187 A 
HETATM   15  F   UNL     1       0.692  -9.363  -0.050  1.00  0.00    -0.200 F 
HETATM   16  C   UNL     1       1.334 -10.919  -1.675  1.00  0.00     0.199 A 
HETATM   17  F   UNL     1       0.603 -11.848  -1.042  1.00  0.00    -0.199 F 
HETATM   18  C   UNL     1       2.020 -11.251  -2.829  1.00  0.00     0.199 A 
HETATM   19  F   UNL     1       1.957 -12.498  -3.316  1.00  0.00    -0.199 F 
HETATM   20  C   UNL     1       2.774 -10.289  -3.475  1.00  0.00     0.199 A 
HETATM   21  F   UNL     1       3.452 -10.605  -4.588  1.00  0.00    -0.199 F 
HETATM   22  C   UNL     1       2.838  -8.993  -2.965  1.00  0.00     0.187 A 
HETATM   23  F   UNL     1       3.622  -8.108  -3.604  1.00  0.00    -0.200 F 
ENDBRANCH  10  13
ENDBRANCH   4   7
BRANCH   1  24
HETATM   24  N   UNL     1       3.196   0.838   0.939  1.00  0.00    -0.333 N 
HETATM   25  H   UNL     1       3.602   0.889   1.874  1.00  0.00     0.168 HD
BRANCH  24  26
HETATM   26  C   UNL     1       3.256   2.035   0.262  1.00  0.00     0.178 C 
HETATM   27  S   UNL     1       2.884   2.385  -1.328  1.00  0.00    -0.040 SA
BRANCH  26  28
HETATM   28  N   UNL     1       3.752   3.092   1.012  1.00  0.00    -0.302 N 
HETATM   29  C   UNL     1       4.214   3.097   2.321  1.00  0.00     0.248 C 
HETATM   30  O   UNL     1       4.125   2.133   3.081  1.00  0.00    -0.271 OA
HETATM   31  H   UNL     1       3.896   3.944   0.478  1.00  0.00     0.171 HD
BRANCH  29  32
HETATM   32  C   UNL     1       4.821   4.425   2.756  1.00  0.00     0.278 C 
BRANCH  32  33
HETATM   33  O   UNL     1       5.603   5.043   1.741  1.00  0.00    -0.342 OA
BRANCH  33  34
HETATM   34  C   UNL     1       6.917   4.662   1.666  1.00  0.00     0.069 A 
HETATM   35  C   UNL     1       7.434   3.436   2.090  1.00  0.00     0.037 A 
HETATM   36  C   UNL     1       8.796   3.158   1.937  1.00  0.00     0.003 A 
HETATM   37  C   UNL     1       9.645   4.100   1.361  1.00  0.00     0.000 A 
HETATM   38  C   UNL     1       9.131   5.320   0.928  1.00  0.00     0.003 A 
HETATM   39  C   UNL     1       7.770   5.595   1.072  1.00  0.00     0.037 A 
ENDBRANCH  33  34
ENDBRANCH  32  33
ENDBRANCH  29  32
ENDBRANCH  26  28
ENDBRANCH  24  26
ENDBRANCH   1  24
TORSDOF 8
