REMARK  6 active torsions:
REMARK  status: ('A' for Active; 'I' for Inactive)
REMARK    1  A    between atoms: C_2  and  N_3 
REMARK    2  A    between atoms: C_2  and  C_17 
REMARK       I    between atoms: N_3  and  C_4 
REMARK    3  A    between atoms: C_4  and  C_5 
REMARK    4  A    between atoms: C_6  and  O_7 
REMARK    5  A    between atoms: O_7  and  C_8 
REMARK    6  A    between atoms: C_8  and  C_9 
ROOT
HETATM    1  N   UNL     1       3.345   0.033  -1.055  1.00  0.00    -0.346 N 
HETATM    2  C   UNL     1       3.067  -0.868  -2.049  1.00  0.00     0.256 C 
HETATM    3  O   UNL     1       3.612  -0.761  -3.143  1.00  0.00    -0.267 OA
HETATM    4  H   UNL     1       4.046   0.704  -1.340  1.00  0.00     0.163 HD
ENDROOT
BRANCH   1   5
HETATM    5  C   UNL     1       2.885   0.052   0.327  1.00  0.00     0.150 C 
HETATM    6  C   UNL     1       2.299   1.415   0.679  1.00  0.00     0.040 C 
BRANCH   5   7
HETATM    7  C   UNL     1       4.049  -0.322   1.198  1.00  0.00     0.127 A 
HETATM    8  N   UNL     1       4.248  -1.489   1.783  1.00  0.00    -0.231 NA
HETATM    9  C   UNL     1       5.459  -1.385   2.425  1.00  0.00     0.085 A 
HETATM   10  C   UNL     1       6.013  -0.126   2.237  1.00  0.00     0.062 A 
HETATM   11  C   UNL     1       6.157  -2.331   3.189  1.00  0.00     0.034 A 
HETATM   12  N   UNL     1       5.100   0.530   1.453  1.00  0.00    -0.341 N 
HETATM   13  C   UNL     1       7.242   0.263   2.774  1.00  0.00     0.032 A 
HETATM   14  H   UNL     1       5.195   1.474   1.109  1.00  0.00     0.167 HD
HETATM   15  C   UNL     1       7.924  -0.693   3.533  1.00  0.00     0.002 A 
HETATM   16  C   UNL     1       7.395  -1.970   3.739  1.00  0.00     0.002 A 
ENDBRANCH   5   7
ENDBRANCH   1   5
BRANCH   2  17
HETATM   17  C   UNL     1       2.115  -1.962  -1.815  1.00  0.00     0.084 A 
HETATM   18  C   UNL     1       0.932  -2.030  -2.541  1.00  0.00     0.180 A 
HETATM   19  N   UNL     1       0.018  -3.020  -2.384  1.00  0.00    -0.236 NA
HETATM   20  C   UNL     1       0.326  -3.997  -1.500  1.00  0.00     0.119 A 
HETATM   21  C   UNL     1       1.497  -4.028  -0.757  1.00  0.00     0.020 A 
HETATM   22  C   UNL     1       2.413  -2.993  -0.923  1.00  0.00     0.023 A 
BRANCH  18  23
HETATM   23  O   UNL     1       0.615  -0.993  -3.392  1.00  0.00    -0.328 OA
BRANCH  23  24
HETATM   24  C   UNL     1      -0.277  -1.373  -4.448  1.00  0.00     0.248 C 
BRANCH  24  25
HETATM   25  C   UNL     1      -1.736  -1.199  -4.061  1.00  0.00     0.377 C 
HETATM   26  F   UNL     1      -2.052   0.126  -4.063  1.00  0.00    -0.212 F 
HETATM   27  F   UNL     1      -2.528  -1.774  -5.005  1.00  0.00    -0.212 F 
ENDBRANCH  24  25
ENDBRANCH  23  24
ENDBRANCH  18  23
ENDBRANCH   2  17
TORSDOF 6
