REMARK  4 active torsions:
REMARK  status: ('A' for Active; 'I' for Inactive)
REMARK    1  A    between atoms: C_3  and  N_4 
REMARK       I    between atoms: N_4  and  C_5 
REMARK    2  A    between atoms: C_5  and  C_6 
REMARK    3  A    between atoms: C_7  and  C_8 
REMARK    4  A    between atoms: C_16  and  C_17 
ROOT
HETATM    1  C   UNL     1      -1.026  -1.004   0.192  1.00  0.00     0.003 A 
HETATM    2  C   UNL     1       0.360  -1.154   0.118  1.00  0.00     0.029 A 
HETATM    3  C   UNL     1       1.194  -0.047   0.257  1.00  0.00     0.035 A 
HETATM    4  C   UNL     1       0.620   1.218   0.459  1.00  0.00     0.042 A 
HETATM    5  C   UNL     1      -0.774   1.389   0.529  1.00  0.00    -0.021 A 
HETATM    6  C   UNL     1      -1.588   0.257   0.399  1.00  0.00     0.012 A 
ENDROOT
BRANCH   3   7
HETATM    7  N   UNL     1       2.603  -0.120   0.242  1.00  0.00    -0.327 N 
HETATM    8  C   UNL     1       3.381  -1.237   0.020  1.00  0.00     0.227 C 
HETATM    9  O   UNL     1       3.002  -2.347  -0.325  1.00  0.00    -0.273 OA
HETATM   10  H   UNL     1       3.093   0.741   0.445  1.00  0.00     0.169 HD
BRANCH   8  11
HETATM   11  C   UNL     1       4.832  -1.000   0.280  1.00  0.00     0.089 A 
HETATM   12  C   UNL     1       5.590  -2.089   1.032  1.00  0.00     0.057 A 
HETATM   13  C   UNL     1       5.904  -1.779  -0.413  1.00  0.00     0.027 A 
BRANCH  12  14
HETATM   14  C   UNL     1       6.532  -1.627   2.123  1.00  0.00     0.057 A 
HETATM   15  O   UNL     1       7.255  -0.472   2.090  1.00  0.00    -0.327 OA
HETATM   16  C   UNL     1       7.948  -0.407   3.256  1.00  0.00     0.142 A 
HETATM   17  C   UNL     1       7.678  -1.504   4.039  1.00  0.00     0.027 A 
HETATM   18  C   UNL     1       6.764  -2.297   3.305  1.00  0.00     0.035 A 
ENDBRANCH  12  14
ENDBRANCH   8  11
ENDBRANCH   3   7
BRANCH   5  19
HETATM   19  C   UNL     1      -1.341   2.715   0.741  1.00  0.00     0.010 A 
HETATM   20  C   UNL     1      -0.737   3.929   1.152  1.00  0.00     0.152 A 
HETATM   21  N   UNL     1      -1.599   4.947   1.219  1.00  0.00    -0.187 NA
HETATM   22  N   UNL     1      -2.763   4.394   0.852  1.00  0.00    -0.289 N 
HETATM   23  H   UNL     1      -3.589   4.983   0.824  1.00  0.00     0.188 HD
HETATM   24  C   UNL     1      -2.663   3.065   0.554  1.00  0.00     0.123 A 
ENDBRANCH   5  19
TORSDOF 4
