REMARK  9 active torsions:
REMARK  status: ('A' for Active; 'I' for Inactive)
REMARK    1  A    between atoms: C_2  and  C_3 
REMARK    2  A    between atoms: C_3  and  O_4 
REMARK    3  A    between atoms: O_4  and  C_5 
REMARK    4  A    between atoms: C_8  and  C_9 
REMARK    5  A    between atoms: C_13  and  C_14 
REMARK       I    between atoms: C_14  and  N_15 
REMARK    6  A    between atoms: N_15  and  N_16 
REMARK    7  A    between atoms: C_17  and  C_18 
REMARK    8  A    between atoms: C_21  and  O_22 
REMARK    9  A    between atoms: O_22  and  C_23 
ROOT
HETATM    1  C   UNL     1       6.467   5.962  -2.910  1.00  0.00     0.089 A 
HETATM    2  N   UNL     1       6.126   7.212  -2.561  1.00  0.00    -0.174 NA
HETATM    3  N   UNL     1       6.722   7.993  -3.474  1.00  0.00    -0.272 N 
HETATM    4  H   UNL     1       6.602   9.000  -3.418  1.00  0.00     0.189 HD
HETATM    5  C   UNL     1       7.420   7.308  -4.429  1.00  0.00     0.121 A 
HETATM    6  C   UNL     1       7.293   5.981  -4.070  1.00  0.00     0.071 A 
ENDROOT
BRANCH   5   7
HETATM    7  C   UNL     1       8.065   7.998  -5.519  1.00  0.00     0.289 C 
HETATM    8  N   UNL     1       8.703   7.170  -6.430  1.00  0.00    -0.242 N 
HETATM    9  H   UNL     1       8.700   6.167  -6.301  1.00  0.00     0.192 HD
HETATM   10  O   UNL     1       8.019   9.222  -5.608  1.00  0.00    -0.264 OA
BRANCH   8  11
HETATM   11  N   UNL     1       9.254   7.692  -7.565  1.00  0.00    -0.184 NA
HETATM   12  C   UNL     1       9.826   6.840  -8.354  1.00  0.00     0.150 C 
BRANCH  12  13
HETATM   13  C   UNL     1      10.431   7.253  -9.635  1.00  0.00    -0.017 A 
HETATM   14  C   UNL     1      10.329   8.571 -10.082  1.00  0.00     0.016 A 
HETATM   15  C   UNL     1      10.896   8.930 -11.306  1.00  0.00     0.037 A 
HETATM   16  C   UNL     1      11.572   7.986 -12.085  1.00  0.00     0.068 A 
HETATM   17  C   UNL     1      11.671   6.669 -11.631  1.00  0.00     0.037 A 
HETATM   18  C   UNL     1      11.100   6.301 -10.407  1.00  0.00     0.016 A 
BRANCH  16  19
HETATM   19  O   UNL     1      12.078   8.473 -13.258  1.00  0.00    -0.352 OA
BRANCH  19  20
HETATM   20  C   UNL     1      12.874   7.587 -14.042  1.00  0.00     0.171 C 
HETATM   21  C   UNL     1      13.372   8.355 -15.254  1.00  0.00     0.034 C 
ENDBRANCH  19  20
ENDBRANCH  16  19
ENDBRANCH  12  13
ENDBRANCH   8  11
ENDBRANCH   5   7
BRANCH   1  22
HETATM   22  C   UNL     1       5.979   4.794  -2.173  1.00  0.00    -0.005 A 
HETATM   23  C   UNL     1       4.793   4.871  -1.429  1.00  0.00     0.016 A 
HETATM   24  C   UNL     1       4.283   3.749  -0.764  1.00  0.00     0.037 A 
HETATM   25  C   UNL     1       4.956   2.531  -0.832  1.00  0.00     0.068 A 
HETATM   26  C   UNL     1       6.155   2.454  -1.542  1.00  0.00     0.037 A 
HETATM   27  C   UNL     1       6.663   3.573  -2.212  1.00  0.00     0.016 A 
BRANCH  25  28
HETATM   28  O   UNL     1       4.558   1.360  -0.249  1.00  0.00    -0.351 OA
BRANCH  28  29
HETATM   29  C   UNL     1       3.223   1.318   0.258  1.00  0.00     0.175 C 
BRANCH  29  30
HETATM   30  C   UNL     1       2.925  -0.122   0.665  1.00  0.00     0.022 C 
HETATM   31  C   UNL     1       1.510  -0.278   1.194  1.00  0.00     0.007 C 
ENDBRANCH  29  30
ENDBRANCH  28  29
ENDBRANCH  25  28
ENDBRANCH   1  22
TORSDOF 9
