REMARK  8 active torsions:
REMARK  status: ('A' for Active; 'I' for Inactive)
REMARK    1  A    between atoms: C_3  and  C_27 
REMARK       I    between atoms: N_12  and  C_13 
REMARK    2  A    between atoms: C_13  and  C_14 
REMARK    3  A    between atoms: C_14  and  O_15 
REMARK    4  A    between atoms: C_18  and  C_36 
REMARK    5  A    between atoms: O_19  and  C_36 
REMARK    6  A    between atoms: C_20  and  O_21 
REMARK    7  A    between atoms: C_27  and  C_28 
REMARK       I    between atoms: C_28  and  N_29 
REMARK    8  A    between atoms: N_29  and  C_30 
ROOT
HETATM    1  C           1       2.546   0.828  -0.983  0.00  0.00     0.016 C 
HETATM    2  C           1       2.295   0.382   0.482  0.00  0.00    -0.030 C 
HETATM    3  C           1       1.074  -0.595   0.480  0.00  0.00     0.056 C 
HETATM    4  C           1      -0.181   0.220   0.398  0.00  0.00     0.056 A 
HETATM    5  C           1      -0.378   1.288   1.168  0.00  0.00     0.012 A 
HETATM    6  S           1      -1.679   1.893   0.871  0.00  0.00    -0.055 SA
HETATM    7  C           1      -2.020   0.898  -0.153  0.00  0.00     0.174 A 
HETATM    8  N           1      -3.203   1.005  -0.788  0.00  0.00    -0.304 N 
HETATM    9  C           1      -3.728   0.237  -1.786  0.00  0.00     0.247 C 
HETATM   10  O           1      -3.157  -0.702  -2.281  0.00  0.00    -0.271 OA
HETATM   11  N           1      -1.150   0.006  -0.375  0.00  0.00    -0.227 NA
HETATM   12  C           1       3.241   2.126   2.293  0.00  0.00     0.008 C 
HETATM   13  C           1       4.601   1.863   1.620  0.00  0.00     0.128 C 
HETATM   14  C           1       3.538  -0.391   0.965  0.00  0.00     0.013 C 
HETATM   15  H           1      -3.754   1.775  -0.438  0.00  0.00     0.171 HD
HETATM   16  C           1       3.240   1.451   3.687  0.00  0.00     0.020 C 
HETATM   17  C           1       0.699   1.702   2.120  0.00  0.00     0.055 C 
HETATM   18  C           1       2.060   1.655   1.381  0.00  0.00     0.012 C 
HETATM   19  C           1       4.808   0.461   1.047  0.00  0.00     0.033 C 
ENDROOT
BRANCH   3  20
HETATM   20  C           1       1.060  -1.736  -0.560  0.00  0.00     0.114 C 
BRANCH  20  21
HETATM   21  C           1      -0.085  -2.720  -0.331  0.00  0.00     0.222 C 
HETATM   22  O           1      -0.243  -3.247   0.740  0.00  0.00    -0.273 OA
HETATM   23  N           1      -0.880  -2.916  -1.421  0.00  0.00    -0.327 N 
HETATM   24  H           1      -0.654  -2.400  -2.259  0.00  0.00     0.169 HD
BRANCH  23  25
HETATM   25  C           1      -1.978  -3.668  -1.642  0.00  0.00     0.034 A 
HETATM   26  C           1      -2.479  -3.613  -2.891  0.00  0.00     0.029 A 
HETATM   27  C           1      -3.572  -4.308  -3.240  0.00  0.00     0.002 A 
HETATM   28  C           1      -4.187  -5.082  -2.335  0.00  0.00     0.000 A 
HETATM   29  C           1      -3.699  -5.153  -1.088  0.00  0.00     0.002 A 
HETATM   30  C           1      -2.604  -4.453  -0.747  0.00  0.00     0.029 A 
ENDBRANCH  23  25
ENDBRANCH  20  21
ENDBRANCH   3  20
BRANCH  12  31
HETATM   31  C           1       3.095   3.648   2.554  0.00  0.00     0.176 C 
BRANCH  31  32
HETATM   32  O           1       4.307   4.201   3.028  0.00  0.00    -0.400 OA
HETATM   33  H           1       4.155   5.096   3.337  0.00  0.00     0.209 HD
ENDBRANCH  31  32
ENDBRANCH  12  31
BRANCH  13  34
HETATM   34  O           1       4.812   2.830   0.616  0.00  0.00    -0.395 OA
HETATM   35  H           1       5.042   3.657   1.050  0.00  0.00     0.210 HD
ENDBRANCH  13  34
BRANCH   9  36
HETATM   36  C           1      -5.115   0.674  -2.235  0.00  0.00     0.270 C 
BRANCH  36  37
HETATM   37  O           1      -5.760   1.424  -1.222  0.00  0.00    -0.387 OA
HETATM   38  C           1      -7.057   1.829  -1.601  0.00  0.00     0.202 C 
ENDBRANCH  36  37
ENDBRANCH   9  36
TORSDOF 8
