REMARK  7 active torsions:
REMARK  status: ('A' for Active; 'I' for Inactive)
REMARK    1  A    between atoms: C_2  and  C_3 
REMARK    2  A    between atoms: C_3  and  C_4 
REMARK    3  A    between atoms: C_4  and  O_5 
REMARK    4  A    between atoms: O_5  and  C_6 
REMARK    5  A    between atoms: C_9  and  C_10 
REMARK       I    between atoms: C_10  and  N_11 
REMARK    6  A    between atoms: N_11  and  C_12 
REMARK    7  A    between atoms: C_19  and  C_20 
REMARK       I    between atoms: C_20  and  N_21 
ROOT
HETATM    1  C   UNL     1       1.499   5.756   6.470  1.00  0.00     0.256 C 
HETATM    2  N   UNL     1       0.463   5.645   7.382  1.00  0.00    -0.323 N 
HETATM    3  O   UNL     1       2.228   6.729   6.319  1.00  0.00    -0.267 OA
HETATM    4  H   UNL     1      -0.065   4.786   7.388  1.00  0.00     0.169 HD
ENDROOT
BRANCH   2   5
HETATM    5  C   UNL     1       0.084   6.585   8.368  1.00  0.00     0.036 A 
HETATM    6  C   UNL     1       0.808   7.748   8.659  1.00  0.00     0.046 A 
HETATM    7  C   UNL     1       0.372   8.602   9.697  1.00  0.00     0.030 A 
HETATM    8  C   UNL     1      -0.787   8.275  10.390  1.00  0.00     0.063 A 
HETATM    9  C   UNL     1       0.836   9.808  10.304  1.00  0.00     0.156 A 
HETATM   10  N   UNL     1      -0.955   9.273  11.309  1.00  0.00    -0.277 N 
HETATM   11  C   UNL     1      -1.541   7.132  10.120  1.00  0.00     0.034 A 
HETATM   12  H   UNL     1      -1.704   9.365  11.985  1.00  0.00     0.189 HD
HETATM   13  N   UNL     1       0.006  10.211  11.293  1.00  0.00    -0.168 NA
HETATM   14  C   UNL     1      -1.074   6.290   9.103  1.00  0.00     0.032 A 
BRANCH   9  15
HETATM   15  C   UNL     1       2.050  10.569   9.976  1.00  0.00     0.270 C 
HETATM   16  N   UNL     1       2.237  11.681  10.752  1.00  0.00    -0.365 N 
HETATM   17  H   UNL     1       1.562  11.884  11.480  1.00  0.00     0.159 HD
HETATM   18  H   UNL     1       3.058  12.249  10.618  1.00  0.00     0.159 HD
HETATM   19  O   UNL     1       2.855  10.264   9.103  1.00  0.00    -0.266 OA
ENDBRANCH   9  15
ENDBRANCH   2   5
BRANCH   1  20
HETATM   20  C   UNL     1       1.750   4.551   5.616  1.00  0.00     0.032 A 
HETATM   21  C   UNL     1       0.765   3.600   5.317  1.00  0.00     0.020 A 
HETATM   22  C   UNL     1       1.080   2.470   4.548  1.00  0.00     0.038 A 
HETATM   23  C   UNL     1       2.374   2.288   4.061  1.00  0.00     0.068 A 
HETATM   24  C   UNL     1       3.343   3.259   4.316  1.00  0.00     0.038 A 
HETATM   25  C   UNL     1       3.037   4.381   5.090  1.00  0.00     0.020 A 
BRANCH  23  26
HETATM   26  O   UNL     1       2.803   1.230   3.310  1.00  0.00    -0.351 OA
BRANCH  26  27
HETATM   27  C   UNL     1       1.999   0.048   3.350  1.00  0.00     0.176 C 
BRANCH  27  28
HETATM   28  C   UNL     1       2.784  -1.069   2.662  1.00  0.00     0.030 C 
BRANCH  28  29
HETATM   29  C   UNL     1       2.018  -2.399   2.568  1.00  0.00    -0.021 C 
HETATM   30  C   UNL     1       1.735  -3.005   3.944  1.00  0.00     0.009 C 
HETATM   31  C   UNL     1       2.810  -3.396   1.719  1.00  0.00     0.009 C 
ENDBRANCH  28  29
ENDBRANCH  27  28
ENDBRANCH  26  27
ENDBRANCH  23  26
ENDBRANCH   1  20
TORSDOF 7
