REMARK  6 active torsions:
REMARK  status: ('A' for Active; 'I' for Inactive)
REMARK    1  A    between atoms: C_7  and  S_8 
REMARK    2  A    between atoms: S_8  and  C_9 
REMARK    3  A    between atoms: C_9  and  C_10 
REMARK    4  A    between atoms: C_18  and  C_19 
REMARK    5  A    between atoms: C_26  and  C_27 
REMARK    6  A    between atoms: C_27  and  O_28 
ROOT
HETATM    1  C   UNL     1       0.927   0.206   0.143  1.00  0.00     0.070 C 
HETATM    2  C   UNL     1       2.429   0.144   0.031  1.00  0.00     0.037 C 
HETATM    3  N   UNL     1       3.085   1.372   0.048  1.00  0.00    -0.192 N 
HETATM    4  C   UNL     1       4.416   1.489   0.216  1.00  0.00     0.726 A 
HETATM    5  N   UNL     1       5.199   0.369   0.172  1.00  0.00    -0.082 N 
HETATM    6  N   UNL     1       6.486   0.658   0.460  1.00  0.00    -0.128 NA
HETATM    7  C   UNL     1       6.411   1.984   0.636  1.00  0.00     0.226 A 
HETATM    8  N   UNL     1       5.159   2.529   0.481  1.00  0.00    -0.035 NA
HETATM    9  C   UNL     1       4.678  -0.983  -0.059  1.00  0.00     0.203 C 
HETATM   10  C   UNL     1       3.154  -1.003  -0.015  1.00  0.00     0.070 C 
HETATM   11  H   UNL     1       2.515   2.205   0.180  1.00  0.00     0.184 HD
ENDROOT
BRANCH   7  12
HETATM   12  S   UNL     1       7.769   2.969   1.097  1.00  0.00    -0.083 SA
BRANCH  12  13
HETATM   13  C   UNL     1       9.158   1.873   0.703  1.00  0.00     0.123 C 
BRANCH  13  14
HETATM   14  C   UNL     1      10.479   2.556   0.978  1.00  0.00    -0.027 A 
HETATM   15  C   UNL     1      11.168   2.427   2.195  1.00  0.00     0.041 A 
HETATM   16 CL   UNL     1      10.579   1.438   3.484  1.00  0.00    -0.084 Cl
HETATM   17  C   UNL     1      12.370   3.111   2.408  1.00  0.00     0.024 A 
HETATM   18  C   UNL     1      12.896   3.938   1.417  1.00  0.00     0.002 A 
HETATM   19  C   UNL     1      12.222   4.083   0.208  1.00  0.00     0.001 A 
HETATM   20  C   UNL     1      11.024   3.399  -0.010  1.00  0.00     0.009 A 
ENDBRANCH  13  14
ENDBRANCH  12  13
ENDBRANCH   7  12
BRANCH   9  21
HETATM   21  C   UNL     1       5.218  -1.538  -1.378  1.00  0.00    -0.028 A 
HETATM   22  C   UNL     1       5.906  -2.764  -1.389  1.00  0.00     0.011 A 
HETATM   23  C   UNL     1       6.384  -3.303  -2.586  1.00  0.00     0.024 A 
HETATM   24  C   UNL     1       6.176  -2.624  -3.784  1.00  0.00     0.034 A 
HETATM   25 CL   UNL     1       6.761  -3.290  -5.258  1.00  0.00    -0.084 Cl
HETATM   26  C   UNL     1       5.492  -1.412  -3.796  1.00  0.00     0.024 A 
HETATM   27  C   UNL     1       5.011  -0.872  -2.601  1.00  0.00     0.011 A 
ENDBRANCH   9  21
BRANCH  10  28
HETATM   28  C   UNL     1       2.587  -2.367   0.037  1.00  0.00     0.293 C 
HETATM   29  O   UNL     1       3.126  -3.280   0.644  1.00  0.00    -0.259 OA
BRANCH  28  30
HETATM   30  O   UNL     1       1.465  -2.463  -0.714  1.00  0.00    -0.323 OA
HETATM   31  C   UNL     1       0.868  -3.761  -0.704  1.00  0.00     0.213 C 
ENDBRANCH  28  30
ENDBRANCH  10  28
TORSDOF 6
