REMARK  7 active torsions:
REMARK  status: ('A' for Active; 'I' for Inactive)
REMARK    1  A    between atoms: O_2  and  C_3 
REMARK    2  A    between atoms: C_4  and  C_5 
REMARK    3  A    between atoms: C_6  and  C_7 
REMARK       I    between atoms: C_7  and  N_8 
REMARK    4  A    between atoms: N_8  and  C_9 
REMARK    5  A    between atoms: C_9  and  C_10 
REMARK    6  A    between atoms: C_10  and  N_11 
REMARK    7  A    between atoms: C_10  and  C_18 
ROOT
HETATM    1  C   UNL     1       4.217   6.151  -0.992  1.00  0.00     0.241 C 
HETATM    2  N   UNL     1       3.569   4.958  -1.147  1.00  0.00    -0.355 N 
HETATM    3  O   UNL     1       5.437   6.259  -1.031  1.00  0.00    -0.269 OA
HETATM    4  H   UNL     1       2.556   4.965  -1.032  1.00  0.00     0.162 HD
ENDROOT
BRANCH   2   5
HETATM    5  C   UNL     1       4.247   3.667  -1.206  1.00  0.00     0.163 C 
BRANCH   5   6
HETATM    6  C   UNL     1       5.187   3.463  -2.437  1.00  0.00     0.262 C 
BRANCH   6   7
HETATM    7  N   UNL     1       6.483   4.274  -2.313  1.00  0.00    -0.059 N 
HETATM    8  H   UNL     1       6.179   5.185  -1.914  1.00  0.00     0.280 HD
HETATM    9  C   UNL     1       7.489   3.741  -1.323  1.00  0.00     0.236 C 
HETATM   10  C   UNL     1       8.597   4.768  -1.127  1.00  0.00     0.028 C 
HETATM   11  C   UNL     1       9.258   5.137  -2.451  1.00  0.00     0.003 C 
HETATM   12  C   UNL     1       8.224   5.595  -3.474  1.00  0.00     0.028 C 
HETATM   13  C   UNL     1       7.106   4.576  -3.648  1.00  0.00     0.236 C 
ENDBRANCH   6   7
BRANCH   6  14
HETATM   14  C   UNL     1       5.414   2.009  -2.706  1.00  0.00     0.085 A 
HETATM   15  O   UNL     1       5.863   1.253  -1.661  1.00  0.00    -0.325 OA
HETATM   16  C   UNL     1       5.996  -0.019  -2.115  1.00  0.00     0.142 A 
HETATM   17  C   UNL     1       5.639  -0.094  -3.440  1.00  0.00     0.027 A 
HETATM   18  C   UNL     1       5.260   1.216  -3.825  1.00  0.00     0.037 A 
ENDBRANCH   6  14
ENDBRANCH   5   6
ENDBRANCH   2   5
BRANCH   1  19
HETATM   19  C   UNL     1       3.336   7.307  -0.748  1.00  0.00     0.075 C 
HETATM   20  C   UNL     1       2.389   7.714  -1.607  1.00  0.00     0.020 C 
BRANCH  20  21
HETATM   21  C   UNL     1       2.131   7.114  -2.924  1.00  0.00    -0.001 A 
HETATM   22  C   UNL     1       1.064   6.218  -3.131  1.00  0.00     0.078 A 
HETATM   23  C   UNL     1       0.859   5.677  -4.405  1.00  0.00     0.039 A 
HETATM   24  C   UNL     1       1.708   6.020  -5.463  1.00  0.00     0.022 A 
HETATM   25  C   UNL     1       2.766   6.899  -5.247  1.00  0.00     0.012 A 
HETATM   26  C   UNL     1       2.979   7.451  -3.987  1.00  0.00     0.033 A 
HETATM   27 BR   UNL     1       3.938   7.327  -6.666  1.00  0.00    -0.051 Br
BRANCH  22  28
HETATM   28  O   UNL     1       0.323   5.884  -2.026  1.00  0.00    -0.355 OA
HETATM   29  C   UNL     1      -0.985   5.373  -2.270  1.00  0.00     0.210 C 
ENDBRANCH  22  28
ENDBRANCH  20  21
ENDBRANCH   1  19
TORSDOF 7
