REMARK  2 active torsions:
REMARK  status: ('A' for Active; 'I' for Inactive)
REMARK    1  A    between atoms: C_3  and  N_4 
REMARK       I    between atoms: N_4  and  C_5 
REMARK       I    between atoms: C_5  and  N_6 
REMARK    2  A    between atoms: N_6  and  C_7 
ROOT
HETATM    1  N   UNL     1       3.160   5.205   0.315  1.00  0.00    -0.307 N 
HETATM    2  C   UNL     1       4.182   4.372   0.703  1.00  0.00     0.321 C 
HETATM    3  N   UNL     1       4.403   3.403  -0.261  1.00  0.00    -0.338 N 
HETATM    4  O   UNL     1       4.809   4.392   1.754  1.00  0.00    -0.247 OA
HETATM    5  H   UNL     1       2.478   4.743  -0.271  1.00  0.00     0.170 HD
HETATM    6  H   UNL     1       4.159   3.678  -1.205  1.00  0.00     0.164 HD
ENDROOT
BRANCH   3   7
HETATM    7  C   UNL     1       5.389   2.335  -0.099  1.00  0.00     0.090 C 
HETATM    8  C   UNL     1       6.824   2.887  -0.055  1.00  0.00     0.058 C 
HETATM    9  C   UNL     1       7.876   1.912   0.477  1.00  0.00     0.190 C 
HETATM   10  N   UNL     1       7.366   1.356   1.784  1.00  0.00    -0.066 N 
HETATM   11  C   UNL     1       8.240   0.771  -0.481  1.00  0.00     0.033 C 
HETATM   12  H   UNL     1       7.047   2.171   2.337  1.00  0.00     0.280 HD
HETATM   13  C   UNL     1       8.425   0.727   2.650  1.00  0.00     0.270 C 
HETATM   14  C   UNL     1       6.144   0.498   1.568  1.00  0.00     0.190 C 
HETATM   15  C   UNL     1       5.019   1.408   1.073  1.00  0.00     0.058 C 
HETATM   16  C   UNL     1       6.474  -0.674   0.638  1.00  0.00     0.033 C 
HETATM   17  C   UNL     1       7.155  -0.283  -0.668  1.00  0.00     0.004 C 
ENDBRANCH   3   7
BRANCH   1  18
HETATM   18  C   UNL     1       2.683   6.346   1.005  1.00  0.00     0.059 A 
HETATM   19  C   UNL     1       3.455   7.263   1.730  1.00  0.00    -0.032 A 
HETATM   20  C   UNL     1       4.951   7.227   1.843  1.00  0.00     0.050 C 
HETATM   21  C   UNL     1       2.792   8.323   2.378  1.00  0.00     0.028 A 
HETATM   22  C   UNL     1       1.421   8.466   2.237  1.00  0.00     0.117 A 
HETATM   23  N   UNL     1       0.663   7.636   1.499  1.00  0.00    -0.271 NA
HETATM   24  C   UNL     1       1.310   6.609   0.903  1.00  0.00     0.146 A 
ENDBRANCH   1  18
TORSDOF 2
