REMARK  5 active torsions:
REMARK  status: ('A' for Active; 'I' for Inactive)
REMARK    1  A    between atoms: C_2  and  C_3 
REMARK    2  A    between atoms: C_2  and  C_9 
REMARK    3  A    between atoms: C_9  and  C_10 
REMARK       I    between atoms: C_10  and  N_11 
REMARK    4  A    between atoms: N_11  and  C_12 
REMARK    5  A    between atoms: C_19  and  C_20 
REMARK       I    between atoms: C_20  and  N_21 
ROOT
HETATM    1  C   UNL     1       6.802  -0.381   0.542  1.00  0.00     0.035 A 
HETATM    2  C   UNL     1       7.757   0.644   0.577  1.00  0.00     0.046 A 
HETATM    3  C   UNL     1       9.131   0.320   0.515  1.00  0.00     0.030 A 
HETATM    4  C   UNL     1       9.502  -1.015   0.421  1.00  0.00     0.063 A 
HETATM    5  N   UNL     1      10.868  -1.010   0.383  1.00  0.00    -0.277 N 
HETATM    6  H   UNL     1      11.483  -1.813   0.318  1.00  0.00     0.189 HD
HETATM    7  N   UNL     1      11.423   0.211   0.442  1.00  0.00    -0.168 NA
HETATM    8  C   UNL     1      10.361   1.046   0.522  1.00  0.00     0.156 A 
HETATM    9  C   UNL     1       8.579  -2.061   0.380  1.00  0.00     0.034 A 
HETATM   10  C   UNL     1       7.223  -1.714   0.441  1.00  0.00     0.032 A 
ENDROOT
BRANCH   1  11
HETATM   11  N   UNL     1       5.408  -0.159   0.599  1.00  0.00    -0.327 N 
HETATM   12  C   UNL     1       4.749   1.053   0.739  1.00  0.00     0.222 C 
HETATM   13  O   UNL     1       5.272   2.154   0.862  1.00  0.00    -0.273 OA
HETATM   14  H   UNL     1       4.825  -0.985   0.553  1.00  0.00     0.169 HD
BRANCH  12  15
HETATM   15  C   UNL     1       3.239   0.866   0.751  1.00  0.00     0.112 C 
BRANCH  15  16
HETATM   16  C   UNL     1       2.463   2.194   0.795  1.00  0.00     0.023 C 
HETATM   17  C   UNL     1       2.510   2.929  -0.551  1.00  0.00     0.015 C 
BRANCH  16  18
HETATM   18  C   UNL     1       1.025   1.951   1.233  1.00  0.00    -0.054 A 
HETATM   19  C   UNL     1       0.119   1.231   0.439  1.00  0.00     0.007 A 
HETATM   20  C   UNL     1      -1.193   1.020   0.869  1.00  0.00     0.001 A 
HETATM   21  C   UNL     1      -1.615   1.521   2.098  1.00  0.00     0.000 A 
HETATM   22  C   UNL     1      -0.726   2.233   2.899  1.00  0.00     0.001 A 
HETATM   23  C   UNL     1       0.586   2.446   2.471  1.00  0.00     0.007 A 
ENDBRANCH  16  18
ENDBRANCH  15  16
ENDBRANCH  12  15
ENDBRANCH   1  11
BRANCH   8  24
HETATM   24  C   UNL     1      10.543   2.502   0.603  1.00  0.00     0.270 C 
HETATM   25  N   UNL     1      11.852   2.902   0.597  1.00  0.00    -0.365 N 
HETATM   26  H   UNL     1      12.575   2.195   0.538  1.00  0.00     0.159 HD
HETATM   27  H   UNL     1      12.073   3.884   0.647  1.00  0.00     0.159 HD
HETATM   28  O   UNL     1       9.632   3.320   0.669  1.00  0.00    -0.266 OA
ENDBRANCH   8  24
TORSDOF 5
