REMARK  6 active torsions:
REMARK  status: ('A' for Active; 'I' for Inactive)
REMARK    1  A    between atoms: C_3  and  C_4 
REMARK       I    between atoms: C_4  and  N_5 
REMARK    2  A    between atoms: N_5  and  C_6 
REMARK    3  A    between atoms: C_6  and  C_7 
REMARK    4  A    between atoms: C_7  and  C_8 
REMARK    5  A    between atoms: C_19  and  O_20 
REMARK    6  A    between atoms: C_29  and  O_30 
ROOT
HETATM    1  C   UNL     1       0.484   6.336  -0.675  1.00  0.00     0.158 A 
HETATM    2  N   UNL     1       0.886   7.442  -1.314  1.00  0.00    -0.111 NA
HETATM    3  O   UNL     1      -0.004   8.415  -0.860  1.00  0.00    -0.189 OA
HETATM    4  C   UNL     1      -0.852   7.799   0.022  1.00  0.00     0.223 A 
HETATM    5  C   UNL     1      -1.913   8.461   0.705  1.00  0.00     0.089 A 
HETATM    6  N   UNL     1      -2.747   7.796   1.567  1.00  0.00    -0.352 N 
HETATM    7  H   UNL     1      -2.677   6.809   1.780  1.00  0.00     0.166 HD
HETATM    8  C   UNL     1      -3.683   8.657   2.091  1.00  0.00     0.045 A 
HETATM    9  C   UNL     1      -3.436   9.913   1.540  1.00  0.00    -0.007 A 
HETATM   10  C   UNL     1      -2.320   9.779   0.669  1.00  0.00     0.048 A 
HETATM   11  C   UNL     1      -4.721   8.424   3.000  1.00  0.00     0.067 A 
HETATM   12  C   UNL     1      -5.539   9.502   3.364  1.00  0.00     0.070 A 
HETATM   13  C   UNL     1      -5.312  10.769   2.824  1.00  0.00     0.038 A 
HETATM   14  C   UNL     1      -4.266  10.987   1.914  1.00  0.00     0.016 A 
HETATM   15  N   UNL     1      -0.577   6.519   0.177  1.00  0.00    -0.203 NA
ENDROOT
BRANCH   1  16
HETATM   16  C   UNL     1       1.178   5.036  -0.852  1.00  0.00     0.103 C 
BRANCH  16  17
HETATM   17  C   UNL     1       0.394   3.853  -0.281  1.00  0.00     0.133 C 
BRANCH  17  18
HETATM   18  N   UNL     1       1.106   2.581  -0.437  1.00  0.00    -0.352 N 
HETATM   19  C   UNL     1       0.944   1.882  -1.633  1.00  0.00     0.254 C 
HETATM   20  O   UNL     1       0.328   2.332  -2.596  1.00  0.00    -0.267 OA
HETATM   21  C   UNL     1       2.018   2.198   0.634  1.00  0.00     0.152 C 
BRANCH  19  22
HETATM   22  C   UNL     1       1.528   0.524  -1.747  1.00  0.00     0.038 A 
HETATM   23  C   UNL     1       2.507   0.232  -2.712  1.00  0.00    -0.044 A 
HETATM   24  C   UNL     1       2.993   1.273  -3.683  1.00  0.00     0.049 C 
HETATM   25  C   UNL     1       3.018  -1.078  -2.781  1.00  0.00     0.044 A 
HETATM   26  C   UNL     1       2.567  -2.071  -1.906  1.00  0.00     0.068 A 
HETATM   27  C   UNL     1       1.576  -1.765  -0.971  1.00  0.00     0.038 A 
HETATM   28  C   UNL     1       1.050  -0.476  -0.892  1.00  0.00     0.020 A 
BRANCH  26  29
HETATM   29  O   UNL     1       3.000  -3.368  -1.870  1.00  0.00    -0.356 OA
HETATM   30  C   UNL     1       4.071  -3.715  -2.737  1.00  0.00     0.210 C 
ENDBRANCH  26  29
ENDBRANCH  19  22
ENDBRANCH  17  18
ENDBRANCH  16  17
ENDBRANCH   1  16
BRANCH  12  31
HETATM   31  O   UNL     1      -6.526   9.179   4.257  1.00  0.00    -0.356 OA
HETATM   32  C   UNL     1      -7.396  10.227   4.665  1.00  0.00     0.210 C 
ENDBRANCH  12  31
TORSDOF 6
