REMARK  5 active torsions:
REMARK  status: ('A' for Active; 'I' for Inactive)
REMARK    1  A    between atoms: C_8  and  C_9 
REMARK    2  A    between atoms: C_9  and  N_10 
REMARK       I    between atoms: N_10  and  C_11 
REMARK       I    between atoms: C_11  and  N_12 
REMARK    3  A    between atoms: C_13  and  C_14 
REMARK    4  A    between atoms: C_14  and  C_15 
REMARK    5  A    between atoms: C_15  and  C_16 
ROOT
HETATM    1  N   UNL     1      -0.043  -3.708   0.771  1.00  0.00    -0.339 N 
HETATM    2  C   UNL     1       0.708  -4.230  -0.243  1.00  0.00     0.318 C 
HETATM    3  N   UNL     1       1.704  -5.094   0.224  1.00  0.00    -0.330 N 
HETATM    4  C   UNL     1       1.382  -6.379   0.913  1.00  0.00     0.089 C 
HETATM    5  C   UNL     1       1.233  -7.501  -0.140  1.00  0.00     0.025 C 
HETATM    6  C   UNL     1       2.459  -7.593  -1.051  1.00  0.00     0.004 C 
HETATM    7  C   UNL     1       2.771  -6.246  -1.691  1.00  0.00     0.020 C 
HETATM    8  C   UNL     1       2.894  -5.166  -0.621  1.00  0.00     0.128 C 
HETATM    9  O   UNL     1       0.590  -3.885  -1.413  1.00  0.00    -0.247 OA
HETATM   10  H   UNL     1       0.435  -3.686   1.659  1.00  0.00     0.164 HD
ENDROOT
BRANCH   4  11
HETATM   11  C   UNL     1       0.170  -6.341   1.868  1.00  0.00     0.030 C 
BRANCH  11  12
HETATM   12  C   UNL     1      -0.039  -7.612   2.699  1.00  0.00     0.040 C 
BRANCH  12  13
HETATM   13  C   UNL     1      -1.277  -7.484   3.557  1.00  0.00    -0.058 A 
HETATM   14  C   UNL     1      -2.519  -7.920   3.072  1.00  0.00     0.007 A 
HETATM   15  C   UNL     1      -3.673  -7.763   3.840  1.00  0.00     0.001 A 
HETATM   16  C   UNL     1      -3.599  -7.163   5.095  1.00  0.00     0.000 A 
HETATM   17  C   UNL     1      -2.371  -6.720   5.584  1.00  0.00     0.001 A 
HETATM   18  C   UNL     1      -1.214  -6.879   4.819  1.00  0.00     0.007 A 
ENDBRANCH  12  13
ENDBRANCH  11  12
ENDBRANCH   4  11
BRANCH   1  19
HETATM   19  C   UNL     1      -1.061  -2.709   0.555  1.00  0.00     0.167 C 
BRANCH  19  20
HETATM   20  C   UNL     1      -0.938  -1.701   1.644  1.00  0.00     0.009 A 
HETATM   21  C   UNL     1      -0.239  -0.506   1.618  1.00  0.00     0.034 A 
HETATM   22  C   UNL     1       0.562   0.137   0.551  1.00  0.00     0.070 C 
HETATM   23  N   UNL     1      -0.403   0.052   2.853  1.00  0.00    -0.282 N 
HETATM   24  H   UNL     1      -0.033   0.931   3.197  1.00  0.00     0.189 HD
HETATM   25  N   UNL     1      -1.138  -0.695   3.688  1.00  0.00    -0.179 NA
HETATM   26  C   UNL     1      -1.472  -1.768   2.962  1.00  0.00     0.060 A 
HETATM   27  C   UNL     1      -2.286  -2.854   3.564  1.00  0.00     0.073 C 
ENDBRANCH  19  20
ENDBRANCH   1  19
TORSDOF 5
