REMARK  4 active torsions:
REMARK  status: ('A' for Active; 'I' for Inactive)
REMARK    1  A    between atoms: C_9  and  C_10 
REMARK       I    between atoms: C_10  and  N_11 
REMARK    2  A    between atoms: N_11  and  C_12 
REMARK    3  A    between atoms: C_12  and  C_13 
REMARK    4  A    between atoms: C_14  and  O_15 
ROOT
HETATM    1  C   UNL     1       5.501   3.533   0.185  1.00  0.00     0.273 C 
HETATM    2  N   UNL     1       6.544   4.430   0.171  1.00  0.00    -0.347 N 
HETATM    3  O   UNL     1       5.613   2.332  -0.034  1.00  0.00    -0.266 OA
HETATM    4  H   UNL     1       6.290   5.366   0.474  1.00  0.00     0.163 HD
ENDROOT
BRANCH   1   5
HETATM    5  C   UNL     1       4.212   4.163   0.522  1.00  0.00     0.157 A 
HETATM    6  C   UNL     1       2.937   3.527   0.611  1.00  0.00     0.029 A 
HETATM    7  C   UNL     1       2.439   2.221   0.430  1.00  0.00     0.023 A 
HETATM    8  C   UNL     1       2.054   4.537   0.970  1.00  0.00     0.063 A 
HETATM    9  C   UNL     1       1.070   1.970   0.617  1.00  0.00    -0.061 A 
HETATM   10  C   UNL     1       0.518   0.587   0.426  1.00  0.00     0.048 C 
HETATM   11  C   UNL     1       0.213   3.017   0.980  1.00  0.00     0.009 A 
HETATM   12  C   UNL     1       0.687   4.322   1.164  1.00  0.00     0.032 A 
HETATM   13  N   UNL     1       2.818   5.666   1.068  1.00  0.00    -0.277 N 
HETATM   14  H   UNL     1       2.504   6.599   1.312  1.00  0.00     0.189 HD
HETATM   15  N   UNL     1       4.124   5.482   0.808  1.00  0.00    -0.168 NA
ENDBRANCH   1   5
BRANCH   2  16
HETATM   16  C   UNL     1       7.960   4.129   0.002  1.00  0.00     0.116 C 
HETATM   17  C   UNL     1       8.256   3.049  -1.040  1.00  0.00     0.037 C 
BRANCH  16  18
HETATM   18  C   UNL     1       8.685   3.856   1.315  1.00  0.00    -0.003 A 
HETATM   19  C   UNL     1      10.027   4.265   1.489  1.00  0.00     0.076 A 
HETATM   20  C   UNL     1      10.689   3.998   2.694  1.00  0.00     0.037 A 
HETATM   21  C   UNL     1      10.040   3.315   3.724  1.00  0.00     0.003 A 
HETATM   22  C   UNL     1       8.729   2.887   3.555  1.00  0.00     0.001 A 
HETATM   23  C   UNL     1       8.061   3.149   2.359  1.00  0.00     0.012 A 
BRANCH  19  24
HETATM   24  O   UNL     1      10.599   4.917   0.426  1.00  0.00    -0.355 OA
HETATM   25  C   UNL     1      11.988   5.214   0.507  1.00  0.00     0.210 C 
ENDBRANCH  19  24
ENDBRANCH  16  18
ENDBRANCH   2  16
TORSDOF 4
