REMARK  7 active torsions:
REMARK  status: ('A' for Active; 'I' for Inactive)
REMARK    1  A    between atoms: O_2  and  C_3 
REMARK    2  A    between atoms: C_5  and  N_6 
REMARK    3  A    between atoms: C_7  and  O_8 
REMARK    4  A    between atoms: C_7  and  C_9 
REMARK       I    between atoms: C_9  and  N_10 
REMARK    5  A    between atoms: N_10  and  C_11 
REMARK    6  A    between atoms: C_11  and  C_12 
REMARK    7  A    between atoms: C_12  and  C_13 
ROOT
HETATM    1  N   UNL     1       2.358   4.880  -0.656  1.00  0.00    -0.254 N 
HETATM    2  C   UNL     1       0.976   4.975  -1.150  1.00  0.00     0.256 C 
HETATM    3  C   UNL     1       0.650   6.331  -1.747  1.00  0.00     0.034 A 
HETATM    4  C   UNL     1       1.379   7.432  -1.315  1.00  0.00     0.048 A 
HETATM    5  N   UNL     1       2.438   7.223  -0.442  1.00  0.00    -0.308 N 
HETATM    6  C   UNL     1       2.986   6.008  -0.145  1.00  0.00     0.330 C 
HETATM    7  O   UNL     1       4.000   6.009   0.553  1.00  0.00    -0.246 OA
HETATM    8  C   UNL     1      -0.421   6.541  -2.632  1.00  0.00     0.015 A 
HETATM    9  C   UNL     1      -0.737   7.829  -3.068  1.00  0.00     0.001 A 
HETATM   10  C   UNL     1       0.001   8.920  -2.614  1.00  0.00     0.002 A 
HETATM   11  C   UNL     1       1.061   8.724  -1.730  1.00  0.00     0.030 A 
HETATM   12  H   UNL     1       2.986   8.011  -0.118  1.00  0.00     0.170 HD
ENDROOT
BRANCH   2  13
HETATM   13  O   UNL     1       0.807   4.040  -2.221  1.00  0.00    -0.359 OA
HETATM   14  H   UNL     1       0.306   3.296  -1.838  1.00  0.00     0.213 HD
ENDBRANCH   2  13
BRANCH   2  15
HETATM   15  C   UNL     1      -0.056   4.676   0.015  1.00  0.00     0.279 C 
HETATM   16  N   UNL     1      -0.055   5.531   1.101  1.00  0.00    -0.356 N 
HETATM   17  H   UNL     1       0.416   6.425   0.999  1.00  0.00     0.162 HD
HETATM   18  O   UNL     1      -0.831   3.716  -0.063  1.00  0.00    -0.268 OA
BRANCH  16  19
HETATM   19  C   UNL     1      -1.068   5.407   2.131  1.00  0.00     0.127 C 
BRANCH  19  20
HETATM   20  C   UNL     1      -0.936   6.463   3.232  1.00  0.00     0.058 C 
BRANCH  20  21
HETATM   21  C   UNL     1      -1.163   7.879   2.749  1.00  0.00    -0.057 A 
HETATM   22  C   UNL     1      -2.386   8.255   2.173  1.00  0.00     0.009 A 
HETATM   23  C   UNL     1      -2.594   9.566   1.739  1.00  0.00     0.024 A 
HETATM   24  C   UNL     1      -1.585  10.513   1.888  1.00  0.00     0.034 A 
HETATM   25 CL   UNL     1      -1.842  12.129   1.359  1.00  0.00    -0.084 Cl
HETATM   26  C   UNL     1      -0.370  10.160   2.470  1.00  0.00     0.024 A 
HETATM   27  C   UNL     1      -0.159   8.847   2.900  1.00  0.00     0.009 A 
ENDBRANCH  20  21
ENDBRANCH  19  20
ENDBRANCH  16  19
ENDBRANCH   2  15
BRANCH   1  28
HETATM   28  C   UNL     1       3.019   3.604  -0.553  1.00  0.00     0.045 A 
HETATM   29  C   UNL     1       2.340   2.420  -0.217  1.00  0.00     0.066 A 
HETATM   30  C   UNL     1       3.011   1.193  -0.152  1.00  0.00     0.070 A 
HETATM   31  C   UNL     1       4.369   1.133  -0.463  1.00  0.00     0.037 A 
HETATM   32  C   UNL     1       5.062   2.292  -0.795  1.00  0.00     0.005 A 
HETATM   33  C   UNL     1       4.393   3.517  -0.828  1.00  0.00     0.030 A 
BRANCH  30  34
HETATM   34  O   UNL     1       2.450  -0.009   0.189  1.00  0.00    -0.356 OA
HETATM   35  C   UNL     1       1.167   0.035   0.803  1.00  0.00     0.210 C 
ENDBRANCH  30  34
ENDBRANCH   1  28
TORSDOF 7
