REMARK  8 active torsions:
REMARK  status: ('A' for Active; 'I' for Inactive)
REMARK    1  A    between atoms: N_5  and  C_7 
REMARK    2  A    between atoms: C_7  and  C_8 
REMARK    3  A    between atoms: N_9  and  C_10 
REMARK    4  A    between atoms: C_14  and  N_15 
REMARK    5  A    between atoms: C_18  and  C_19 
REMARK       I    between atoms: C_19  and  N_20 
REMARK    6  A    between atoms: N_20  and  N_21 
REMARK    7  A    between atoms: C_22  and  C_23 
REMARK    8  A    between atoms: C_24  and  O_25 
ROOT
HETATM    1  C   UNL     1       2.041   1.453   5.100  1.00  0.00     0.096 A 
HETATM    2  N   UNL     1       1.824   2.824   4.951  1.00  0.00    -0.215 N 
HETATM    3  N   UNL     1       2.323   3.458   6.049  1.00  0.00     0.012 NA
HETATM    4  N   UNL     1       2.744   2.561   6.924  1.00  0.00    -0.152 NA
HETATM    5  C   UNL     1       2.567   1.327   6.378  1.00  0.00     0.170 A 
ENDROOT
BRANCH   5   6
HETATM    6  C   UNL     1       2.889   0.083   7.063  1.00  0.00     0.293 C 
HETATM    7  N   UNL     1       3.578   0.260   8.247  1.00  0.00    -0.242 N 
HETATM    8  H   UNL     1       3.807   1.201   8.563  1.00  0.00     0.192 HD
HETATM    9  O   UNL     1       2.529  -0.992   6.583  1.00  0.00    -0.264 OA
BRANCH   7  10
HETATM   10  N   UNL     1       3.981  -0.821   8.970  1.00  0.00    -0.183 NA
HETATM   11  C   UNL     1       4.618  -0.551  10.068  1.00  0.00     0.153 C 
BRANCH  11  12
HETATM   12  C   UNL     1       5.133  -1.626  10.941  1.00  0.00     0.017 A 
HETATM   13  C   UNL     1       5.002  -2.982  10.613  1.00  0.00     0.077 A 
HETATM   14  C   UNL     1       5.512  -3.962  11.461  1.00  0.00     0.039 A 
HETATM   15  C   UNL     1       6.154  -3.594  12.644  1.00  0.00     0.022 A 
HETATM   16  C   UNL     1       6.281  -2.244  12.971  1.00  0.00     0.012 A 
HETATM   17 BR   UNL     1       7.149  -1.748  14.576  1.00  0.00    -0.051 Br
HETATM   18  C   UNL     1       5.776  -1.255  12.127  1.00  0.00     0.034 A 
BRANCH  13  19
HETATM   19  O   UNL     1       4.388  -3.421   9.472  1.00  0.00    -0.360 OA
HETATM   20  H   UNL     1       4.071  -2.634   8.979  1.00  0.00     0.217 HD
ENDBRANCH  13  19
ENDBRANCH  11  12
ENDBRANCH   7  10
ENDBRANCH   5   6
BRANCH   1  21
HETATM   21  C   UNL     1       1.822   0.407   4.073  1.00  0.00     0.296 C 
BRANCH  21  22
HETATM   22  N   UNL     1       0.850  -0.677   4.483  1.00  0.00    -0.066 N 
HETATM   23  C   UNL     1      -0.543  -0.163   4.735  1.00  0.00     0.235 C 
HETATM   24  C   UNL     1      -1.436  -1.293   5.227  1.00  0.00     0.032 C 
HETATM   25  C   UNL     1      -1.458  -2.496   4.278  1.00  0.00    -0.016 C 
HETATM   26  C   UNL     1      -2.241  -2.194   2.997  1.00  0.00     0.010 C 
HETATM   27  C   UNL     1      -0.025  -2.950   3.980  1.00  0.00     0.032 C 
HETATM   28  C   UNL     1       0.872  -1.820   3.494  1.00  0.00     0.235 C 
HETATM   29  H   UNL     1       1.230  -1.068   5.370  1.00  0.00     0.280 HD
ENDBRANCH  21  22
ENDBRANCH   1  21
BRANCH   2  30
HETATM   30  C   UNL     1       1.160   3.528   3.919  1.00  0.00     0.225 A 
HETATM   31  N   UNL     1       0.544   2.863   2.940  1.00  0.00    -0.081 NA
HETATM   32  O   UNL     1      -0.008   3.872   2.146  1.00  0.00    -0.103 OA
HETATM   33  N   UNL     1       0.264   5.127   2.672  1.00  0.00    -0.083 NA
HETATM   34  C   UNL     1       0.984   4.915   3.771  1.00  0.00     0.201 A 
BRANCH  34  35
HETATM   35  N   UNL     1       1.448   5.885   4.575  1.00  0.00    -0.379 N 
HETATM   36  H   UNL     1       1.182   6.853   4.412  1.00  0.00     0.158 HD
HETATM   37  H   UNL     1       1.896   5.712   5.472  1.00  0.00     0.158 HD
ENDBRANCH  34  35
ENDBRANCH   2  30
TORSDOF 8
