REMARK  9 active torsions:
REMARK  status: ('A' for Active; 'I' for Inactive)
REMARK    1  A    between atoms: C_2  and  O_3 
REMARK    2  A    between atoms: O_3  and  C_4 
REMARK    3  A    between atoms: C_4  and  C_5 
REMARK    4  A    between atoms: C_8  and  N_9 
REMARK       I    between atoms: N_9  and  C_10 
REMARK    5  A    between atoms: C_10  and  C_11 
REMARK    6  A    between atoms: C_11  and  C_12 
REMARK    7  A    between atoms: N_13  and  C_14 
REMARK    8  A    between atoms: C_14  and  C_15 
REMARK    9  A    between atoms: N_23  and  C_24 
ROOT
HETATM    1  C   UNL     1       7.283   0.459  -1.579  1.00  0.00     0.191 C 
HETATM    2  N   UNL     1       8.055  -0.769  -1.546  1.00  0.00    -0.315 N 
HETATM    3  C   UNL     1       7.887  -1.417  -0.321  1.00  0.00     0.333 C 
HETATM    4  O   UNL     1       8.128  -2.605  -0.172  1.00  0.00    -0.246 OA
HETATM    5  N   UNL     1       7.438  -0.485   0.596  1.00  0.00    -0.232 N 
HETATM    6  C   UNL     1       7.194   0.701  -0.070  1.00  0.00     0.256 C 
HETATM    7  O   UNL     1       6.894   1.797   0.386  1.00  0.00    -0.270 OA
ENDROOT
BRANCH   1   8
HETATM    8  C   UNL     1       5.893   0.220  -2.165  1.00  0.00     0.138 C 
BRANCH   8   9
HETATM    9  C   UNL     1       5.181   1.512  -2.505  1.00  0.00     0.224 C 
HETATM   10  N   UNL     1       5.202   1.815  -3.856  1.00  0.00    -0.327 N 
HETATM   11  H   UNL     1       5.756   1.225  -4.463  1.00  0.00     0.169 HD
HETATM   12  O   UNL     1       4.631   2.163  -1.625  1.00  0.00    -0.273 OA
BRANCH  10  13
HETATM   13  C   UNL     1       4.467   2.831  -4.511  1.00  0.00     0.034 A 
HETATM   14  C   UNL     1       3.575   3.691  -3.868  1.00  0.00     0.030 A 
HETATM   15  C   UNL     1       2.845   4.644  -4.594  1.00  0.00     0.020 A 
HETATM   16  C   UNL     1       3.003   4.751  -5.980  1.00  0.00     0.039 A 
HETATM   17  C   UNL     1       3.904   3.898  -6.627  1.00  0.00     0.020 A 
HETATM   18  C   UNL     1       4.627   2.945  -5.899  1.00  0.00     0.030 A 
BRANCH  16  19
HETATM   19  C   UNL     1       2.255   5.744  -6.799  1.00  0.00     0.293 C 
HETATM   20  O   UNL     1       2.485   5.945  -7.981  1.00  0.00    -0.259 OA
BRANCH  19  21
HETATM   21  O   UNL     1       1.301   6.356  -6.055  1.00  0.00    -0.318 OA
BRANCH  21  22
HETATM   22  C   UNL     1       0.528   7.359  -6.731  1.00  0.00     0.174 C 
HETATM   23  C   UNL     1      -0.625   6.728  -7.490  1.00  0.00     0.034 C 
ENDBRANCH  21  22
ENDBRANCH  19  21
ENDBRANCH  16  19
ENDBRANCH  10  13
ENDBRANCH   8   9
ENDBRANCH   1   8
BRANCH   2  24
HETATM   24  C   UNL     1       8.480  -1.459  -2.754  1.00  0.00     0.168 C 
BRANCH  24  25
HETATM   25  C   UNL     1       9.861  -2.062  -2.707  1.00  0.00    -0.023 A 
HETATM   26  C   UNL     1      10.209  -3.029  -3.649  1.00  0.00     0.125 A 
HETATM   27  N   UNL     1      11.414  -3.641  -3.715  1.00  0.00    -0.273 NA
HETATM   28  C   UNL     1      12.325  -3.284  -2.786  1.00  0.00     0.116 A 
HETATM   29  C   UNL     1      12.094  -2.324  -1.817  1.00  0.00     0.020 A 
HETATM   30  C   UNL     1      10.851  -1.694  -1.790  1.00  0.00     0.012 A 
ENDBRANCH  24  25
ENDBRANCH   2  24
BRANCH   5  31
HETATM   31  C   UNL     1       7.322  -0.700   2.007  1.00  0.00     0.047 A 
HETATM   32  C   UNL     1       7.545  -1.964   2.585  1.00  0.00     0.037 A 
HETATM   33  C   UNL     1       7.463  -2.183   3.973  1.00  0.00    -0.060 A 
HETATM   34  C   UNL     1       7.677  -3.555   4.543  1.00  0.00     0.048 C 
HETATM   35  C   UNL     1       7.134  -1.121   4.812  1.00  0.00     0.007 A 
HETATM   36  C   UNL     1       6.902   0.138   4.271  1.00  0.00     0.003 A 
HETATM   37  C   UNL     1       6.992   0.343   2.889  1.00  0.00     0.030 A 
ENDBRANCH   5  31
TORSDOF 9
