REMARK  6 active torsions:
REMARK  status: ('A' for Active; 'I' for Inactive)
REMARK    1  A    between atoms: CG_8  and  CB_9 
REMARK    2  A    between atoms: CB_9  and  CA_10 
REMARK    3  A    between atoms: CA_10  and  N_11 
REMARK    4  A    between atoms: CA_10  and  C_12 
REMARK       I    between atoms: N_11  and  C_18 
REMARK    5  A    between atoms: C_12  and  O_13 
REMARK       I    between atoms: C_18  and  N_19 
REMARK    6  A    between atoms: N_19  and  C_20 
ROOT
ATOM      1  CA  TRP A   1      -1.431  -3.088   0.241  1.00  0.00     0.114 C 
ENDROOT
BRANCH   1   2
ATOM      2  CB  TRP A   1      -2.354  -1.873   0.481  1.00  0.00     0.068 C 
BRANCH   2   3
ATOM      3  CG  TRP A   1      -1.624  -0.561   0.400  1.00  0.00    -0.028 A 
ATOM      4  CD2 TRP A   1      -1.498   0.274  -0.757  1.00  0.00    -0.002 A 
ATOM      5  CE3 TRP A   1      -1.953   0.180  -2.088  1.00  0.00     0.014 A 
ATOM      6  CE2 TRP A   1      -0.762   1.399  -0.383  1.00  0.00     0.042 A 
ATOM      7  CZ3 TRP A   1      -1.664   1.210  -2.990  1.00  0.00     0.001 A 
ATOM      8  CH2 TRP A   1      -0.929   2.322  -2.586  1.00  0.00     0.002 A 
ATOM      9  CZ2 TRP A   1      -0.460   2.437  -1.274  1.00  0.00     0.030 A 
ATOM     10  NE1 TRP A   1      -0.451   1.255   0.948  1.00  0.00    -0.365 N 
ATOM     11  HE1 TRP A   1       0.068   1.931   1.490  1.00  0.00     0.165 HD
ATOM     12  CD1 TRP A   1      -0.965   0.082   1.431  1.00  0.00     0.096 A 
ENDBRANCH   2   3
ENDBRANCH   1   2
BRANCH   1  13
ATOM     13  N   TRP A   1      -0.416  -3.243   1.293  1.00  0.00    -0.336 N 
HETATM   14  C   UNK A   0      -0.759  -3.579   2.587  1.00  0.00     0.321 C 
HETATM   15  N   UNK A   0       0.344  -3.531   3.412  1.00  0.00    -0.309 N 
HETATM   16  O   UNK A   0      -1.897  -3.888   2.911  1.00  0.00    -0.247 OA
HETATM   17  H   UNK A   0       1.234  -3.532   2.938  1.00  0.00     0.170 HD
ATOM     18  H   TRP A   1       0.348  -2.586   1.220  1.00  0.00     0.164 HD
BRANCH  15  19
HETATM   19  C   UNK A   0       0.367  -3.672   4.814  1.00  0.00     0.036 A 
HETATM   20  C   UNK A   0      -0.786  -3.688   5.605  1.00  0.00     0.039 A 
HETATM   21  C   UNK A   0      -0.650  -3.809   6.980  1.00  0.00    -0.024 A 
HETATM   22  C   UNK A   0       0.594  -3.916   7.577  1.00  0.00    -0.026 A 
HETATM   23  C   UNK A   0      -1.704  -3.871   8.022  1.00  0.00     0.207 C 
HETATM   24  C   UNK A   0       0.422  -4.058   9.044  1.00  0.00     0.207 C 
HETATM   25  C   UNK A   0       1.750  -3.903   6.820  1.00  0.00     0.012 A 
HETATM   26  O   UNK A   0      -0.982  -3.800   9.276  1.00  0.00    -0.382 OA
HETATM   27  C   UNK A   0       1.630  -3.773   5.431  1.00  0.00     0.030 A 
ENDBRANCH  15  19
ENDBRANCH   1  13
BRANCH   1  28
ATOM     28  C   TRP A   1      -2.257  -4.369   0.016  1.00  0.00     0.189 C 
BRANCH  28  29
ATOM     29  O   TRP A   1      -2.893  -4.327  -1.262  1.00  0.00    -0.399 OA
ATOM     30  H   TRP A   1      -3.415  -5.145  -1.337  1.00  0.00     0.209 HD
ENDBRANCH  28  29
ENDBRANCH   1  28
TORSDOF 6
