REMARK  3 active torsions:
REMARK  status: ('A' for Active; 'I' for Inactive)
REMARK    1  A    between atoms: C_2  and  N_3 
REMARK    2  A    between atoms: C_2  and  C_10 
REMARK    3  A    between atoms: C_13  and  C_14 
ROOT
HETATM    1  C   UNL     1       2.929  -1.370   0.599  1.00  0.00    -0.028 A 
HETATM    2  C   UNL     1       4.213  -1.881   0.350  1.00  0.00     0.010 A 
HETATM    3  C   UNL     1       4.601  -3.132   0.844  1.00  0.00     0.013 A 
HETATM    4  C   UNL     1       3.723  -3.921   1.600  1.00  0.00    -0.024 A 
HETATM    5  C   UNL     1       2.436  -3.414   1.835  1.00  0.00     0.013 A 
HETATM    6  C   UNL     1       2.044  -2.161   1.347  1.00  0.00     0.010 A 
ENDROOT
BRANCH   4   7
HETATM    7  C   UNL     1       4.138  -5.231   2.131  1.00  0.00    -0.006 A 
HETATM    8  C   UNL     1       3.914  -5.577   3.473  1.00  0.00     0.131 A 
HETATM    9  N   UNL     1       4.250  -6.737   4.084  1.00  0.00    -0.239 NA
HETATM   10  C   UNL     1       4.867  -7.627   3.280  1.00  0.00     0.177 A 
HETATM   11  C   UNL     1       5.135  -7.381   1.939  1.00  0.00     0.082 A 
HETATM   12  N   UNL     1       5.308  -8.864   3.655  1.00  0.00    -0.222 NA
HETATM   13  N   UNL     1       5.756  -8.524   1.507  1.00  0.00    -0.348 N 
HETATM   14  C   UNL     1       4.781  -6.181   1.320  1.00  0.00     0.047 A 
HETATM   15  H   UNL     1       6.096  -8.708   0.574  1.00  0.00     0.167 HD
HETATM   16  C   UNL     1       5.838  -9.381   2.570  1.00  0.00     0.210 A 
ENDBRANCH   4   7
BRANCH   1  17
HETATM   17  C   UNL     1       2.554   0.004   0.073  1.00  0.00     0.217 C 
HETATM   18  C   UNL     1       1.100   0.134  -0.400  1.00  0.00     0.045 C 
BRANCH  17  19
HETATM   19  N   UNL     1       2.871   1.162   1.030  1.00  0.00    -0.063 N 
HETATM   20  H   UNL     1       2.433   1.988   0.605  1.00  0.00     0.280 HD
HETATM   21  C   UNL     1       2.281   1.024   2.418  1.00  0.00     0.235 C 
HETATM   22  C   UNL     1       2.470   2.334   3.174  1.00  0.00     0.028 C 
HETATM   23  C   UNL     1       3.937   2.742   3.236  1.00  0.00     0.003 C 
HETATM   24  C   UNL     1       4.560   2.780   1.845  1.00  0.00     0.028 C 
HETATM   25  C   UNL     1       4.352   1.468   1.100  1.00  0.00     0.235 C 
ENDBRANCH  17  19
ENDBRANCH   1  17
TORSDOF 3
