REMARK  4 active torsions:
REMARK  status: ('A' for Active; 'I' for Inactive)
REMARK    1  A    between atoms: C_5  and  N_6 
REMARK       I    between atoms: N_6  and  C_7 
REMARK    2  A    between atoms: C_7  and  C_8 
REMARK    3  A    between atoms: C_12  and  C_13 
REMARK    4  A    between atoms: C_15  and  O_16 
ROOT
HETATM    1  C   UNL     1       4.561   0.787  -4.523  1.00  0.00     0.120 A 
HETATM    2  N   UNL     1       5.260   1.417  -5.513  1.00  0.00    -0.272 N 
HETATM    3  H   UNL     1       6.257   1.344  -5.693  1.00  0.00     0.189 HD
HETATM    4  N   UNL     1       4.509   2.188  -6.314  1.00  0.00    -0.174 NA
HETATM    5  C   UNL     1       3.270   2.102  -5.803  1.00  0.00     0.089 A 
HETATM    6  C   UNL     1       3.262   1.224  -4.682  1.00  0.00     0.071 A 
ENDROOT
BRANCH   1   7
HETATM    7  C   UNL     1       5.204  -0.100  -3.591  1.00  0.00     0.270 C 
HETATM    8  N   UNL     1       4.350  -0.762  -2.738  1.00  0.00    -0.351 N 
HETATM    9  H   UNL     1       3.360  -0.709  -2.926  1.00  0.00     0.163 HD
HETATM   10  O   UNL     1       6.420  -0.258  -3.574  1.00  0.00    -0.266 OA
BRANCH   8  11
HETATM   11  C   UNL     1       4.817  -1.772  -1.795  1.00  0.00     0.084 C 
HETATM   12  C   UNL     1       3.823  -1.923  -0.637  1.00  0.00     0.025 C 
HETATM   13  C   UNL     1       2.528  -2.629  -1.050  1.00  0.00     0.006 C 
HETATM   14  C   UNL     1       2.770  -3.969  -1.759  1.00  0.00    -0.019 C 
HETATM   15  C   UNL     1       3.212  -5.055  -0.774  1.00  0.00     0.010 C 
HETATM   16  C   UNL     1       3.768  -3.808  -2.913  1.00  0.00     0.006 C 
HETATM   17  C   UNL     1       5.066  -3.116  -2.493  1.00  0.00     0.025 C 
ENDBRANCH   8  11
ENDBRANCH   1   7
BRANCH   5  18
HETATM   18  C   UNL     1       2.140   2.831  -6.385  1.00  0.00    -0.003 A 
HETATM   19  C   UNL     1       2.191   3.269  -7.721  1.00  0.00     0.050 A 
HETATM   20  C   UNL     1       1.115   3.952  -8.291  1.00  0.00     0.069 A 
HETATM   21  C   UNL     1      -0.020   4.209  -7.519  1.00  0.00     0.037 A 
HETATM   22  C   UNL     1      -0.084   3.790  -6.191  1.00  0.00     0.004 A 
HETATM   23  C   UNL     1       0.992   3.103  -5.626  1.00  0.00     0.014 A 
BRANCH  20  24
HETATM   24  O   UNL     1       1.045   4.416  -9.577  1.00  0.00    -0.356 OA
HETATM   25  C   UNL     1       2.173   4.171 -10.408  1.00  0.00     0.210 C 
ENDBRANCH  20  24
ENDBRANCH   5  18
TORSDOF 4
