REMARK  4 active torsions:
REMARK  status: ('A' for Active; 'I' for Inactive)
REMARK    1  A    between atoms: C_6  and  C_7 
REMARK    2  A    between atoms: C_7  and  C_8 
REMARK    3  A    between atoms: C_18  and  N_19 
REMARK    4  A    between atoms: C_21  and  C_22 
ROOT
HETATM    1  C   UNL     1       1.031  -0.116  -0.155  1.00  0.00     0.049 C 
HETATM    2  C   UNL     1       2.532  -0.093  -0.071  1.00  0.00    -0.044 A 
HETATM    3  C   UNL     1       3.312   1.096  -0.025  1.00  0.00     0.033 A 
HETATM    4  C   UNL     1       4.693   0.932   0.032  1.00  0.00     0.112 A 
HETATM    5  S   UNL     1       5.547   2.402   0.062  1.00  0.00    -0.063 SA
HETATM    6  C   UNL     1       4.111   3.323  -0.038  1.00  0.00     0.085 A 
HETATM    7  C   UNL     1       2.995   2.503  -0.021  1.00  0.00     0.060 A 
HETATM    8  N   UNL     1       5.379  -0.227   0.069  1.00  0.00    -0.236 NA
HETATM    9  C   UNL     1       4.617  -1.345   0.048  1.00  0.00     0.142 A 
HETATM   10  C   UNL     1       3.223  -1.316  -0.018  1.00  0.00     0.044 A 
ENDROOT
BRANCH   6  11
HETATM   11  C   UNL     1       4.132   4.780  -0.029  1.00  0.00     0.201 C 
HETATM   12  O   UNL     1       3.210   5.452   0.438  1.00  0.00    -0.286 OA
BRANCH  11  13
HETATM   13  C   UNL     1       5.267   5.542  -0.621  1.00  0.00     0.018 A 
HETATM   14  C   UNL     1       5.708   6.696   0.044  1.00  0.00     0.055 A 
HETATM   15  C   UNL     1       6.733   7.415  -0.533  1.00  0.00     0.106 A 
HETATM   16  C   UNL     1       7.307   7.034  -1.723  1.00  0.00     0.105 A 
HETATM   17  O   UNL     1       7.286   8.551  -0.031  1.00  0.00    -0.323 OA
HETATM   18  O   UNL     1       8.294   7.882  -2.117  1.00  0.00    -0.323 OA
HETATM   19  C   UNL     1       6.886   5.915  -2.410  1.00  0.00     0.040 A 
HETATM   20  C   UNL     1       8.269   8.847  -1.045  1.00  0.00     0.352 A 
HETATM   21  C   UNL     1       5.843   5.165  -1.855  1.00  0.00     0.018 A 
ENDBRANCH  11  13
ENDBRANCH   6  11
BRANCH   7  22
HETATM   22  N   UNL     1       1.734   3.005  -0.014  1.00  0.00    -0.397 N 
HETATM   23  H   UNL     1       1.612   4.000   0.200  1.00  0.00     0.156 HD
HETATM   24  H   UNL     1       0.957   2.458   0.339  1.00  0.00     0.156 HD
ENDBRANCH   7  22
BRANCH   9  25
HETATM   25  C   UNL     1       5.304  -2.705   0.098  1.00  0.00     0.434 C 
HETATM   26  F   UNL     1       6.665  -2.652   0.122  1.00  0.00    -0.165 F 
HETATM   27  F   UNL     1       4.940  -3.430   1.197  1.00  0.00    -0.165 F 
HETATM   28  F   UNL     1       4.982  -3.489  -0.974  1.00  0.00    -0.165 F 
ENDBRANCH   9  25
TORSDOF 4
