REMARK  6 active torsions:
REMARK  status: ('A' for Active; 'I' for Inactive)
REMARK    1  A    between atoms: C_5  and  C_6 
REMARK    2  A    between atoms: C_6  and  N_7 
REMARK    3  A    between atoms: C_6  and  C_11 
REMARK       I    between atoms: N_7  and  C_8 
REMARK    4  A    between atoms: C_11  and  C_12 
REMARK       I    between atoms: C_12  and  N_13 
REMARK    5  A    between atoms: N_13  and  C_14 
REMARK    6  A    between atoms: C_16  and  C_17 
ROOT
HETATM    1  C   UNL     1       9.637  -0.565  -0.562  1.00  0.00     0.224 C 
HETATM    2  N   UNL     1      10.629  -1.147  -1.331  1.00  0.00    -0.327 N 
HETATM    3  O   UNL     1       9.695   0.523   0.004  1.00  0.00    -0.273 OA
HETATM    4  H   UNL     1      10.394  -2.031  -1.770  1.00  0.00     0.169 HD
ENDROOT
BRANCH   1   5
HETATM    5  C   UNL     1       8.424  -1.457  -0.402  1.00  0.00     0.133 C 
BRANCH   5   6
HETATM    6  C   UNL     1       7.130  -0.679  -0.663  1.00  0.00     0.126 C 
BRANCH   6   7
HETATM    7  C   UNL     1       5.920  -1.538  -0.325  1.00  0.00    -0.035 A 
HETATM    8  C   UNL     1       5.453  -2.537  -1.192  1.00  0.00     0.010 A 
HETATM    9  C   UNL     1       4.373  -3.348  -0.833  1.00  0.00     0.007 A 
HETATM   10  C   UNL     1       3.738  -3.182   0.402  1.00  0.00    -0.062 A 
HETATM   11  C   UNL     1       2.615  -4.092   0.802  1.00  0.00     0.048 C 
HETATM   12  C   UNL     1       4.210  -2.201   1.279  1.00  0.00     0.007 A 
HETATM   13  C   UNL     1       5.285  -1.384   0.918  1.00  0.00     0.010 A 
ENDBRANCH   6   7
BRANCH   6  14
HETATM   14  N   UNL     1       6.998  -0.065  -1.986  1.00  0.00    -0.352 N 
HETATM   15  C   UNL     1       7.474  -0.576  -3.169  1.00  0.00     0.214 C 
HETATM   16  C   UNL     1       7.128   0.272  -4.364  1.00  0.00     0.117 C 
HETATM   17  O   UNL     1       8.108  -1.621  -3.273  1.00  0.00    -0.274 OA
HETATM   18  H   UNL     1       6.395   0.745  -2.031  1.00  0.00     0.163 HD
ENDBRANCH   6  14
ENDBRANCH   5   6
ENDBRANCH   1   5
BRANCH   2  19
HETATM   19  C   UNL     1      11.904  -0.631  -1.637  1.00  0.00     0.035 A 
HETATM   20  C   UNL     1      12.351   0.635  -1.249  1.00  0.00     0.042 A 
HETATM   21  C   UNL     1      13.636   1.089  -1.596  1.00  0.00    -0.021 A 
HETATM   22  C   UNL     1      14.479   0.240  -2.325  1.00  0.00     0.012 A 
HETATM   23  C   UNL     1      14.042  -1.026  -2.715  1.00  0.00     0.003 A 
HETATM   24  C   UNL     1      12.758  -1.454  -2.380  1.00  0.00     0.029 A 
BRANCH  21  25
HETATM   25  C   UNL     1      14.069   2.421  -1.202  1.00  0.00     0.010 A 
HETATM   26  C   UNL     1      13.637   3.262  -0.147  1.00  0.00     0.152 A 
HETATM   27  N   UNL     1      14.271   4.438  -0.128  1.00  0.00    -0.187 NA
HETATM   28  N   UNL     1      15.104   4.361  -1.176  1.00  0.00    -0.289 N 
HETATM   29  H   UNL     1      15.698   5.159  -1.377  1.00  0.00     0.188 HD
HETATM   30  C   UNL     1      15.023   3.178  -1.851  1.00  0.00     0.123 A 
ENDBRANCH  21  25
ENDBRANCH   2  19
TORSDOF 6
