REMARK  6 active torsions:
REMARK  status: ('A' for Active; 'I' for Inactive)
REMARK    1  A    between atoms: C_7  and  S_8 
REMARK    2  A    between atoms: S_8  and  C_9 
REMARK    3  A    between atoms: C_9  and  C_10 
REMARK    4  A    between atoms: C_18  and  C_19 
REMARK    5  A    between atoms: C_29  and  C_30 
REMARK    6  A    between atoms: C_30  and  O_31 
ROOT
HETATM    1  C   UNL     1       0.847   0.306   0.280  1.00  0.00     0.070 C 
HETATM    2  C   UNL     1       2.351   0.230   0.196  1.00  0.00     0.037 C 
HETATM    3  N   UNL     1       3.015   1.454   0.188  1.00  0.00    -0.192 N 
HETATM    4  C   UNL     1       4.352   1.552   0.321  1.00  0.00     0.726 A 
HETATM    5  N   UNL     1       5.122   0.426   0.217  1.00  0.00    -0.082 N 
HETATM    6  N   UNL     1       6.411   0.684   0.520  1.00  0.00    -0.128 NA
HETATM    7  C   UNL     1       6.359   2.007   0.724  1.00  0.00     0.226 A 
HETATM    8  N   UNL     1       5.113   2.573   0.608  1.00  0.00    -0.035 NA
HETATM    9  C   UNL     1       4.582  -0.908  -0.075  1.00  0.00     0.204 C 
HETATM   10  C   UNL     1       3.065  -0.922   0.116  1.00  0.00     0.070 C 
HETATM   11  H   UNL     1       2.458   2.285   0.371  1.00  0.00     0.184 HD
ENDROOT
BRANCH   9  12
HETATM   12  C   UNL     1       5.048  -1.336  -1.475  1.00  0.00    -0.017 A 
HETATM   13  C   UNL     1       6.186  -2.181  -1.675  1.00  0.00    -0.017 A 
HETATM   14  C   UNL     1       6.536  -2.547  -3.003  1.00  0.00    -0.025 A 
HETATM   15  C   UNL     1       7.013  -2.682  -0.638  1.00  0.00     0.013 A 
HETATM   16  C   UNL     1       7.635  -3.388  -3.245  1.00  0.00     0.012 A 
HETATM   17  C   UNL     1       5.793  -2.067  -4.088  1.00  0.00     0.012 A 
HETATM   18  C   UNL     1       8.415  -3.872  -2.198  1.00  0.00     0.001 A 
HETATM   19  C   UNL     1       8.107  -3.515  -0.895  1.00  0.00     0.001 A 
HETATM   20  C   UNL     1       4.712  -1.217  -3.893  1.00  0.00     0.002 A 
HETATM   21  C   UNL     1       4.347  -0.851  -2.603  1.00  0.00     0.010 A 
ENDBRANCH   9  12
BRANCH  10  22
HETATM   22  C   UNL     1       2.483  -2.271   0.278  1.00  0.00     0.293 C 
HETATM   23  O   UNL     1       2.833  -3.245  -0.367  1.00  0.00    -0.259 OA
BRANCH  22  24
HETATM   24  O   UNL     1       1.605  -2.278   1.312  1.00  0.00    -0.323 OA
HETATM   25  C   UNL     1       1.026  -3.554   1.592  1.00  0.00     0.213 C 
ENDBRANCH  22  24
ENDBRANCH  10  22
BRANCH   7  26
HETATM   26  S   UNL     1       7.743   2.961   1.176  1.00  0.00    -0.083 SA
BRANCH  26  27
HETATM   27  C   UNL     1       9.102   1.825   0.790  1.00  0.00     0.123 C 
BRANCH  27  28
HETATM   28  C   UNL     1      10.441   2.474   1.061  1.00  0.00    -0.027 A 
HETATM   29  C   UNL     1      11.098   2.379   2.299  1.00  0.00     0.041 A 
HETATM   30 CL   UNL     1      10.449   1.469   3.617  1.00  0.00    -0.084 Cl
HETATM   31  C   UNL     1      12.318   3.033   2.509  1.00  0.00     0.024 A 
HETATM   32  C   UNL     1      12.892   3.795   1.492  1.00  0.00     0.002 A 
HETATM   33  C   UNL     1      12.250   3.905   0.263  1.00  0.00     0.001 A 
HETATM   34  C   UNL     1      11.035   3.252   0.049  1.00  0.00     0.009 A 
ENDBRANCH  27  28
ENDBRANCH  26  27
ENDBRANCH   7  26
TORSDOF 6
