REMARK  5 active torsions:
REMARK  status: ('A' for Active; 'I' for Inactive)
REMARK    1  A    between atoms: C_2  and  C_3 
REMARK    2  A    between atoms: C_3  and  N_4 
REMARK    3  A    between atoms: C_3  and  C_18 
REMARK    4  A    between atoms: N_4  and  C_7 
REMARK    5  A    between atoms: C_7  and  C_8 
ROOT
HETATM    1  N   UNL     1       1.952   2.478  -1.492  1.00  0.00    -0.056 N 
HETATM    2  H   UNL     1       1.307   2.103  -2.200  1.00  0.00     0.278 HD
HETATM    3  H   UNL     1       2.145   3.451  -1.753  1.00  0.00     0.278 HD
ENDROOT
BRANCH   1   4
HETATM    4  C   UNL     1       1.227   2.438  -0.177  1.00  0.00     0.292 C 
BRANCH   4   5
HETATM    5  C   UNL     1       0.162   3.520  -0.105  1.00  0.00    -0.020 A 
HETATM    6  C   UNL     1      -0.847   3.648  -1.081  1.00  0.00     0.011 A 
HETATM    7  C   UNL     1      -1.804   4.664  -0.990  1.00  0.00     0.024 A 
HETATM    8  C   UNL     1      -1.767   5.563   0.071  1.00  0.00     0.034 A 
HETATM    9  C   UNL     1      -0.780   5.454   1.047  1.00  0.00     0.024 A 
HETATM   10 CL   UNL     1      -2.945   6.809   0.179  1.00  0.00    -0.084 Cl
HETATM   11  C   UNL     1       0.179   4.440   0.961  1.00  0.00     0.011 A 
ENDBRANCH   4   5
BRANCH   4  12
HETATM   12  C   UNL     1       0.510   1.140   0.057  1.00  0.00     0.190 A 
HETATM   13  N   UNL     1       0.358   0.592   1.268  1.00  0.00    -0.109 NA
HETATM   14  O   UNL     1      -0.302  -0.609   0.990  1.00  0.00    -0.205 OA
HETATM   15  C   UNL     1      -0.435  -0.673  -0.361  1.00  0.00     0.288 A 
HETATM   16  N   UNL     1       0.079   0.357  -0.995  1.00  0.00    -0.215 NA
ENDBRANCH   4  12
ENDBRANCH   1   4
BRANCH   1  17
HETATM   17  C   UNL     1       3.201   1.678  -1.539  1.00  0.00     0.272 C 
BRANCH  17  18
HETATM   18  C   UNL     1       3.845   1.782  -2.891  1.00  0.00    -0.030 A 
HETATM   19  C   UNL     1       3.370   1.005  -3.960  1.00  0.00     0.048 A 
HETATM   20  C   UNL     1       3.938   1.128  -5.228  1.00  0.00     0.102 A 
HETATM   21  C   UNL     1       5.003   2.006  -5.436  1.00  0.00     0.102 A 
HETATM   22  O   UNL     1       3.400   0.349  -6.217  1.00  0.00    -0.346 OA
HETATM   23  O   UNL     1       5.632   2.148  -6.644  1.00  0.00    -0.346 OA
HETATM   24  C   UNL     1       5.469   2.795  -4.389  1.00  0.00     0.040 A 
HETATM   25  C   UNL     1       5.331   1.056  -7.522  1.00  0.00     0.202 C 
HETATM   26  C   UNL     1       3.839   0.766  -7.519  1.00  0.00     0.202 C 
HETATM   27  C   UNL     1       4.892   2.688  -3.120  1.00  0.00     0.012 A 
ENDBRANCH  17  18
ENDBRANCH   1  17
TORSDOF 5
