REMARK  2 active torsions:
REMARK  status: ('A' for Active; 'I' for Inactive)
REMARK    1  A    between atoms: C_5  and  C_6 
REMARK    2  A    between atoms: C_15  and  C_16 
ROOT
HETATM    1  C   UNL     1       6.833   0.084  -0.559  1.00  0.00     0.190 A 
HETATM    2  N   UNL     1       7.482   1.308  -0.166  1.00  0.00    -0.308 N 
HETATM    3  C   UNL     1       8.296   1.800  -1.157  1.00  0.00     0.320 A 
HETATM    4  O   UNL     1       9.021   2.772  -1.052  1.00  0.00    -0.247 OA
HETATM    5  N   UNL     1       8.164   1.031  -2.288  1.00  0.00    -0.308 N 
HETATM    6  N   UNL     1       7.517  -1.006   0.089  1.00  0.00    -0.308 N 
HETATM    7  C   UNL     1       8.245  -1.762  -0.797  1.00  0.00     0.320 A 
HETATM    8  O   UNL     1       8.943  -2.714  -0.499  1.00  0.00    -0.247 OA
HETATM    9  N   UNL     1       8.060  -1.285  -2.072  1.00  0.00    -0.308 N 
HETATM   10  C   UNL     1       7.270  -0.082  -2.088  1.00  0.00     0.190 A 
HETATM   11  H   UNL     1       7.517   1.673   0.772  1.00  0.00     0.167 HD
HETATM   12  H   UNL     1       8.728   1.188  -3.108  1.00  0.00     0.167 HD
HETATM   13  H   UNL     1       7.571  -1.154   1.085  1.00  0.00     0.167 HD
HETATM   14  H   UNL     1       8.594  -1.641  -2.849  1.00  0.00     0.167 HD
ENDROOT
BRANCH   1  15
HETATM   15  C   UNL     1       5.343   0.094  -0.248  1.00  0.00    -0.005 A 
HETATM   16  C   UNL     1       4.597   1.285  -0.308  1.00  0.00     0.012 A 
HETATM   17  C   UNL     1       3.218   1.288  -0.076  1.00  0.00     0.007 A 
HETATM   18  C   UNL     1       2.546   0.102   0.228  1.00  0.00    -0.062 A 
HETATM   19  C   UNL     1       1.062   0.089   0.439  1.00  0.00     0.048 C 
HETATM   20  C   UNL     1       3.272  -1.091   0.281  1.00  0.00     0.007 A 
HETATM   21  C   UNL     1       4.650  -1.095   0.046  1.00  0.00     0.012 A 
ENDBRANCH   1  15
BRANCH  10  22
HETATM   22  C   UNL     1       6.167  -0.127  -3.136  1.00  0.00    -0.005 A 
HETATM   23  C   UNL     1       5.696   1.047  -3.752  1.00  0.00     0.012 A 
HETATM   24  C   UNL     1       4.647   1.011  -4.675  1.00  0.00     0.007 A 
HETATM   25  C   UNL     1       4.035  -0.201  -5.007  1.00  0.00    -0.062 A 
HETATM   26  C   UNL     1       2.894  -0.250  -5.978  1.00  0.00     0.048 C 
HETATM   27  C   UNL     1       4.489  -1.375  -4.399  1.00  0.00     0.007 A 
HETATM   28  C   UNL     1       5.538  -1.339  -3.477  1.00  0.00     0.012 A 
ENDBRANCH  10  22
TORSDOF 2
