REMARK  5 active torsions:
REMARK  status: ('A' for Active; 'I' for Inactive)
REMARK    1  A    between atoms: C_8  and  N_9 
REMARK       I    between atoms: N_9  and  C_10 
REMARK    2  A    between atoms: C_10  and  C_11 
REMARK    3  A    between atoms: C_11  and  N_12 
REMARK    4  A    between atoms: N_12  and  C_13 
REMARK    5  A    between atoms: C_13  and  C_14 
ROOT
HETATM    1  C   UNL     1      -1.352   2.443  -1.564  1.00  0.00     0.372 C 
ENDROOT
BRANCH   1   2
HETATM    2  C   UNL     1      -2.217   2.082  -2.783  1.00  0.00     0.250 C 
HETATM    3  N   UNL     1      -2.295   0.720  -2.983  1.00  0.00    -0.322 N 
HETATM    4  H   UNL     1      -1.792   0.167  -2.295  1.00  0.00     0.169 HD
HETATM    5  O   UNL     1      -2.771   2.960  -3.435  1.00  0.00    -0.271 OA
BRANCH   3   6
HETATM    6  C   UNL     1      -2.940   0.040  -3.999  1.00  0.00     0.085 A 
HETATM    7  C   UNL     1      -2.931  -1.342  -4.061  1.00  0.00     0.052 A 
HETATM    8  C   UNL     1      -2.328  -2.380  -3.194  1.00  0.00     0.072 C 
HETATM    9  N   UNL     1      -3.643  -1.670  -5.179  1.00  0.00    -0.280 N 
HETATM   10  H   UNL     1      -3.847  -2.594  -5.544  1.00  0.00     0.189 HD
HETATM   11  N   UNL     1      -4.111  -0.616  -5.851  1.00  0.00    -0.177 NA
HETATM   12  C   UNL     1      -3.692   0.444  -5.141  1.00  0.00     0.079 A 
HETATM   13  C   UNL     1      -4.048   1.797  -5.637  1.00  0.00     0.075 C 
ENDBRANCH   3   6
ENDBRANCH   1   2
BRANCH   1  14
HETATM   14  N   UNL     1      -0.343   1.385  -1.309  1.00  0.00     0.100 N 
HETATM   15  H   UNL     1       0.213   1.284  -2.162  1.00  0.00     0.317 HD
BRANCH  14  16
HETATM   16  C   UNL     1       0.591   1.712  -0.212  1.00  0.00     0.250 C 
HETATM   17  C   UNL     1       1.587   2.811  -0.609  1.00  0.00     0.048 C 
BRANCH  16  18
HETATM   18  C   UNL     1      -0.112   1.912   1.124  1.00  0.00    -0.024 A 
HETATM   19  C   UNL     1      -0.286   3.178   1.711  1.00  0.00     0.036 A 
HETATM   20  C   UNL     1      -0.940   3.310   2.939  1.00  0.00     0.073 A 
HETATM   21 CL   UNL     1      -1.130   4.876   3.630  1.00  0.00    -0.081 Cl
HETATM   22  C   UNL     1      -1.430   2.183   3.591  1.00  0.00     0.138 A 
HETATM   23  F   UNL     1      -2.056   2.290   4.772  1.00  0.00    -0.204 F 
HETATM   24  C   UNL     1      -1.279   0.922   3.026  1.00  0.00     0.044 A 
HETATM   25  C   UNL     1      -0.628   0.788   1.798  1.00  0.00     0.012 A 
ENDBRANCH  16  18
ENDBRANCH  14  16
ENDBRANCH   1  14
TORSDOF 5
