REMARK  3 active torsions:
REMARK  status: ('A' for Active; 'I' for Inactive)
REMARK    1  A    between atoms: C_5  and  N_6 
REMARK    2  A    between atoms: C_10  and  C_11 
REMARK    3  A    between atoms: C_21  and  O_22 
ROOT
HETATM    1  N   UNL     1       6.630   0.070  -0.788  1.00  0.00    -0.231 N 
HETATM    2  N   UNL     1       7.457   1.092  -0.343  1.00  0.00    -0.257 N 
HETATM    3  C   UNL     1       8.766   0.685  -0.533  1.00  0.00     0.275 C 
HETATM    4  O   UNL     1       9.766   1.379  -0.480  1.00  0.00    -0.266 OA
HETATM    5  C   UNL     1       8.736  -0.767  -0.881  1.00  0.00     0.087 C 
HETATM    6  C   UNL     1       7.426  -1.031  -1.042  1.00  0.00     0.178 C 
HETATM    7  H   UNL     1       7.200   2.063  -0.435  1.00  0.00     0.191 HD
ENDROOT
BRANCH   5   8
HETATM    8  C   UNL     1       9.898  -1.574  -1.123  1.00  0.00     0.035 C 
HETATM    9  C   UNL     1      10.147  -2.775  -0.589  1.00  0.00    -0.005 A 
HETATM   10  C   UNL     1      11.259  -3.673  -0.870  1.00  0.00     0.004 A 
HETATM   11  C   UNL     1       9.342  -3.515   0.422  1.00  0.00     0.129 A 
HETATM   12  C   UNL     1      11.005  -4.801  -0.071  1.00  0.00     0.067 A 
HETATM   13  C   UNL     1      12.353  -3.610  -1.715  1.00  0.00     0.014 A 
HETATM   14  C   UNL     1      11.852  -5.893  -0.104  1.00  0.00     0.032 A 
HETATM   15  N   UNL     1       9.832  -4.687   0.713  1.00  0.00    -0.259 NA
HETATM   16  C   UNL     1      12.961  -5.846  -0.953  1.00  0.00     0.002 A 
HETATM   17  C   UNL     1      13.209  -4.715  -1.751  1.00  0.00     0.001 A 
ENDBRANCH   5   8
BRANCH   6  18
HETATM   18  O   UNL     1       6.902  -2.215  -1.492  1.00  0.00    -0.344 OA
HETATM   19  H   UNL     1       7.628  -2.779  -1.806  1.00  0.00     0.219 HD
ENDBRANCH   6  18
BRANCH   1  20
HETATM   20  C   UNL     1       5.258   0.142  -0.442  1.00  0.00     0.059 A 
HETATM   21  C   UNL     1       4.564   1.364  -0.484  1.00  0.00     0.032 A 
HETATM   22  C   UNL     1       3.195   1.443  -0.193  1.00  0.00     0.009 A 
HETATM   23  C   UNL     1       2.479   0.298   0.160  1.00  0.00    -0.062 A 
HETATM   24  C   UNL     1       1.006   0.357   0.432  1.00  0.00     0.048 C 
HETATM   25  C   UNL     1       3.152  -0.924   0.211  1.00  0.00     0.009 A 
HETATM   26  C   UNL     1       4.519  -0.997  -0.086  1.00  0.00     0.032 A 
ENDBRANCH   1  20
TORSDOF 3
