REMARK  3 active torsions:
REMARK  status: ('A' for Active; 'I' for Inactive)
REMARK    1  A    between atoms: C_6  and  N_7 
REMARK       I    between atoms: N_7  and  C_8 
REMARK    2  A    between atoms: C_8  and  C_9 
REMARK    3  A    between atoms: C_9  and  C_10 
ROOT
HETATM    1  C   UNL     1       5.072  -1.974  -0.328  1.00  0.00     0.286 C 
HETATM    2  N   UNL     1       4.572  -0.766  -1.123  1.00  0.00    -0.056 N 
HETATM    3  H   UNL     1       4.931   0.077  -0.625  1.00  0.00     0.278 HD
HETATM    4  H   UNL     1       4.986  -0.751  -2.063  1.00  0.00     0.278 HD
HETATM    5  C   UNL     1       3.079  -0.745  -1.171  1.00  0.00     0.209 C 
HETATM    6  C   UNL     1       2.600  -2.030  -1.882  1.00  0.00     0.115 C 
HETATM    7  N   UNL     1       3.180  -3.244  -1.305  1.00  0.00    -0.353 N 
HETATM    8  C   UNL     1       4.494  -3.294  -0.875  1.00  0.00     0.249 C 
HETATM    9  O   UNL     1       5.108  -4.353  -0.857  1.00  0.00    -0.271 OA
HETATM   10  C   UNL     1       2.592   0.500  -1.899  1.00  0.00     0.035 C 
HETATM   11  C   UNL     1       1.064   0.496  -1.959  1.00  0.00     0.002 C 
HETATM   12  C   UNL     1       0.507  -0.798  -2.560  1.00  0.00     0.002 C 
HETATM   13  C   UNL     1       1.071  -2.058  -1.893  1.00  0.00     0.027 C 
HETATM   14  H   UNL     1       2.858  -4.139  -1.669  1.00  0.00     0.163 HD
ENDROOT
BRANCH   1  15
HETATM   15  C   UNL     1       6.604  -1.969  -0.251  1.00  0.00     0.146 C 
BRANCH  15  16
HETATM   16  C   UNL     1       7.043  -0.706   0.457  1.00  0.00     0.224 C 
HETATM   17  N   UNL     1       8.347  -0.715   0.893  1.00  0.00    -0.327 N 
HETATM   18  H   UNL     1       8.955  -1.457   0.568  1.00  0.00     0.169 HD
HETATM   19  O   UNL     1       6.254   0.238   0.520  1.00  0.00    -0.273 OA
BRANCH  17  20
HETATM   20  C   UNL     1       8.966   0.302   1.666  1.00  0.00     0.040 A 
HETATM   21  C   UNL     1      10.371   0.341   1.761  1.00  0.00    -0.035 A 
HETATM   22  C   UNL     1      10.980   1.351   2.533  1.00  0.00     0.015 A 
HETATM   23  C   UNL     1      11.261  -0.640   1.047  1.00  0.00     0.050 C 
HETATM   24  C   UNL     1      10.220   2.304   3.218  1.00  0.00    -0.061 A 
HETATM   25  C   UNL     1      10.871   3.394   4.018  1.00  0.00     0.048 C 
HETATM   26  C   UNL     1       8.831   2.248   3.127  1.00  0.00     0.009 A 
HETATM   27  C   UNL     1       8.213   1.256   2.363  1.00  0.00     0.030 A 
ENDBRANCH  17  20
ENDBRANCH  15  16
ENDBRANCH   1  15
TORSDOF 3
