REMARK  9 active torsions:
REMARK  status: ('A' for Active; 'I' for Inactive)
REMARK    1  A    between atoms: C_2  and  C_3 
REMARK    2  A    between atoms: C_4  and  N_5 
REMARK       I    between atoms: N_5  and  C_6 
REMARK    3  A    between atoms: C_6  and  C_7 
REMARK    4  A    between atoms: C_7  and  S_8 
REMARK    5  A    between atoms: S_8  and  C_9 
REMARK    6  A    between atoms: C_13  and  C_14 
REMARK       I    between atoms: C_14  and  N_15 
REMARK    7  A    between atoms: N_15  and  C_16 
REMARK    8  A    between atoms: C_17  and  O_18 
REMARK    9  A    between atoms: C_25  and  C_26 
ROOT
HETATM    1  C   UNL     1       2.200   4.869  -4.217  1.00  0.00     0.088 C 
HETATM    2  N   UNL     1       2.226   6.176  -3.756  1.00  0.00    -0.353 N 
HETATM    3  C   UNL     1       2.341   7.280  -4.599  1.00  0.00     0.019 C 
HETATM    4  C   UNL     1       1.647   8.514  -4.077  1.00  0.00     0.069 C 
HETATM    5  C   UNL     1       2.901   7.134  -5.826  1.00  0.00     0.046 C 
HETATM    6  C   UNL     1       3.276   5.715  -6.308  1.00  0.00     0.106 C 
HETATM    7  C   UNL     1       2.708   4.587  -5.438  1.00  0.00     0.069 C 
HETATM    8  C   UNL     1       2.640   3.289  -6.029  1.00  0.00     0.099 C 
HETATM    9  N   UNL     1       2.595   2.240  -6.523  1.00  0.00    -0.192 NA
HETATM   10  H   UNL     1       1.618   6.307  -2.950  1.00  0.00     0.166 HD
ENDROOT
BRANCH   1  11
HETATM   11  S   UNL     1       1.290   3.694  -3.292  1.00  0.00    -0.102 SA
BRANCH  11  12
HETATM   12  C   UNL     1       2.594   2.698  -2.506  1.00  0.00     0.184 C 
BRANCH  12  13
HETATM   13  C   UNL     1       1.912   1.640  -1.640  1.00  0.00     0.231 C 
HETATM   14  N   UNL     1       1.250   2.186  -0.548  1.00  0.00    -0.326 N 
HETATM   15  H   UNL     1       1.443   3.158  -0.354  1.00  0.00     0.169 HD
HETATM   16  O   UNL     1       1.981   0.447  -1.920  1.00  0.00    -0.272 OA
BRANCH  14  17
HETATM   17  C   UNL     1       0.240   1.584   0.238  1.00  0.00     0.041 A 
HETATM   18  C   UNL     1      -0.247   2.266   1.376  1.00  0.00    -0.032 A 
HETATM   19  C   UNL     1      -1.333   1.723   2.090  1.00  0.00     0.009 A 
HETATM   20  C   UNL     1      -1.919   0.521   1.701  1.00  0.00     0.001 A 
HETATM   21  C   UNL     1      -1.423  -0.159   0.596  1.00  0.00     0.002 A 
HETATM   22  C   UNL     1      -0.351   0.368  -0.128  1.00  0.00     0.030 A 
BRANCH  18  23
HETATM   23  C   UNL     1       0.339   3.567   1.881  1.00  0.00     0.036 C 
HETATM   24  C   UNL     1      -0.293   4.783   1.221  1.00  0.00     0.010 C 
ENDBRANCH  18  23
ENDBRANCH  14  17
ENDBRANCH  12  13
ENDBRANCH  11  12
ENDBRANCH   1  11
BRANCH   6  25
HETATM   25  C   UNL     1       4.766   5.509  -6.571  1.00  0.00    -0.044 A 
HETATM   26  C   UNL     1       5.724   5.642  -5.557  1.00  0.00     0.008 A 
HETATM   27  C   UNL     1       7.071   5.372  -5.815  1.00  0.00     0.001 A 
HETATM   28  C   UNL     1       7.476   4.965  -7.085  1.00  0.00     0.000 A 
HETATM   29  C   UNL     1       6.535   4.825  -8.101  1.00  0.00     0.001 A 
HETATM   30  C   UNL     1       5.190   5.096  -7.847  1.00  0.00     0.008 A 
ENDBRANCH   6  25
BRANCH   5  31
HETATM   31  C   UNL     1       2.888   8.147  -6.933  1.00  0.00     0.255 C 
HETATM   32  N   UNL     1       3.023   9.491  -6.785  1.00  0.00    -0.321 N 
HETATM   33  H   UNL     1       2.654   9.959  -7.605  1.00  0.00     0.169 HD
HETATM   34  O   UNL     1       2.606   7.757  -8.073  1.00  0.00    -0.268 OA
BRANCH  32  35
HETATM   35  C   UNL     1       3.531  10.339  -5.789  1.00  0.00     0.068 A 
HETATM   36  C   UNL     1       4.576  10.034  -4.911  1.00  0.00     0.095 A 
HETATM   37  C   UNL     1       4.933  10.949  -3.908  1.00  0.00     0.039 A 
HETATM   38  C   UNL     1       4.305  12.192  -3.825  1.00  0.00     0.003 A 
HETATM   39  C   UNL     1       3.324  12.534  -4.749  1.00  0.00     0.002 A 
HETATM   40  C   UNL     1       2.949  11.616  -5.731  1.00  0.00     0.032 A 
BRANCH  36  41
HETATM   41  O   UNL     1       5.268   8.864  -5.073  1.00  0.00    -0.354 OA
HETATM   42  C   UNL     1       6.681   9.074  -5.132  1.00  0.00     0.210 C 
ENDBRANCH  36  41
ENDBRANCH  32  35
ENDBRANCH   5  31
TORSDOF 9
