REMARK  7 active torsions:
REMARK  status: ('A' for Active; 'I' for Inactive)
REMARK    1  A    between atoms: C_3  and  C_4 
REMARK    2  A    between atoms: C_4  and  S_5 
REMARK    3  A    between atoms: S_5  and  C_6 
REMARK    4  A    between atoms: C_6  and  C_7 
REMARK    5  A    between atoms: C_16  and  C_17 
REMARK       I    between atoms: C_17  and  N_18 
REMARK    6  A    between atoms: N_18  and  C_19 
REMARK    7  A    between atoms: C_19  and  C_20 
ROOT
HETATM    1  C   UNL     1       4.056   6.495  -0.589  1.00  0.00     0.162 C 
HETATM    2  N   UNL     1       3.402   7.769  -0.181  1.00  0.00    -0.277 NA
HETATM    3  C   UNL     1       4.282   8.851   0.000  1.00  0.00     0.036 A 
HETATM    4  C   UNL     1       5.627   8.646   0.363  1.00  0.00     0.057 A 
HETATM    5  N   UNL     1       6.119   7.341   0.489  1.00  0.00    -0.324 N 
HETATM    6  C   UNL     1       5.357   6.238   0.195  1.00  0.00     0.240 C 
HETATM    7  O   UNL     1       5.749   5.108   0.485  1.00  0.00    -0.271 OA
HETATM    8  C   UNL     1       3.789  10.160  -0.013  1.00  0.00     0.027 A 
HETATM    9  C   UNL     1       4.635  11.246   0.245  1.00  0.00     0.019 A 
HETATM   10  C   UNL     1       5.984  11.029   0.550  1.00  0.00     0.034 A 
HETATM   11  C   UNL     1       6.473   9.720   0.635  1.00  0.00     0.048 A 
HETATM   12  H   UNL     1       2.582   8.005  -0.731  1.00  0.00     0.128 HD
HETATM   13  H   UNL     1       7.022   7.169   0.910  1.00  0.00     0.169 HD
ENDROOT
BRANCH  10  14
HETATM   14  C   UNL     1       6.934  12.143   0.818  1.00  0.00     0.252 C 
HETATM   15  N   UNL     1       6.681  13.340   0.187  1.00  0.00    -0.353 N 
HETATM   16  H   UNL     1       5.874  13.459  -0.408  1.00  0.00     0.163 HD
HETATM   17  O   UNL     1       7.910  11.953   1.534  1.00  0.00    -0.268 OA
BRANCH  15  18
HETATM   18  C   UNL     1       7.577  14.464   0.350  1.00  0.00     0.161 C 
BRANCH  18  19
HETATM   19  C   UNL     1       7.445  15.456  -0.780  1.00  0.00    -0.040 A 
HETATM   20  C   UNL     1       7.309  16.825  -0.509  1.00  0.00     0.010 A 
HETATM   21  C   UNL     1       7.226  17.751  -1.554  1.00  0.00     0.024 A 
HETATM   22  C   UNL     1       7.280  17.312  -2.875  1.00  0.00     0.034 A 
HETATM   23 CL   UNL     1       7.177  18.452  -4.160  1.00  0.00    -0.084 Cl
HETATM   24  C   UNL     1       7.425  15.957  -3.162  1.00  0.00     0.024 A 
HETATM   25  C   UNL     1       7.516  15.034  -2.118  1.00  0.00     0.010 A 
ENDBRANCH  18  19
ENDBRANCH  15  18
ENDBRANCH  10  14
BRANCH   1  26
HETATM   26  C   UNL     1       4.306   6.511  -2.112  1.00  0.00     0.103 C 
BRANCH  26  27
HETATM   27  S   UNL     1       5.069   5.034  -2.873  1.00  0.00    -0.162 SA
BRANCH  27  28
HETATM   28  C   UNL     1       3.868   3.755  -2.383  1.00  0.00     0.112 C 
BRANCH  28  29
HETATM   29  C   UNL     1       4.205   2.417  -3.002  1.00  0.00    -0.043 A 
HETATM   30  C   UNL     1       5.017   1.465  -2.348  1.00  0.00    -0.055 A 
HETATM   31  C   UNL     1       5.590   1.713  -0.978  1.00  0.00     0.049 C 
HETATM   32  C   UNL     1       5.292   0.243  -2.985  1.00  0.00     0.007 A 
HETATM   33  C   UNL     1       4.790  -0.031  -4.257  1.00  0.00     0.001 A 
HETATM   34  C   UNL     1       4.005   0.912  -4.911  1.00  0.00     0.001 A 
HETATM   35  C   UNL     1       3.716   2.126  -4.290  1.00  0.00     0.008 A 
ENDBRANCH  28  29
ENDBRANCH  27  28
ENDBRANCH  26  27
ENDBRANCH   1  26
TORSDOF 7
