REMARK  6 active torsions:
REMARK  status: ('A' for Active; 'I' for Inactive)
REMARK    1  A    between atoms: N_6  and  C_7 
REMARK    2  A    between atoms: C_8  and  N_9 
REMARK    3  A    between atoms: C_10  and  N_11 
REMARK       I    between atoms: N_11  and  C_12 
REMARK    4  A    between atoms: C_12  and  C_13 
REMARK    5  A    between atoms: C_14  and  C_15 
REMARK    6  A    between atoms: C_17  and  C_18 
ROOT
HETATM    1  N   UNL     1       6.648   3.191   6.083  1.00  0.00    -0.300 N 
HETATM    2  C   UNL     1       6.584   4.099   7.128  1.00  0.00     0.247 C 
HETATM    3  O   UNL     1       6.365   5.297   7.006  1.00  0.00    -0.268 OA
HETATM    4  H   UNL     1       6.588   2.213   6.322  1.00  0.00     0.171 HD
ENDROOT
BRANCH   1   5
HETATM    5  C   UNL     1       7.064   3.435   4.796  1.00  0.00     0.179 C 
HETATM    6  N   UNL     1       6.766   2.495   3.851  1.00  0.00    -0.331 N 
HETATM    7  H   UNL     1       7.233   2.660   2.961  1.00  0.00     0.168 HD
HETATM    8  S   UNL     1       8.008   4.719   4.283  1.00  0.00    -0.040 SA
BRANCH   6   9
HETATM    9  C   UNL     1       5.798   1.469   3.769  1.00  0.00     0.061 A 
HETATM   10  C   UNL     1       5.902   0.588   2.650  1.00  0.00     0.057 A 
HETATM   11  C   UNL     1       4.869  -0.342   2.456  1.00  0.00     0.031 A 
HETATM   12  C   UNL     1       3.798  -0.436   3.348  1.00  0.00     0.002 A 
HETATM   13  C   UNL     1       3.722   0.419   4.440  1.00  0.00     0.002 A 
HETATM   14  C   UNL     1       4.710   1.380   4.644  1.00  0.00     0.032 A 
BRANCH  10  15
HETATM   15  N   UNL     1       7.010   0.680   1.783  1.00  0.00    -0.376 N 
HETATM   16  C   UNL     1       6.855   0.340   0.353  1.00  0.00     0.150 C 
HETATM   17  C   UNL     1       7.243  -1.122   0.033  1.00  0.00     0.254 C 
HETATM   18  N   UNL     1       8.606  -1.474   0.622  1.00  0.00    -0.072 N 
HETATM   19  C   UNL     1       8.998  -2.891   0.328  1.00  0.00     0.269 C 
HETATM   20  H   UNL     1       9.297  -0.859   0.171  1.00  0.00     0.279 HD
HETATM   21  C   UNL     1       8.648  -1.175   2.119  1.00  0.00     0.254 C 
HETATM   22  C   UNL     1       8.313   0.305   2.379  1.00  0.00     0.150 C 
ENDBRANCH  10  15
ENDBRANCH   6   9
ENDBRANCH   1   5
BRANCH   2  23
HETATM   23  C   UNL     1       6.605   3.450   8.465  1.00  0.00     0.077 C 
HETATM   24  C   UNL     1       6.000   4.089   9.476  1.00  0.00     0.042 C 
BRANCH  24  25
HETATM   25  C   UNL     1       5.998   3.578  10.802  1.00  0.00     0.076 A 
HETATM   26  O   UNL     1       6.863   2.617  11.282  1.00  0.00    -0.310 OA
HETATM   27  C   UNL     1       6.608   2.426  12.612  1.00  0.00     0.086 A 
HETATM   28  C   UNL     1       5.549   3.218  12.994  1.00  0.00     0.041 A 
HETATM   29  C   UNL     1       5.172   3.957  11.851  1.00  0.00     0.040 A 
BRANCH  27  30
HETATM   30  C   UNL     1       7.472   1.486  13.323  1.00  0.00     0.001 A 
HETATM   31  C   UNL     1       8.710   1.093  12.797  1.00  0.00     0.038 A 
HETATM   32  C   UNL     1       9.543   0.230  13.513  1.00  0.00     0.036 A 
HETATM   33 CL   UNL     1      11.064  -0.229  12.849  1.00  0.00    -0.084 Cl
HETATM   34  C   UNL     1       9.162  -0.258  14.759  1.00  0.00     0.047 A 
HETATM   35  C   UNL     1       7.932   0.123  15.284  1.00  0.00     0.036 A 
HETATM   36 CL   UNL     1       7.441  -0.472  16.823  1.00  0.00    -0.084 Cl
HETATM   37  C   UNL     1       7.092   0.987  14.579  1.00  0.00     0.038 A 
ENDBRANCH  27  30
ENDBRANCH  24  25
ENDBRANCH   2  23
TORSDOF 6
