REMARK  6 active torsions:
REMARK  status: ('A' for Active; 'I' for Inactive)
REMARK    1  A    between atoms: C_6  and  C_7 
REMARK    2  A    between atoms: C_7  and  N_8 
REMARK    3  A    between atoms: C_7  and  C_24 
REMARK       I    between atoms: N_8  and  C_9 
REMARK       I    between atoms: C_9  and  N_10 
REMARK    4  A    between atoms: N_10  and  C_11 
REMARK    5  A    between atoms: C_14  and  C_15 
REMARK    6  A    between atoms: C_24  and  O_25 
ROOT
HETATM    1  N   UNL     1       4.504  -3.984   2.557  1.00  0.00    -0.331 N 
HETATM    2  C   UNL     1       4.237  -3.265   1.433  1.00  0.00     0.321 C 
HETATM    3  N   UNL     1       5.318  -2.784   0.751  1.00  0.00    -0.309 N 
HETATM    4  O   UNL     1       3.056  -3.119   1.132  1.00  0.00    -0.247 OA
HETATM    5  H   UNL     1       3.651  -4.291   3.004  1.00  0.00     0.165 HD
HETATM    6  H   UNL     1       6.221  -2.988   1.140  1.00  0.00     0.170 HD
ENDROOT
BRANCH   1   7
HETATM    7  C   UNL     1       5.760  -4.296   3.232  1.00  0.00     0.161 C 
BRANCH   7   8
HETATM    8  C   UNL     1       6.164  -3.107   4.048  1.00  0.00     0.056 A 
HETATM    9  N   UNL     1       7.471  -2.805   4.356  1.00  0.00    -0.277 N 
HETATM   10  C   UNL     1       8.663  -3.517   3.956  1.00  0.00     0.179 C 
HETATM   11  N   UNL     1       7.598  -1.712   5.129  1.00  0.00    -0.185 NA
HETATM   12  C   UNL     1       6.346  -1.289   5.302  1.00  0.00     0.141 A 
HETATM   13  C   UNL     1       5.414  -2.117   4.660  1.00  0.00     0.050 A 
ENDBRANCH   7   8
BRANCH   7  14
HETATM   14  C   UNL     1       5.609  -5.551   4.121  1.00  0.00     0.198 C 
BRANCH  14  15
HETATM   15  O   UNL     1       5.546  -6.712   3.285  1.00  0.00    -0.394 OA
HETATM   16  C   UNL     1       5.333  -7.897   4.040  1.00  0.00     0.201 C 
ENDBRANCH  14  15
ENDBRANCH   7  14
ENDBRANCH   1   7
BRANCH   3  17
HETATM   17  C   UNL     1       5.322  -2.023  -0.436  1.00  0.00     0.036 A 
HETATM   18  C   UNL     1       4.177  -1.576  -1.086  1.00  0.00     0.030 A 
HETATM   19  C   UNL     1       4.273  -0.815  -2.260  1.00  0.00     0.010 A 
HETATM   20  C   UNL     1       5.515  -0.460  -2.813  1.00  0.00    -0.054 A 
HETATM   21  C   UNL     1       6.658  -0.949  -2.166  1.00  0.00     0.010 A 
HETATM   22  C   UNL     1       6.564  -1.707  -0.991  1.00  0.00     0.030 A 
BRANCH  20  23
HETATM   23  C   UNL     1       5.571   0.358  -4.106  1.00  0.00     0.018 C 
HETATM   24  C   UNL     1       4.630   1.587  -4.105  1.00  0.00     0.009 C 
HETATM   25  C   UNL     1       5.145   2.715  -3.213  1.00  0.00     0.001 C 
HETATM   26  C   UNL     1       6.542   3.159  -3.631  1.00  0.00     0.000 C 
HETATM   27  C   UNL     1       7.516   1.986  -3.697  1.00  0.00     0.001 C 
HETATM   28  C   UNL     1       6.972   0.839  -4.553  1.00  0.00     0.009 C 
ENDBRANCH  20  23
ENDBRANCH   3  17
TORSDOF 6
