REMARK  7 active torsions:
REMARK  status: ('A' for Active; 'I' for Inactive)
REMARK    1  A    between atoms: C_7  and  C_8 
REMARK    2  A    between atoms: C_11  and  N_12 
REMARK       I    between atoms: N_12  and  C_13 
REMARK    3  A    between atoms: C_13  and  C_14 
REMARK    4  A    between atoms: C_14  and  N_15 
REMARK    5  A    between atoms: N_15  and  C_16 
REMARK    6  A    between atoms: C_17  and  O_18 
REMARK    7  A    between atoms: C_22  and  N_23 
REMARK       I    between atoms: N_23  and  C_24 
ROOT
HETATM    1  N   UNL     1       9.841  -9.140  -1.020  1.00  0.00    -0.325 N 
HETATM    2  C   UNL     1       9.795  -7.782  -0.926  1.00  0.00     0.244 C 
HETATM    3  O   UNL     1       9.184  -7.223  -1.852  1.00  0.00    -0.271 OA
HETATM    4  H   UNL     1       9.297  -9.425  -1.827  1.00  0.00     0.169 HD
ENDROOT
BRANCH   2   5
HETATM    5  C   UNL     1      10.444  -6.946   0.186  1.00  0.00     0.170 C 
HETATM    6  C   UNL     1      10.164  -5.452  -0.010  1.00  0.00     0.042 C 
BRANCH   5   7
HETATM    7  N   UNL     1      10.131  -7.301   1.575  1.00  0.00    -0.375 N 
HETATM    8  H   UNL     1      10.756  -6.850   2.246  1.00  0.00     0.160 HD
BRANCH   7   9
HETATM    9  C   UNL     1       8.896  -7.512   2.181  1.00  0.00     0.064 A 
HETATM   10  C   UNL     1       8.852  -7.489   3.598  1.00  0.00     0.094 A 
HETATM   11  C   UNL     1       7.687  -7.842   4.279  1.00  0.00     0.041 A 
HETATM   12  C   UNL     1       6.553  -8.246   3.568  1.00  0.00     0.032 A 
HETATM   13  C   UNL     1       6.573  -8.291   2.178  1.00  0.00     0.037 A 
HETATM   14  C   UNL     1       7.734  -7.886   1.499  1.00  0.00     0.061 A 
BRANCH  10  15
HETATM   15  O   UNL     1      10.025  -7.094   4.208  1.00  0.00    -0.354 OA
HETATM   16  C   UNL     1       9.971  -6.839   5.605  1.00  0.00     0.210 C 
ENDBRANCH  10  15
BRANCH  13  17
HETATM   17  N   UNL     1       5.488  -8.698   1.381  1.00  0.00    -0.327 N 
HETATM   18  C   UNL     1       4.375  -9.442   1.639  1.00  0.00     0.218 C 
HETATM   19  C   UNL     1       4.217 -10.187   2.934  1.00  0.00     0.117 C 
HETATM   20  O   UNL     1       3.514  -9.535   0.760  1.00  0.00    -0.274 OA
HETATM   21  H   UNL     1       5.525  -8.430   0.403  1.00  0.00     0.169 HD
ENDBRANCH  13  17
ENDBRANCH   7   9
ENDBRANCH   5   7
ENDBRANCH   2   5
BRANCH   1  22
HETATM   22  C   UNL     1      10.342 -10.192  -0.242  1.00  0.00     0.034 A 
HETATM   23  C   UNL     1      11.190 -10.081   0.853  1.00  0.00     0.030 A 
HETATM   24  C   UNL     1      11.540 -11.214   1.612  1.00  0.00     0.016 A 
HETATM   25  C   UNL     1      11.070 -12.490   1.275  1.00  0.00    -0.000 A 
HETATM   26  C   UNL     1      10.277 -12.602   0.126  1.00  0.00     0.016 A 
HETATM   27  C   UNL     1       9.920 -11.474  -0.618  1.00  0.00     0.030 A 
BRANCH  25  28
HETATM   28  C   UNL     1      11.350 -13.711   2.057  1.00  0.00     0.109 A 
HETATM   29  N   UNL     1      11.140 -14.929   1.598  1.00  0.00    -0.240 NA
HETATM   30  C   UNL     1      11.409 -15.873   2.571  1.00  0.00     0.075 A 
HETATM   31  C   UNL     1      11.838 -15.362   3.794  1.00  0.00     0.036 A 
HETATM   32  C   UNL     1      11.276 -17.267   2.426  1.00  0.00     0.033 A 
HETATM   33  C   UNL     1      12.137 -16.199   4.885  1.00  0.00     0.028 A 
HETATM   34  S   UNL     1      11.908 -13.647   3.686  1.00  0.00    -0.067 SA
HETATM   35  C   UNL     1      11.992 -17.587   4.728  1.00  0.00    -0.061 A 
HETATM   36  C   UNL     1      12.296 -18.519   5.866  1.00  0.00     0.048 C 
HETATM   37  C   UNL     1      11.569 -18.110   3.504  1.00  0.00     0.009 A 
ENDBRANCH  25  28
ENDBRANCH   1  22
TORSDOF 7
