REMARK  4 active torsions:
REMARK  status: ('A' for Active; 'I' for Inactive)
REMARK    1  A    between atoms: C_9  and  C_10 
REMARK       I    between atoms: C_10  and  N_11 
REMARK    2  A    between atoms: N_11  and  C_12 
REMARK    3  A    between atoms: C_13  and  N_14 
REMARK    4  A    between atoms: C_17  and  O_18 
ROOT
HETATM    1  C   UNL     1       0.767   4.350   2.036  1.00  0.00     0.257 C 
HETATM    2  N   UNL     1      -0.297   4.355   1.175  1.00  0.00    -0.321 N 
HETATM    3  O   UNL     1       1.652   5.199   1.914  1.00  0.00    -0.267 OA
HETATM    4  H   UNL     1      -0.396   5.228   0.675  1.00  0.00     0.169 HD
ENDROOT
BRANCH   2   5
HETATM    5  C   UNL     1      -1.250   3.348   0.911  1.00  0.00     0.061 C 
HETATM    6  C   UNL     1      -0.944   1.963   0.839  1.00  0.00     0.057 C 
HETATM    7  C   UNL     1      -2.037   1.085   0.713  1.00  0.00     0.031 C 
HETATM    8  C   UNL     1      -3.350   1.547   0.564  1.00  0.00     0.002 C 
HETATM    9  C   UNL     1      -3.608   2.910   0.531  1.00  0.00     0.002 C 
HETATM   10  C   UNL     1      -2.559   3.808   0.694  1.00  0.00     0.032 C 
BRANCH   6  11
HETATM   11  N   UNL     1       0.371   1.488   0.795  1.00  0.00    -0.379 N 
HETATM   12  C   UNL     1       0.720   0.131   1.240  1.00  0.00     0.125 C 
HETATM   13  C   UNL     1       0.797  -0.855   0.075  1.00  0.00     0.051 C 
HETATM   14  C   UNL     1       1.688  -0.335  -1.050  1.00  0.00     0.121 C 
HETATM   15  C   UNL     1       1.275   1.071  -1.470  1.00  0.00     0.051 C 
HETATM   16  C   UNL     1       1.242   2.020  -0.274  1.00  0.00     0.125 C 
BRANCH  14  17
HETATM   17  O   UNL     1       3.054  -0.317  -0.640  1.00  0.00    -0.395 OA
HETATM   18  H   UNL     1       3.311  -1.227  -0.407  1.00  0.00     0.210 HD
ENDBRANCH  14  17
ENDBRANCH   6  11
ENDBRANCH   2   5
BRANCH   1  19
HETATM   19  C   UNL     1       0.766   3.441   3.214  1.00  0.00     0.050 A 
HETATM   20  C   UNL     1      -0.258   3.457   4.276  1.00  0.00     0.006 A 
HETATM   21  C   UNL     1      -1.334   4.355   4.300  1.00  0.00     0.015 A 
HETATM   22  C   UNL     1      -0.117   2.562   5.348  1.00  0.00     0.046 A 
HETATM   23  C   UNL     1      -2.255   4.338   5.352  1.00  0.00     0.001 A 
HETATM   24  C   UNL     1      -2.109   3.429   6.398  1.00  0.00     0.002 A 
HETATM   25  C   UNL     1      -1.037   2.539   6.399  1.00  0.00     0.030 A 
HETATM   26  N   UNL     1       0.982   1.696   5.386  1.00  0.00    -0.323 N 
HETATM   27  C   UNL     1       1.973   1.692   4.446  1.00  0.00     0.246 A 
HETATM   28  H   UNL     1       1.096   1.046   6.151  1.00  0.00     0.169 HD
HETATM   29  O   UNL     1       2.922   0.918   4.507  1.00  0.00    -0.268 OA
HETATM   30  C   UNL     1       1.848   2.655   3.336  1.00  0.00     0.092 A 
ENDBRANCH   1  19
TORSDOF 4
