REMARK  4 active torsions:
REMARK  status: ('A' for Active; 'I' for Inactive)
REMARK    1  A    between atoms: O_2  and  C_3 
REMARK    2  A    between atoms: N_9  and  N_10 
REMARK       I    between atoms: N_10  and  C_11 
REMARK    3  A    between atoms: C_11  and  C_12 
REMARK    4  A    between atoms: C_13  and  O_14 
ROOT
HETATM    1  C   UNL     1       3.594   0.959  -0.479  1.00  0.00     0.069 A 
HETATM    2  C   UNL     1       2.662   2.000  -0.417  1.00  0.00     0.053 A 
HETATM    3  C   UNL     1       3.143   3.299  -0.359  1.00  0.00     0.029 A 
HETATM    4  C   UNL     1       2.476   4.609  -0.286  1.00  0.00     0.157 A 
HETATM    5  C   UNL     1       3.602   5.656  -0.432  1.00  0.00     0.277 A 
HETATM    6  O   UNL     1       3.474   6.859  -0.478  1.00  0.00    -0.266 OA
HETATM    7  N   UNL     1       1.245   4.971  -0.113  1.00  0.00    -0.166 NA
HETATM    8  C   UNL     1       4.512   3.566  -0.437  1.00  0.00     0.048 A 
HETATM    9  N   UNL     1       4.770   4.930  -0.472  1.00  0.00    -0.321 N 
HETATM   10  C   UNL     1       5.449   2.558  -0.509  1.00  0.00     0.033 A 
HETATM   11  C   UNL     1       4.975   1.244  -0.516  1.00  0.00     0.039 A 
HETATM   12  H   UNL     1       5.676   5.366  -0.564  1.00  0.00     0.169 HD
ENDROOT
BRANCH   7  13
HETATM   13  N   UNL     1       0.310   4.036   0.205  1.00  0.00    -0.242 N 
HETATM   14  C   UNL     1      -1.038   4.344   0.098  1.00  0.00     0.274 C 
HETATM   15  O   UNL     1      -1.494   5.367  -0.411  1.00  0.00    -0.266 OA
HETATM   16  H   UNL     1       0.620   3.193   0.660  1.00  0.00     0.192 HD
BRANCH  14  17
HETATM   17  C   UNL     1      -2.001   3.307   0.569  1.00  0.00     0.068 A 
HETATM   18  C   UNL     1      -3.307   3.301   0.050  1.00  0.00     0.081 A 
HETATM   19  C   UNL     1      -4.223   2.320   0.427  1.00  0.00     0.039 A 
HETATM   20  C   UNL     1      -3.852   1.335   1.341  1.00  0.00     0.022 A 
HETATM   21  C   UNL     1      -2.568   1.350   1.882  1.00  0.00     0.012 A 
HETATM   22 BR   UNL     1      -2.064   0.022   3.130  1.00  0.00    -0.051 Br
HETATM   23  C   UNL     1      -1.644   2.331   1.512  1.00  0.00     0.039 A 
BRANCH  18  24
HETATM   24  O   UNL     1      -3.763   4.231  -0.846  1.00  0.00    -0.360 OA
HETATM   25  H   UNL     1      -3.085   4.943  -0.920  1.00  0.00     0.217 HD
ENDBRANCH  18  24
ENDBRANCH  14  17
ENDBRANCH   7  13
BRANCH   1  26
HETATM   26  O   UNL     1       3.296  -0.376  -0.522  1.00  0.00    -0.356 OA
HETATM   27  C   UNL     1       1.922  -0.742  -0.470  1.00  0.00     0.210 C 
ENDBRANCH   1  26
TORSDOF 4
