REMARK  6 active torsions:
REMARK  status: ('A' for Active; 'I' for Inactive)
REMARK    1  A    between atoms: C_2  and  S_3 
REMARK    2  A    between atoms: C_2  and  C_11 
REMARK    3  A    between atoms: S_3  and  C_4 
REMARK    4  A    between atoms: C_4  and  C_5 
REMARK       I    between atoms: C_11  and  N_12 
REMARK    5  A    between atoms: N_12  and  C_13 
REMARK    6  A    between atoms: C_15  and  C_16 
ROOT
HETATM    1  C   UNL     1       3.064   1.115   0.926  1.00  0.00     0.235 C 
HETATM    2  N   UNL     1       2.007   1.828   1.410  1.00  0.00    -0.326 N 
HETATM    3  O   UNL     1       4.178   1.427   1.370  1.00  0.00    -0.272 OA
HETATM    4  H   UNL     1       2.353   2.568   2.012  1.00  0.00     0.169 HD
ENDROOT
BRANCH   2   5
HETATM    5  C   UNL     1       0.612   1.801   1.237  1.00  0.00     0.035 A 
HETATM    6  C   UNL     1      -0.122   0.770   0.652  1.00  0.00     0.042 A 
HETATM    7  C   UNL     1      -1.522   0.851   0.519  1.00  0.00    -0.021 A 
HETATM    8  C   UNL     1      -2.188   1.986   0.990  1.00  0.00     0.012 A 
HETATM    9  C   UNL     1      -1.473   3.012   1.602  1.00  0.00     0.003 A 
HETATM   10  C   UNL     1      -0.086   2.914   1.730  1.00  0.00     0.029 A 
BRANCH   7  11
HETATM   11  C   UNL     1      -2.274  -0.226  -0.102  1.00  0.00     0.010 A 
HETATM   12  C   UNL     1      -3.460  -0.203  -0.873  1.00  0.00     0.152 A 
HETATM   13  N   UNL     1      -3.852  -1.420  -1.258  1.00  0.00    -0.187 NA
HETATM   14  N   UNL     1      -2.919  -2.231  -0.732  1.00  0.00    -0.289 N 
HETATM   15  H   UNL     1      -3.005  -3.230  -0.888  1.00  0.00     0.188 HD
HETATM   16  C   UNL     1      -1.955  -1.566  -0.030  1.00  0.00     0.123 A 
ENDBRANCH   7  11
ENDBRANCH   2   5
BRANCH   1  17
HETATM   17  C   UNL     1       2.932   0.019  -0.127  1.00  0.00     0.135 C 
HETATM   18  C   UNL     1       4.146   0.001  -1.058  1.00  0.00     0.031 C 
BRANCH  17  19
HETATM   19  S   UNL     1       2.700  -1.625   0.670  1.00  0.00    -0.150 SA
BRANCH  19  20
HETATM   20  C   UNL     1       4.216  -1.750   1.682  1.00  0.00     0.113 C 
BRANCH  20  21
HETATM   21  C   UNL     1       4.253  -3.056   2.440  1.00  0.00    -0.049 A 
HETATM   22  C   UNL     1       4.676  -4.236   1.811  1.00  0.00     0.008 A 
HETATM   23  C   UNL     1       4.710  -5.442   2.514  1.00  0.00     0.001 A 
HETATM   24  C   UNL     1       4.321  -5.481   3.851  1.00  0.00     0.000 A 
HETATM   25  C   UNL     1       3.892  -4.317   4.486  1.00  0.00     0.001 A 
HETATM   26  C   UNL     1       3.854  -3.111   3.784  1.00  0.00     0.008 A 
ENDBRANCH  20  21
ENDBRANCH  19  20
ENDBRANCH  17  19
ENDBRANCH   1  17
TORSDOF 6
