REMARK  6 active torsions:
REMARK  status: ('A' for Active; 'I' for Inactive)
REMARK    1  A    between atoms: C_3  and  C_4 
REMARK       I    between atoms: C_4  and  N_5 
REMARK    2  A    between atoms: N_5  and  C_6 
REMARK    3  A    between atoms: C_6  and  C_7 
REMARK    4  A    between atoms: C_7  and  N_8 
REMARK    5  A    between atoms: C_7  and  C_14 
REMARK    6  A    between atoms: C_21  and  C_22 
ROOT
HETATM    1  C   UNL     1      -2.267   1.375   3.332  1.00  0.00     0.272 C 
HETATM    2  N   UNL     1      -1.095   1.839   2.768  1.00  0.00    -0.354 N 
HETATM    3  O   UNL     1      -3.282   1.233   2.648  1.00  0.00    -0.266 OA
HETATM    4  H   UNL     1      -0.347   1.995   3.447  1.00  0.00     0.162 HD
ENDROOT
BRANCH   1   5
HETATM    5  C   UNL     1      -2.144   1.034   4.756  1.00  0.00     0.152 A 
HETATM    6  C   UNL     1      -3.154   0.562   5.648  1.00  0.00     0.003 A 
HETATM    7  C   UNL     1      -4.582   0.303   5.330  1.00  0.00     0.053 C 
HETATM    8  C   UNL     1      -2.507   0.405   6.865  1.00  0.00     0.069 A 
HETATM    9  N   UNL     1      -1.209   0.781   6.642  1.00  0.00    -0.276 N 
HETATM   10  N   UNL     1      -0.953   1.151   5.375  1.00  0.00    -0.168 NA
HETATM   11  H   UNL     1      -0.457   0.816   7.323  1.00  0.00     0.189 HD
BRANCH   8  12
HETATM   12  C   UNL     1      -2.975  -0.018   8.181  1.00  0.00    -0.007 A 
HETATM   13  C   UNL     1      -4.094   0.586   8.766  1.00  0.00     0.014 A 
HETATM   14  C   UNL     1      -4.535   0.189  10.030  1.00  0.00     0.001 A 
HETATM   15  C   UNL     1      -3.860  -0.815  10.721  1.00  0.00     0.000 A 
HETATM   16  C   UNL     1      -2.745  -1.425  10.148  1.00  0.00     0.001 A 
HETATM   17  C   UNL     1      -2.303  -1.028   8.884  1.00  0.00     0.014 A 
ENDBRANCH   8  12
ENDBRANCH   1   5
BRANCH   2  18
HETATM   18  C   UNL     1      -1.085   2.509   1.487  1.00  0.00     0.156 C 
BRANCH  18  19
HETATM   19  C   UNL     1      -0.927   1.574   0.250  1.00  0.00     0.209 C 
BRANCH  19  20
HETATM   20  N   UNL     1      -2.015   0.481   0.288  1.00  0.00    -0.065 N 
HETATM   21  H   UNL     1      -2.744   0.869   0.923  1.00  0.00     0.280 HD
HETATM   22  C   UNL     1      -1.736  -0.873   0.919  1.00  0.00     0.235 C 
HETATM   23  C   UNL     1      -2.074  -1.883  -0.161  1.00  0.00     0.029 C 
HETATM   24  C   UNL     1      -3.187  -1.208  -0.936  1.00  0.00     0.029 C 
HETATM   25  C   UNL     1      -2.737   0.237  -1.018  1.00  0.00     0.235 C 
ENDBRANCH  19  20
BRANCH  19  26
HETATM   26  C   UNL     1       0.515   1.031   0.013  1.00  0.00     0.010 C 
HETATM   27  C   UNL     1       0.686   0.432  -1.389  1.00  0.00     0.011 C 
HETATM   28  C   UNL     1       1.589   2.118   0.183  1.00  0.00     0.011 C 
ENDBRANCH  19  26
ENDBRANCH  18  19
ENDBRANCH   2  18
TORSDOF 6
