REMARK  5 active torsions:
REMARK  status: ('A' for Active; 'I' for Inactive)
REMARK    1  A    between atoms: C_2  and  O_3 
REMARK    2  A    between atoms: O_3  and  C_4 
REMARK    3  A    between atoms: C_8  and  C_9 
REMARK    4  A    between atoms: C_9  and  N_10 
REMARK       I    between atoms: N_10  and  C_11 
REMARK    5  A    between atoms: C_11  and  C_12 
ROOT
HETATM    1  C   UNL     1       2.754  -0.930  -6.099  1.00  0.00     0.161 C 
ENDROOT
BRANCH   1   2
HETATM    2  C   UNL     1       2.659  -1.401  -4.676  1.00  0.00    -0.035 A 
HETATM    3  C   UNL     1       2.383  -2.740  -4.389  1.00  0.00     0.028 A 
HETATM    4  C   UNL     1       2.274  -3.124  -3.063  1.00  0.00     0.120 A 
HETATM    5  N   UNL     1       2.409  -2.277  -2.021  1.00  0.00    -0.237 NA
HETATM    6  C   UNL     1       2.670  -0.990  -2.313  1.00  0.00     0.165 A 
HETATM    7  C   UNL     1       2.806  -0.511  -3.608  1.00  0.00     0.066 A 
BRANCH   6   8
HETATM    8  O   UNL     1       2.848  -0.064  -1.312  1.00  0.00    -0.324 OA
BRANCH   8   9
HETATM    9  C   UNL     1       2.487  -0.388   0.044  1.00  0.00     0.058 C 
HETATM   10  C   UNL     1       3.380  -1.475   0.661  1.00  0.00     0.045 C 
HETATM   11  C   UNL     1       0.992  -0.708   0.190  1.00  0.00     0.045 C 
HETATM   12  C   UNL     1       2.759   0.920   0.814  1.00  0.00     0.045 C 
ENDBRANCH   8   9
ENDBRANCH   6   8
ENDBRANCH   1   2
BRANCH   1  13
HETATM   13  N   UNL     1       1.441  -0.844  -6.692  1.00  0.00    -0.353 N 
HETATM   14  C   UNL     1       1.284  -0.776  -8.056  1.00  0.00     0.253 C 
HETATM   15  O   UNL     1       2.207  -0.916  -8.850  1.00  0.00    -0.268 OA
HETATM   16  H   UNL     1       0.662  -0.606  -6.092  1.00  0.00     0.163 HD
BRANCH  14  17
HETATM   17  C   UNL     1      -0.102  -0.593  -8.558  1.00  0.00     0.049 A 
HETATM   18  C   UNL     1      -1.023   0.330  -8.046  1.00  0.00     0.026 A 
HETATM   19 BR   UNL     1      -0.615   1.566  -6.661  1.00  0.00    -0.050 Br
HETATM   20  C   UNL     1      -2.310   0.406  -8.594  1.00  0.00     0.020 A 
HETATM   21  C   UNL     1      -2.679  -0.425  -9.654  1.00  0.00     0.001 A 
HETATM   22  C   UNL     1      -1.761  -1.331 -10.179  1.00  0.00     0.001 A 
HETATM   23  C   UNL     1      -0.478  -1.411  -9.637  1.00  0.00     0.018 A 
ENDBRANCH  14  17
ENDBRANCH   1  13
TORSDOF 5
