REMARK  3 active torsions:
REMARK  status: ('A' for Active; 'I' for Inactive)
REMARK    1  A    between atoms: C_9  and  C_10 
REMARK    2  A    between atoms: C_16  and  C_17 
REMARK       I    between atoms: C_17  and  N_18 
REMARK    3  A    between atoms: N_18  and  C_19 
ROOT
HETATM    1  C   UNL     1       1.099   0.195   0.844  1.00  0.00     0.070 C 
HETATM    2  C   UNL     1       2.448  -0.017   0.207  1.00  0.00     0.037 A 
HETATM    3  N   UNL     1       3.079   1.127  -0.269  1.00  0.00    -0.192 N 
HETATM    4  C   UNL     1       4.357   1.137  -0.697  1.00  0.00     0.725 A 
HETATM    5  N   UNL     1       5.045  -0.043  -0.791  1.00  0.00    -0.082 N 
HETATM    6  N   UNL     1       6.346   0.174  -1.094  1.00  0.00    -0.149 NA
HETATM    7  C   UNL     1       6.342   1.502  -1.254  1.00  0.00     0.275 A 
HETATM    8  N   UNL     1       5.147   2.130  -1.015  1.00  0.00    -0.054 NA
HETATM    9  C   UNL     1       4.480  -1.352  -0.462  1.00  0.00     0.221 A 
HETATM   10  C   UNL     1       3.081  -1.212   0.122  1.00  0.00     0.064 A 
HETATM   11  H   UNL     1       2.610   2.018  -0.132  1.00  0.00     0.184 HD
ENDROOT
BRANCH  10  12
HETATM   12  C   UNL     1       2.522  -2.486   0.633  1.00  0.00     0.256 C 
HETATM   13  N   UNL     1       1.331  -2.834   0.041  1.00  0.00    -0.322 N 
HETATM   14  H   UNL     1       1.014  -2.246  -0.722  1.00  0.00     0.169 HD
HETATM   15  O   UNL     1       3.153  -3.118   1.470  1.00  0.00    -0.267 OA
BRANCH  13  16
HETATM   16  C   UNL     1       0.529  -3.949   0.358  1.00  0.00     0.052 A 
HETATM   17  C   UNL     1       0.834  -4.909   1.319  1.00  0.00     0.145 A 
HETATM   18  N   UNL     1       0.034  -5.966   1.621  1.00  0.00    -0.271 NA
HETATM   19  C   UNL     1      -1.124  -6.070   0.938  1.00  0.00     0.116 A 
HETATM   20  C   UNL     1      -1.520  -5.170  -0.035  1.00  0.00     0.021 A 
HETATM   21  C   UNL     1      -0.678  -4.099  -0.330  1.00  0.00     0.032 A 
ENDBRANCH  13  16
ENDBRANCH  10  12
BRANCH   9  22
HETATM   22  C   UNL     1       4.509  -2.233  -1.707  1.00  0.00     0.064 A 
HETATM   23  N   UNL     1       3.417  -2.236  -2.526  1.00  0.00    -0.263 NA
HETATM   24  C   UNL     1       3.477  -3.002  -3.639  1.00  0.00     0.117 A 
HETATM   25  C   UNL     1       4.567  -3.781  -3.984  1.00  0.00     0.019 A 
HETATM   26  C   UNL     1       5.671  -3.774  -3.141  1.00  0.00     0.003 A 
HETATM   27  C   UNL     1       5.647  -2.991  -1.991  1.00  0.00     0.030 A 
ENDBRANCH   9  22
TORSDOF 3
