REMARK  3 active torsions:
REMARK  status: ('A' for Active; 'I' for Inactive)
REMARK    1  A    between atoms: C_7  and  C_8 
REMARK    2  A    between atoms: N_9  and  C_11 
REMARK    3  A    between atoms: C_11  and  C_12 
ROOT
HETATM    1  C   UNL     1      -3.882   0.197  -0.504  1.00  0.00     0.238 C 
HETATM    2  N   UNL     1      -4.898   0.954   0.339  1.00  0.00    -0.056 N 
HETATM    3  H   UNL     1      -5.805   0.748  -0.094  1.00  0.00     0.281 HD
HETATM    4  C   UNL     1      -4.761   2.455   0.299  1.00  0.00     0.236 C 
HETATM    5  C   UNL     1      -4.793   2.950  -1.137  1.00  0.00     0.028 C 
HETATM    6  C   UNL     1      -3.729   2.281  -1.992  1.00  0.00     0.004 C 
HETATM    7  C   UNL     1      -3.857   0.764  -1.930  1.00  0.00     0.040 C 
ENDROOT
BRANCH   2   8
HETATM    8  C   UNL     1      -5.016   0.458   1.768  1.00  0.00     0.295 C 
BRANCH   8   9
HETATM    9  C   UNL     1      -5.416  -0.959   1.851  1.00  0.00     0.077 A 
HETATM   10  N   UNL     1      -4.716  -1.949   2.521  1.00  0.00    -0.155 N 
HETATM   11  C   UNL     1      -5.387  -3.152   2.289  1.00  0.00     0.732 A 
HETATM   12  C   UNL     1      -3.553  -1.901   3.284  1.00  0.00     0.117 A 
HETATM   13  N   UNL     1      -4.907  -4.331   2.774  1.00  0.00    -0.074 NA
HETATM   14  N   UNL     1      -6.469  -2.940   1.573  1.00  0.00    -0.072 NA
HETATM   15  C   UNL     1      -3.827  -4.267   3.489  1.00  0.00     0.138 A 
HETATM   16  C   UNL     1      -3.056  -3.033   3.803  1.00  0.00     0.038 A 
HETATM   17  C   UNL     1      -6.527  -1.601   1.343  1.00  0.00     0.164 A 
ENDBRANCH   8   9
ENDBRANCH   2   8
BRANCH   1  18
HETATM   18  C   UNL     1      -2.523   0.087   0.113  1.00  0.00     0.041 A 
HETATM   19  N   UNL     1      -1.933  -1.149   0.301  1.00  0.00    -0.357 N 
HETATM   20  C   UNL     1      -0.732  -1.020   0.957  1.00  0.00     0.042 A 
HETATM   21  H   UNL     1      -2.322  -2.045   0.028  1.00  0.00     0.166 HD
HETATM   22  C   UNL     1      -0.498   0.342   1.122  1.00  0.00    -0.008 A 
HETATM   23  C   UNL     1       0.166  -1.999   1.395  1.00  0.00     0.030 A 
HETATM   24  C   UNL     1       0.691   0.757   1.749  1.00  0.00     0.014 A 
HETATM   25  C   UNL     1      -1.612   1.026   0.565  1.00  0.00     0.040 A 
HETATM   26  C   UNL     1       1.599  -0.208   2.198  1.00  0.00     0.001 A 
HETATM   27  C   UNL     1       1.337  -1.565   2.023  1.00  0.00     0.002 A 
ENDBRANCH   1  18
TORSDOF 3
