REMARK  2 active torsions:
REMARK  status: ('A' for Active; 'I' for Inactive)
REMARK    1  A    between atoms: N_3  and  C_4 
REMARK    2  A    between atoms: C_12  and  C_13 
REMARK       I    between atoms: C_13  and  N_14 
ROOT
HETATM    1  C   UNL     1       2.527  -2.241   0.042  1.00  0.00     0.262 C 
HETATM    2  N   UNL     1       1.232  -2.781   0.168  1.00  0.00    -0.311 N 
HETATM    3  C   UNL     1       0.258  -2.397   1.131  1.00  0.00     0.064 A 
HETATM    4  C   UNL     1      -0.680  -3.299   1.671  1.00  0.00     0.061 A 
HETATM    5  C   UNL     1      -1.602  -2.823   2.626  1.00  0.00     0.032 A 
HETATM    6  C   UNL     1      -1.625  -1.487   3.022  1.00  0.00     0.002 A 
HETATM    7  C   UNL     1      -0.729  -0.592   2.462  1.00  0.00     0.002 A 
HETATM    8  C   UNL     1       0.198  -1.042   1.522  1.00  0.00     0.032 A 
HETATM    9  N   UNL     1      -0.800  -4.677   1.400  1.00  0.00    -0.325 N 
HETATM   10  C   UNL     1      -0.210  -5.539   0.538  1.00  0.00     0.227 C 
HETATM   11  O   UNL     1      -0.589  -6.716   0.579  1.00  0.00    -0.273 OA
HETATM   12  C   UNL     1       0.895  -5.152  -0.408  1.00  0.00     0.092 C 
HETATM   13  C   UNL     1       2.251  -5.531   0.181  1.00  0.00     0.021 C 
HETATM   14  C   UNL     1       0.783  -3.711  -0.860  1.00  0.00     0.146 C 
HETATM   15  O   UNL     1       3.140  -2.296  -1.025  1.00  0.00    -0.267 OA
HETATM   16  H   UNL     1      -1.510  -5.172   1.931  1.00  0.00     0.169 HD
ENDROOT
BRANCH   1  17
HETATM   17  C   UNL     1       3.204  -1.711   1.230  1.00  0.00     0.075 C 
HETATM   18  C   UNL     1       4.250  -0.788   1.237  1.00  0.00     0.050 C 
HETATM   19  C   UNL     1       4.815  -0.032   0.085  1.00  0.00     0.071 C 
HETATM   20  N   UNL     1       4.654  -0.650   2.562  1.00  0.00    -0.238 N 
HETATM   21  N   UNL     1       3.812  -1.316   3.395  1.00  0.00    -0.179 NA
HETATM   22  C   UNL     1       3.021  -2.019   2.590  1.00  0.00     0.158 C 
BRANCH  20  23
HETATM   23  C   UNL     1       5.762   0.045   3.129  1.00  0.00     0.061 A 
HETATM   24  C   UNL     1       5.728   0.374   4.490  1.00  0.00     0.051 A 
HETATM   25  C   UNL     1       6.806   1.048   5.036  1.00  0.00     0.118 A 
HETATM   26  N   UNL     1       7.906   1.393   4.335  1.00  0.00    -0.273 NA
HETATM   27  C   UNL     1       7.931   1.037   3.034  1.00  0.00     0.118 A 
HETATM   28  C   UNL     1       6.899   0.370   2.391  1.00  0.00     0.051 A 
ENDBRANCH  20  23
ENDBRANCH   1  17
TORSDOF 2
