REMARK  7 active torsions:
REMARK  status: ('A' for Active; 'I' for Inactive)
REMARK    1  A    between atoms: C_2  and  C_3 
REMARK       I    between atoms: C_3  and  N_4 
REMARK    2  A    between atoms: N_4  and  N_5 
REMARK       I    between atoms: N_5  and  C_6 
REMARK    3  A    between atoms: C_6  and  C_7 
REMARK    4  A    between atoms: C_7  and  C_8 
REMARK    5  A    between atoms: C_8  and  C_9 
REMARK       I    between atoms: C_9  and  N_10 
REMARK    6  A    between atoms: N_10  and  C_11 
REMARK    7  A    between atoms: C_11  and  C_12 
ROOT
HETATM    1  C   UNL     1       5.541   2.751  -0.590  1.00  0.00     0.114 C 
ENDROOT
BRANCH   1   2
HETATM    2  C   UNL     1       6.651   2.358   0.355  1.00  0.00     0.236 C 
HETATM    3  N   UNL     1       6.290   1.471   1.341  1.00  0.00    -0.267 N 
HETATM    4  H   UNL     1       5.320   1.261   1.577  1.00  0.00     0.190 HD
HETATM    5  O   UNL     1       7.778   2.848   0.274  1.00  0.00    -0.272 OA
BRANCH   3   6
HETATM    6  N   UNL     1       7.237   1.170   2.328  1.00  0.00    -0.263 N 
HETATM    7  C   UNL     1       6.775   0.776   3.568  1.00  0.00     0.270 C 
HETATM    8  O   UNL     1       5.578   0.647   3.814  1.00  0.00    -0.266 OA
HETATM    9  H   UNL     1       8.178   1.526   2.169  1.00  0.00     0.190 HD
BRANCH   7  10
HETATM   10  C   UNL     1       7.806   0.527   4.615  1.00  0.00     0.033 A 
HETATM   11  C   UNL     1       7.415   0.580   5.961  1.00  0.00     0.018 A 
HETATM   12  C   UNL     1       8.342   0.328   6.976  1.00  0.00     0.020 A 
HETATM   13  C   UNL     1       9.659   0.014   6.646  1.00  0.00     0.011 A 
HETATM   14  C   UNL     1      10.057  -0.053   5.311  1.00  0.00     0.020 A 
HETATM   15 BR   UNL     1      10.912  -0.340   8.016  1.00  0.00    -0.051 Br
HETATM   16  C   UNL     1       9.131   0.200   4.294  1.00  0.00     0.018 A 
ENDBRANCH   7  10
ENDBRANCH   3   6
ENDBRANCH   1   2
BRANCH   1  17
HETATM   17  C   UNL     1       4.951   4.089  -0.172  1.00  0.00     0.112 C 
BRANCH  17  18
HETATM   18  C   UNL     1       5.642   5.263  -0.838  1.00  0.00     0.218 C 
HETATM   19  N   UNL     1       6.948   5.448  -0.464  1.00  0.00    -0.357 N 
HETATM   20  H   UNL     1       7.460   4.678  -0.036  1.00  0.00     0.162 HD
HETATM   21  O   UNL     1       5.045   6.010  -1.608  1.00  0.00    -0.274 OA
BRANCH  19  22
HETATM   22  C   UNL     1       7.744   6.531  -0.991  1.00  0.00     0.161 C 
BRANCH  22  23
HETATM   23  C   UNL     1       8.866   6.860  -0.039  1.00  0.00    -0.038 A 
HETATM   24  C   UNL     1      10.203   6.640  -0.402  1.00  0.00     0.048 A 
HETATM   25  C   UNL     1      11.183   6.935   0.523  1.00  0.00     0.105 A 
HETATM   26  C   UNL     1      10.880   7.430   1.770  1.00  0.00     0.105 A 
HETATM   27  O   UNL     1      12.522   6.779   0.339  1.00  0.00    -0.323 OA
HETATM   28  O   UNL     1      11.989   7.645   2.528  1.00  0.00    -0.323 OA
HETATM   29  C   UNL     1       9.582   7.662   2.163  1.00  0.00     0.040 A 
HETATM   30  C   UNL     1      13.026   7.237   1.611  1.00  0.00     0.352 A 
HETATM   31  C   UNL     1       8.567   7.375   1.246  1.00  0.00     0.012 A 
ENDBRANCH  22  23
ENDBRANCH  19  22
ENDBRANCH  17  18
ENDBRANCH   1  17
TORSDOF 7
