REMARK  8 active torsions:
REMARK  status: ('A' for Active; 'I' for Inactive)
REMARK    1  A    between atoms: C_2  and  C_3 
REMARK    2  A    between atoms: N_4  and  C_5 
REMARK    3  A    between atoms: C_5  and  C_6 
REMARK    4  A    between atoms: C_14  and  C_15 
REMARK       I    between atoms: C_15  and  N_16 
REMARK    5  A    between atoms: N_16  and  N_17 
REMARK       I    between atoms: N_17  and  C_18 
REMARK    6  A    between atoms: C_18  and  C_19 
REMARK    7  A    between atoms: C_23  and  C_24 
REMARK    8  A    between atoms: C_27  and  O_28 
ROOT
HETATM    1  C   UNL     1       4.278  -0.123  -2.659  1.00  0.00     0.273 C 
HETATM    2  N   UNL     1       4.040  -1.383  -2.156  1.00  0.00    -0.263 N 
HETATM    3  O   UNL     1       4.918   0.025  -3.702  1.00  0.00    -0.266 OA
HETATM    4  H   UNL     1       3.463  -1.582  -1.348  1.00  0.00     0.190 HD
ENDROOT
BRANCH   2   5
HETATM    5  N   UNL     1       4.536  -2.487  -2.863  1.00  0.00    -0.262 N 
HETATM    6  C   UNL     1       4.467  -3.738  -2.291  1.00  0.00     0.288 C 
HETATM    7  O   UNL     1       3.920  -3.924  -1.204  1.00  0.00    -0.264 OA
HETATM    8  H   UNL     1       5.042  -2.283  -3.721  1.00  0.00     0.190 HD
BRANCH   6   9
HETATM    9  C   UNL     1       5.071  -4.797  -3.049  1.00  0.00     0.121 A 
HETATM   10  N   UNL     1       5.090  -6.086  -2.596  1.00  0.00    -0.272 N 
HETATM   11  H   UNL     1       4.710  -6.431  -1.720  1.00  0.00     0.189 HD
HETATM   12  N   UNL     1       5.671  -6.956  -3.434  1.00  0.00    -0.174 NA
HETATM   13  C   UNL     1       6.063  -6.213  -4.482  1.00  0.00     0.089 A 
HETATM   14  C   UNL     1       5.707  -4.849  -4.274  1.00  0.00     0.071 A 
BRANCH  13  15
HETATM   15  C   UNL     1       6.737  -6.809  -5.641  1.00  0.00    -0.005 A 
HETATM   16  C   UNL     1       6.669  -8.189  -5.870  1.00  0.00     0.016 A 
HETATM   17  C   UNL     1       7.285  -8.760  -6.988  1.00  0.00     0.037 A 
HETATM   18  C   UNL     1       7.984  -7.967  -7.898  1.00  0.00     0.068 A 
HETATM   19  C   UNL     1       8.074  -6.594  -7.671  1.00  0.00     0.037 A 
HETATM   20  C   UNL     1       7.454  -6.020  -6.552  1.00  0.00     0.016 A 
BRANCH  18  21
HETATM   21  O   UNL     1       8.530  -8.647  -8.951  1.00  0.00    -0.356 OA
HETATM   22  C   UNL     1       9.164  -7.870  -9.959  1.00  0.00     0.210 C 
ENDBRANCH  18  21
ENDBRANCH  13  15
ENDBRANCH   6   9
ENDBRANCH   2   5
BRANCH   1  23
HETATM   23  C   UNL     1       3.733   1.012  -1.926  1.00  0.00     0.077 A 
HETATM   24  C   UNL     1       3.133   1.139  -0.671  1.00  0.00     0.048 A 
HETATM   25  N   UNL     1       2.843   2.488  -0.537  1.00  0.00    -0.269 N 
HETATM   26  N   UNL     1       3.228   3.223  -1.599  1.00  0.00    -0.183 NA
HETATM   27  C   UNL     1       3.759   2.334  -2.430  1.00  0.00     0.158 A 
BRANCH  24  28
HETATM   28  C   UNL     1       2.831   0.148   0.410  1.00  0.00     0.055 C 
HETATM   29  C   UNL     1       1.486  -0.534   0.208  1.00  0.00     0.011 C 
ENDBRANCH  24  28
BRANCH  25  30
HETATM   30  C   UNL     1       2.270   3.198   0.608  1.00  0.00     0.189 C 
BRANCH  30  31
HETATM   31  C   UNL     1       0.764   3.109   0.678  1.00  0.00    -0.038 A 
HETATM   32  C   UNL     1       0.135   2.857   1.907  1.00  0.00     0.009 A 
HETATM   33  C   UNL     1      -1.259   2.823   1.999  1.00  0.00     0.001 A 
HETATM   34  C   UNL     1      -2.039   3.049   0.867  1.00  0.00     0.000 A 
HETATM   35  C   UNL     1      -1.429   3.316  -0.355  1.00  0.00     0.001 A 
HETATM   36  C   UNL     1      -0.037   3.355  -0.449  1.00  0.00     0.009 A 
ENDBRANCH  30  31
ENDBRANCH  25  30
ENDBRANCH   1  23
TORSDOF 8
