REMARK  5 active torsions:
REMARK  status: ('A' for Active; 'I' for Inactive)
REMARK    1  A    between atoms: C_2  and  C_3 
REMARK    2  A    between atoms: C_8  and  N_9 
REMARK       I    between atoms: N_9  and  C_10 
REMARK       I    between atoms: C_10  and  N_11 
REMARK    3  A    between atoms: N_11  and  C_12 
REMARK    4  A    between atoms: C_12  and  C_13 
REMARK    5  A    between atoms: C_13  and  C_14 
ROOT
HETATM    1  N   UNL     1       4.024  -2.492   2.616  1.00  0.00    -0.305 N 
HETATM    2  C   UNL     1       4.331  -1.475   1.745  1.00  0.00     0.320 C 
HETATM    3  N   UNL     1       3.605  -1.599   0.577  1.00  0.00    -0.343 N 
HETATM    4  O   UNL     1       5.101  -0.547   1.944  1.00  0.00    -0.247 OA
HETATM    5  H   UNL     1       3.137  -2.946   2.452  1.00  0.00     0.171 HD
HETATM    6  H   UNL     1       3.406  -2.547   0.291  1.00  0.00     0.164 HD
ENDROOT
BRANCH   3   7
HETATM    7  C   UNL     1       3.771  -0.618  -0.482  1.00  0.00     0.129 C 
BRANCH   7   8
HETATM    8  C   UNL     1       2.770  -0.801  -1.628  1.00  0.00     0.058 C 
BRANCH   8   9
HETATM    9  C   UNL     1       1.296  -0.701  -1.298  1.00  0.00    -0.056 A 
HETATM   10  C   UNL     1       0.803  -0.043  -0.162  1.00  0.00     0.019 A 
HETATM   11  C   UNL     1      -0.579   0.052   0.092  1.00  0.00    -0.025 A 
HETATM   12  C   UNL     1      -1.492  -0.513  -0.825  1.00  0.00    -0.026 A 
HETATM   13  C   UNL     1      -1.071   0.701   1.236  1.00  0.00     0.012 A 
HETATM   14  C   UNL     1      -1.002  -1.156  -1.969  1.00  0.00     0.013 A 
HETATM   15  C   UNL     1      -2.871  -0.413  -0.575  1.00  0.00     0.012 A 
HETATM   16  C   UNL     1       0.373  -1.244  -2.203  1.00  0.00     0.008 A 
HETATM   17  C   UNL     1      -3.343   0.235   0.567  1.00  0.00     0.001 A 
HETATM   18  C   UNL     1      -2.444   0.791   1.472  1.00  0.00     0.001 A 
ENDBRANCH   8   9
ENDBRANCH   7   8
ENDBRANCH   3   7
BRANCH   1  19
HETATM   19  C   UNL     1       4.622  -2.722   3.846  1.00  0.00     0.095 A 
HETATM   20  C   UNL     1       4.068  -3.540   4.809  1.00  0.00     0.107 A 
HETATM   21  O   UNL     1       4.875  -3.571   5.899  1.00  0.00    -0.215 OA
HETATM   22  N   UNL     1       5.987  -2.792   5.673  1.00  0.00    -0.131 NA
HETATM   23  C   UNL     1       5.844  -2.287   4.438  1.00  0.00     0.087 A 
HETATM   24  C   UNL     1       6.935  -1.443   3.896  1.00  0.00     0.075 C 
BRANCH  20  25
HETATM   25  C   UNL     1       2.828  -4.348   4.905  1.00  0.00     0.065 C 
HETATM   26  C   UNL     1       1.598  -3.476   5.099  1.00  0.00     0.012 C 
ENDBRANCH  20  25
ENDBRANCH   1  19
TORSDOF 5
