REMARK  4 active torsions:
REMARK  status: ('A' for Active; 'I' for Inactive)
REMARK    1  A    between atoms: C_2  and  C_3 
REMARK    2  A    between atoms: C_8  and  N_9 
REMARK       I    between atoms: N_9  and  C_10 
REMARK       I    between atoms: C_10  and  N_11 
REMARK    3  A    between atoms: N_11  and  C_12 
REMARK    4  A    between atoms: C_12  and  C_13 
ROOT
HETATM    1  N   UNL     1       1.839  -3.957   0.019  1.00  0.00    -0.305 N 
HETATM    2  C   UNL     1       2.508  -2.808   0.356  1.00  0.00     0.321 C 
HETATM    3  N   UNL     1       2.361  -1.832  -0.611  1.00  0.00    -0.339 N 
HETATM    4  O   UNL     1       3.178  -2.622   1.362  1.00  0.00    -0.247 OA
HETATM    5  H   UNL     1       1.512  -4.019  -0.933  1.00  0.00     0.171 HD
HETATM    6  H   UNL     1       1.492  -1.837  -1.123  1.00  0.00     0.164 HD
ENDROOT
BRANCH   3   7
HETATM    7  C   UNL     1       2.922  -0.523  -0.344  1.00  0.00     0.162 C 
BRANCH   7   8
HETATM    8  C   UNL     1       2.910   0.372  -1.554  1.00  0.00    -0.040 A 
HETATM    9  C   UNL     1       3.549  -0.019  -2.742  1.00  0.00     0.021 A 
HETATM   10  C   UNL     1       3.628   0.845  -3.847  1.00  0.00    -0.025 A 
HETATM   11  C   UNL     1       3.054   2.133  -3.761  1.00  0.00    -0.026 A 
HETATM   12  C   UNL     1       4.282   0.465  -5.031  1.00  0.00     0.012 A 
HETATM   13  C   UNL     1       2.405   2.516  -2.578  1.00  0.00     0.013 A 
HETATM   14  C   UNL     1       3.156   3.008  -4.855  1.00  0.00     0.012 A 
HETATM   15  C   UNL     1       2.336   1.647  -1.486  1.00  0.00     0.010 A 
HETATM   16  C   UNL     1       3.815   2.617  -6.021  1.00  0.00     0.001 A 
HETATM   17  C   UNL     1       4.375   1.346  -6.110  1.00  0.00     0.001 A 
ENDBRANCH   7   8
ENDBRANCH   3   7
BRANCH   1  18
HETATM   18  C   UNL     1       1.703  -5.100   0.801  1.00  0.00     0.095 A 
HETATM   19  C   UNL     1       1.100  -6.257   0.343  1.00  0.00     0.107 A 
HETATM   20  O   UNL     1       1.093  -7.189   1.329  1.00  0.00    -0.215 OA
HETATM   21  N   UNL     1       1.693  -6.679   2.453  1.00  0.00    -0.131 NA
HETATM   22  C   UNL     1       2.059  -5.425   2.146  1.00  0.00     0.087 A 
HETATM   23  C   UNL     1       2.724  -4.628   3.204  1.00  0.00     0.075 C 
BRANCH  19  24
HETATM   24  C   UNL     1       0.477  -6.688  -0.932  1.00  0.00     0.065 C 
HETATM   25  C   UNL     1       1.327  -7.723  -1.652  1.00  0.00     0.012 C 
ENDBRANCH  19  24
ENDBRANCH   1  18
TORSDOF 4
