REMARK  10 active torsions:
REMARK  status: ('A' for Active; 'I' for Inactive)
REMARK    1  A    between atoms: O_2  and  C_3 
REMARK    2  A    between atoms: C_3  and  C_4 
REMARK    3  A    between atoms: C_11  and  N_12 
REMARK    4  A    between atoms: N_12  and  C_13 
REMARK    5  A    between atoms: C_13  and  N_14 
REMARK    6  A    between atoms: N_14  and  N_15 
REMARK       I    between atoms: N_15  and  C_16 
REMARK    7  A    between atoms: C_16  and  C_17 
REMARK    8  A    between atoms: C_17  and  S_18 
REMARK    9  A    between atoms: S_18  and  C_19 
REMARK   10  A    between atoms: C_19  and  C_20 
ROOT
HETATM    1  C   UNL     1      -1.198   7.157  -4.282  1.00  0.00     0.191 C 
HETATM    2  S   UNL     1      -2.713   7.466  -4.932  1.00  0.00    -0.039 SA
ENDROOT
BRANCH   1   3
HETATM    3  N   UNL     1      -0.806   5.852  -4.175  1.00  0.00    -0.332 N 
HETATM    4  H   UNL     1      -1.413   5.224  -4.693  1.00  0.00     0.168 HD
BRANCH   3   5
HETATM    5  C   UNL     1       0.145   5.225  -3.339  1.00  0.00     0.035 A 
HETATM    6  C   UNL     1       0.353   3.854  -3.550  1.00  0.00     0.049 A 
HETATM    7  C   UNL     1       1.224   3.135  -2.702  1.00  0.00     0.020 A 
HETATM    8  S   UNL     1       1.585   1.460  -2.782  1.00  0.00    -0.082 SA
HETATM    9  C   UNL     1       1.905   3.752  -1.654  1.00  0.00     0.004 A 
HETATM   10  C   UNL     1       2.613   1.512  -1.411  1.00  0.00     0.103 A 
HETATM   11  C   UNL     1       2.711   2.803  -0.927  1.00  0.00     0.068 A 
HETATM   12 CL   UNL     1       3.658   3.296   0.424  1.00  0.00    -0.082 Cl
HETATM   13  C   UNL     1       1.687   5.139  -1.465  1.00  0.00     0.017 A 
HETATM   14  C   UNL     1       0.805   5.852  -2.290  1.00  0.00     0.030 A 
BRANCH  10  15
HETATM   15  C   UNL     1       3.247   0.310  -0.891  1.00  0.00     0.301 C 
HETATM   16  O   UNL     1       3.994   0.260   0.079  1.00  0.00    -0.259 OA
BRANCH  15  17
HETATM   17  O   UNL     1       2.893  -0.796  -1.615  1.00  0.00    -0.322 OA
HETATM   18  C   UNL     1       3.449  -2.019  -1.130  1.00  0.00     0.213 C 
ENDBRANCH  15  17
ENDBRANCH  10  15
ENDBRANCH   3   5
ENDBRANCH   1   3
BRANCH   1  19
HETATM   19  N   UNL     1      -0.327   8.120  -3.857  1.00  0.00    -0.274 N 
HETATM   20  H   UNL     1       0.677   7.940  -3.892  1.00  0.00     0.189 HD
BRANCH  19  21
HETATM   21  N   UNL     1      -0.685   9.477  -3.811  1.00  0.00    -0.267 N 
HETATM   22  C   UNL     1       0.307  10.369  -3.442  1.00  0.00     0.245 C 
HETATM   23  O   UNL     1       1.501  10.070  -3.429  1.00  0.00    -0.271 OA
HETATM   24  H   UNL     1      -1.653   9.665  -3.554  1.00  0.00     0.190 HD
BRANCH  22  25
HETATM   25  C   UNL     1      -0.209  11.738  -3.044  1.00  0.00     0.178 C 
BRANCH  25  26
HETATM   26  S   UNL     1      -0.852  11.655  -1.344  1.00  0.00    -0.155 SA
BRANCH  26  27
HETATM   27  C   UNL     1      -1.182  13.424  -1.085  1.00  0.00     0.114 C 
BRANCH  27  28
HETATM   28  C   UNL     1      -1.581  13.705   0.344  1.00  0.00    -0.032 A 
HETATM   29  C   UNL     1      -2.902  13.608   0.813  1.00  0.00     0.018 A 
HETATM   30 BR   UNL     1      -4.353  13.128  -0.318  1.00  0.00    -0.051 Br
HETATM   31  C   UNL     1      -3.202  13.862   2.157  1.00  0.00     0.019 A 
HETATM   32  C   UNL     1      -2.190  14.210   3.050  1.00  0.00     0.001 A 
HETATM   33  C   UNL     1      -0.875  14.302   2.605  1.00  0.00     0.001 A 
HETATM   34  C   UNL     1      -0.573  14.049   1.266  1.00  0.00     0.009 A 
ENDBRANCH  27  28
ENDBRANCH  26  27
ENDBRANCH  25  26
ENDBRANCH  22  25
ENDBRANCH  19  21
ENDBRANCH   1  19
TORSDOF 10
