REMARK  7 active torsions:
REMARK  status: ('A' for Active; 'I' for Inactive)
REMARK    1  A    between atoms: C_2  and  N_3 
REMARK    2  A    between atoms: N_7  and  C_8 
REMARK    3  A    between atoms: C_9  and  N_10 
REMARK       I    between atoms: N_10  and  C_11 
REMARK    4  A    between atoms: C_11  and  C_12 
REMARK    5  A    between atoms: C_15  and  C_16 
REMARK    6  A    between atoms: C_16  and  O_17 
REMARK    7  A    between atoms: O_17  and  C_18 
ROOT
HETATM    1  N   UNL     1       2.997   6.990  -0.122  1.00  0.00    -0.321 N 
HETATM    2  C   UNL     1       1.994   7.935  -0.189  1.00  0.00     0.256 C 
HETATM    3  O   UNL     1       1.254   8.269   0.728  1.00  0.00    -0.267 OA
HETATM    4  H   UNL     1       3.349   6.595  -0.986  1.00  0.00     0.169 HD
ENDROOT
BRANCH   1   5
HETATM    5  C   UNL     1       3.412   6.316   1.049  1.00  0.00     0.061 A 
HETATM    6  C   UNL     1       3.957   5.008   0.913  1.00  0.00     0.057 A 
HETATM    7  C   UNL     1       4.579   4.464   2.051  1.00  0.00     0.031 A 
HETATM    8  C   UNL     1       4.567   5.126   3.285  1.00  0.00     0.002 A 
HETATM    9  C   UNL     1       3.945   6.360   3.410  1.00  0.00     0.002 A 
HETATM   10  C   UNL     1       3.377   6.960   2.292  1.00  0.00     0.032 A 
BRANCH   6  11
HETATM   11  N   UNL     1       3.834   4.295  -0.306  1.00  0.00    -0.376 N 
HETATM   12  C   UNL     1       2.432   4.115  -0.777  1.00  0.00     0.150 C 
HETATM   13  C   UNL     1       1.775   2.871  -0.155  1.00  0.00     0.254 C 
HETATM   14  N   UNL     1       2.598   1.622  -0.475  1.00  0.00    -0.068 N 
HETATM   15  H   UNL     1       2.648   1.539  -1.499  1.00  0.00     0.280 HD
HETATM   16  C   UNL     1       4.037   1.801   0.023  1.00  0.00     0.254 C 
HETATM   17  C   UNL     1       4.674   3.099  -0.535  1.00  0.00     0.150 C 
BRANCH  14  18
HETATM   18  C   UNL     1       1.980   0.356   0.070  1.00  0.00     0.230 C 
HETATM   19  C   UNL     1       0.731  -0.014  -0.710  1.00  0.00     0.034 C 
ENDBRANCH  14  18
ENDBRANCH   6  11
ENDBRANCH   1   5
BRANCH   2  20
HETATM   20  C   UNL     1       1.739   8.460  -1.552  1.00  0.00     0.032 A 
HETATM   21  C   UNL     1       0.418   8.543  -1.999  1.00  0.00     0.017 A 
HETATM   22  C   UNL     1       0.147   9.030  -3.278  1.00  0.00     0.010 A 
HETATM   23  C   UNL     1       1.192   9.458  -4.112  1.00  0.00    -0.034 A 
HETATM   24  C   UNL     1       2.514   9.381  -3.648  1.00  0.00     0.010 A 
HETATM   25  C   UNL     1       2.790   8.879  -2.373  1.00  0.00     0.017 A 
BRANCH  23  26
HETATM   26  C   UNL     1       0.878  10.045  -5.470  1.00  0.00     0.214 C 
BRANCH  26  27
HETATM   27  O   UNL     1       0.172  11.263  -5.257  1.00  0.00    -0.347 OA
BRANCH  27  28
HETATM   28  C   UNL     1      -0.212  11.967  -6.363  1.00  0.00     0.069 A 
HETATM   29  C   UNL     1       0.011  11.603  -7.691  1.00  0.00     0.037 A 
HETATM   30  C   UNL     1      -0.437  12.427  -8.729  1.00  0.00     0.003 A 
HETATM   31  C   UNL     1      -1.110  13.614  -8.443  1.00  0.00     0.000 A 
HETATM   32  C   UNL     1      -1.336  13.981  -7.119  1.00  0.00     0.003 A 
HETATM   33  C   UNL     1      -0.889  13.158  -6.085  1.00  0.00     0.037 A 
ENDBRANCH  27  28
ENDBRANCH  26  27
ENDBRANCH  23  26
ENDBRANCH   2  20
TORSDOF 7
