REMARK  4 active torsions:
REMARK  status: ('A' for Active; 'I' for Inactive)
REMARK    1  A    between atoms: C_4  and  C_5 
REMARK    2  A    between atoms: C_6  and  C_7 
REMARK       I    between atoms: C_7  and  N_8 
REMARK    3  A    between atoms: N_8  and  C_9 
REMARK    4  A    between atoms: C_11  and  C_12 
ROOT
HETATM    1  C   UNL     1       6.447   3.863   0.130  1.00  0.00     0.035 A 
HETATM    2  C   UNL     1       5.248   3.142   0.168  1.00  0.00     0.042 A 
HETATM    3  C   UNL     1       4.011   3.756  -0.105  1.00  0.00    -0.021 A 
HETATM    4  C   UNL     1       3.997   5.130  -0.375  1.00  0.00     0.012 A 
HETATM    5  C   UNL     1       5.180   5.870  -0.367  1.00  0.00     0.003 A 
HETATM    6  C   UNL     1       6.396   5.239  -0.111  1.00  0.00     0.029 A 
ENDROOT
BRANCH   1   7
HETATM    7  N   UNL     1       7.721   3.311   0.369  1.00  0.00    -0.324 N 
HETATM    8  C   UNL     1       8.192   2.029   0.405  1.00  0.00     0.245 C 
HETATM    9  O   UNL     1       9.313   1.810   0.863  1.00  0.00    -0.268 OA
HETATM   10  H   UNL     1       8.457   3.970   0.595  1.00  0.00     0.169 HD
BRANCH   8  11
HETATM   11  C   UNL     1       7.389   0.936  -0.179  1.00  0.00     0.077 C 
HETATM   12  C   UNL     1       7.591  -0.326   0.227  1.00  0.00     0.042 C 
BRANCH  12  13
HETATM   13  C   UNL     1       6.801  -1.384  -0.295  1.00  0.00     0.075 A 
HETATM   14  O   UNL     1       5.631  -1.195  -1.001  1.00  0.00    -0.316 OA
HETATM   15  C   UNL     1       5.117  -2.411  -1.321  1.00  0.00     0.050 A 
HETATM   16  C   UNL     1       3.848  -2.409  -2.075  1.00  0.00     0.076 C 
HETATM   17  C   UNL     1       5.936  -3.408  -0.850  1.00  0.00     0.035 A 
HETATM   18  C   UNL     1       7.005  -2.754  -0.190  1.00  0.00     0.039 A 
ENDBRANCH  12  13
ENDBRANCH   8  11
ENDBRANCH   1   7
BRANCH   3  19
HETATM   19  C   UNL     1       2.767   2.992  -0.115  1.00  0.00     0.010 A 
HETATM   20  C   UNL     1       1.448   3.373  -0.472  1.00  0.00     0.152 A 
HETATM   21  N   UNL     1       0.565   2.377  -0.361  1.00  0.00    -0.187 NA
HETATM   22  N   UNL     1       1.310   1.347   0.066  1.00  0.00    -0.289 N 
HETATM   23  H   UNL     1       0.853   0.456   0.228  1.00  0.00     0.188 HD
HETATM   24  C   UNL     1       2.630   1.660   0.223  1.00  0.00     0.123 A 
ENDBRANCH   3  19
TORSDOF 4
