REMARK  4 active torsions:
REMARK  status: ('A' for Active; 'I' for Inactive)
REMARK    1  A    between atoms: C_2  and  C_3 
REMARK    2  A    between atoms: C_6  and  C_7 
REMARK    3  A    between atoms: C_10  and  N_11 
REMARK    4  A    between atoms: N_11  and  C_12 
ROOT
HETATM    1  C   UNL     1       4.000  -3.467   5.049  1.00  0.00     0.076 C 
HETATM    2  C   UNL     1       4.654  -2.588   6.093  1.00  0.00     0.144 C 
HETATM    3  S   UNL     1       5.770  -3.494   7.176  1.00  0.00    -0.087 SA
HETATM    4  C   UNL     1       4.778  -4.870   7.463  1.00  0.00     0.157 C 
HETATM    5  N   UNL     1       3.914  -5.254   6.534  1.00  0.00    -0.257 N 
HETATM    6  H   UNL     1       3.425  -6.119   6.741  1.00  0.00     0.191 HD
HETATM    7  N   UNL     1       3.619  -4.695   5.263  1.00  0.00    -0.176 NA
ENDROOT
BRANCH   1   8
HETATM    8  C   UNL     1       3.638  -2.895   3.746  1.00  0.00     0.019 A 
HETATM    9  C   UNL     1       3.010  -3.535   2.613  1.00  0.00     0.005 A 
HETATM   10  C   UNL     1       2.805  -2.561   1.631  1.00  0.00     0.049 A 
HETATM   11  C   UNL     1       2.581  -4.852   2.333  1.00  0.00     0.014 A 
HETATM   12  C   UNL     1       2.172  -2.815   0.397  1.00  0.00    -0.031 A 
HETATM   13  N   UNL     1       3.325  -1.386   2.120  1.00  0.00    -0.364 N 
HETATM   14  C   UNL     1       1.769  -4.141   0.165  1.00  0.00     0.009 A 
HETATM   15  C   UNL     1       1.969  -5.141   1.110  1.00  0.00     0.002 A 
HETATM   16  C   UNL     1       3.817  -1.570   3.384  1.00  0.00     0.102 A 
HETATM   17  H   UNL     1       3.326  -0.511   1.612  1.00  0.00     0.165 HD
BRANCH  12  18
HETATM   18  C   UNL     1       1.932  -1.762  -0.657  1.00  0.00     0.036 C 
HETATM   19  C   UNL     1       3.099  -1.651  -1.625  1.00  0.00     0.010 C 
ENDBRANCH  12  18
ENDBRANCH   1   8
BRANCH   4  20
HETATM   20  N   UNL     1       4.970  -5.466   8.624  1.00  0.00    -0.365 N 
HETATM   21  H   UNL     1       5.691  -5.016   9.182  1.00  0.00     0.162 HD
BRANCH  20  22
HETATM   22  C   UNL     1       4.302  -6.662   9.141  1.00  0.00     0.083 C 
HETATM   23  C   UNL     1       4.877  -7.030  10.503  1.00  0.00     0.025 C 
HETATM   24  C   UNL     1       3.766  -7.854  11.128  1.00  0.00     0.002 C 
HETATM   25  C   UNL     1       2.498  -7.111  10.730  1.00  0.00     0.002 C 
HETATM   26  C   UNL     1       2.819  -6.410   9.409  1.00  0.00     0.025 C 
ENDBRANCH  20  22
ENDBRANCH   4  20
TORSDOF 4
