REMARK  4 active torsions:
REMARK  status: ('A' for Active; 'I' for Inactive)
REMARK    1  A    between atoms: C_3  and  C_4 
REMARK    2  A    between atoms: C_9  and  N_10 
REMARK       I    between atoms: N_10  and  C_11 
REMARK    3  A    between atoms: C_11  and  C_12 
REMARK    4  A    between atoms: C_12  and  C_13 
ROOT
HETATM    1  N   UNL     1       6.274   0.415  -1.828  1.00  0.00    -0.327 N 
HETATM    2  C   UNL     1       7.302   1.041  -1.165  1.00  0.00     0.227 C 
HETATM    3  O   UNL     1       8.493   0.741  -1.261  1.00  0.00    -0.273 OA
HETATM    4  H   UNL     1       5.338   0.760  -1.612  1.00  0.00     0.169 HD
ENDROOT
BRANCH   2   5
HETATM    5  C   UNL     1       6.926   2.182  -0.238  1.00  0.00     0.165 C 
BRANCH   5   6
HETATM    6  C   UNL     1       5.499   2.686  -0.125  1.00  0.00     0.074 A 
HETATM    7  N   UNL     1       4.534   2.008  -0.676  1.00  0.00    -0.175 NA
HETATM    8  N   UNL     1       3.263   2.478  -0.570  1.00  0.00    -0.243 N 
HETATM    9  C   UNL     1       2.874   3.628   0.072  1.00  0.00     0.272 A 
HETATM   10  H   UNL     1       2.527   1.934  -1.012  1.00  0.00     0.192 HD
HETATM   11  O   UNL     1       1.704   3.991   0.111  1.00  0.00    -0.266 OA
HETATM   12  C   UNL     1       3.944   4.401   0.720  1.00  0.00     0.046 A 
HETATM   13  C   UNL     1       5.256   3.940   0.641  1.00  0.00     0.006 A 
HETATM   14  C   UNL     1       3.639   5.577   1.415  1.00  0.00     0.018 A 
HETATM   15  C   UNL     1       6.274   4.660   1.280  1.00  0.00     0.014 A 
HETATM   16  C   UNL     1       5.971   5.835   1.975  1.00  0.00     0.001 A 
HETATM   17  C   UNL     1       4.657   6.295   2.040  1.00  0.00     0.001 A 
ENDBRANCH   5   6
ENDBRANCH   2   5
BRANCH   1  18
HETATM   18  C   UNL     1       6.343  -0.643  -2.754  1.00  0.00     0.035 A 
HETATM   19  C   UNL     1       7.531  -1.230  -3.190  1.00  0.00     0.046 A 
HETATM   20  C   UNL     1       7.528  -2.286  -4.127  1.00  0.00     0.056 A 
HETATM   21  C   UNL     1       6.296  -2.771  -4.616  1.00  0.00    -0.047 A 
HETATM   22  C   UNL     1       6.227  -3.892  -5.618  1.00  0.00     0.049 C 
HETATM   23  C   UNL     1       5.107  -2.168  -4.185  1.00  0.00     0.010 A 
HETATM   24  C   UNL     1       5.132  -1.118  -3.264  1.00  0.00     0.030 A 
BRANCH  20  25
HETATM   25  C   UNL     1       8.847  -2.887  -4.565  1.00  0.00     0.418 C 
HETATM   26  F   UNL     1       8.959  -2.990  -5.920  1.00  0.00    -0.166 F 
HETATM   27  F   UNL     1       9.939  -2.176  -4.166  1.00  0.00    -0.166 F 
HETATM   28  F   UNL     1       9.031  -4.147  -4.080  1.00  0.00    -0.166 F 
ENDBRANCH  20  25
ENDBRANCH   1  18
TORSDOF 4
