REMARK  7 active torsions:
REMARK  status: ('A' for Active; 'I' for Inactive)
REMARK    1  A    between atoms: C_2  and  C_3 
REMARK    2  A    between atoms: C_4  and  O_5 
REMARK    3  A    between atoms: N_10  and  N_11 
REMARK       I    between atoms: N_11  and  C_12 
REMARK    4  A    between atoms: C_12  and  C_13 
REMARK    5  A    between atoms: C_16  and  C_17 
REMARK    6  A    between atoms: C_17  and  S_18 
REMARK    7  A    between atoms: S_18  and  C_19 
ROOT
HETATM    1  C   UNL     1       4.665  -3.338  -1.990  1.00  0.00     0.033 A 
HETATM    2  C   UNL     1       5.267  -3.727  -3.191  1.00  0.00     0.017 A 
HETATM    3  C   UNL     1       6.640  -3.983  -3.239  1.00  0.00     0.009 A 
HETATM    4  C   UNL     1       7.430  -3.844  -2.088  1.00  0.00    -0.048 A 
HETATM    5  C   UNL     1       6.828  -3.405  -0.899  1.00  0.00     0.009 A 
HETATM    6  C   UNL     1       5.454  -3.152  -0.848  1.00  0.00     0.017 A 
ENDROOT
BRANCH   1   7
HETATM    7  C   UNL     1       3.189  -3.143  -1.971  1.00  0.00     0.271 C 
HETATM    8  N   UNL     1       2.565  -3.476  -0.777  1.00  0.00    -0.243 N 
HETATM    9  H   UNL     1       3.095  -3.898  -0.027  1.00  0.00     0.192 HD
HETATM   10  O   UNL     1       2.610  -2.767  -2.986  1.00  0.00    -0.266 OA
BRANCH   8  11
HETATM   11  N   UNL     1       1.211  -3.398  -0.689  1.00  0.00    -0.176 NA
HETATM   12  C   UNL     1       0.609  -3.817   0.387  1.00  0.00     0.064 C 
HETATM   13  C   UNL     1       1.327  -4.416   1.579  1.00  0.00     0.073 C 
BRANCH  12  14
HETATM   14  C   UNL     1      -0.884  -3.720   0.423  1.00  0.00     0.023 A 
HETATM   15  C   UNL     1      -1.625  -3.777  -0.767  1.00  0.00     0.077 A 
HETATM   16  C   UNL     1      -3.017  -3.734  -0.740  1.00  0.00     0.037 A 
HETATM   17  C   UNL     1      -3.686  -3.604   0.476  1.00  0.00     0.003 A 
HETATM   18  C   UNL     1      -2.961  -3.511   1.663  1.00  0.00     0.001 A 
HETATM   19  C   UNL     1      -1.564  -3.566   1.639  1.00  0.00     0.016 A 
BRANCH  15  20
HETATM   20  O   UNL     1      -1.051  -3.884  -2.006  1.00  0.00    -0.360 OA
HETATM   21  H   UNL     1      -0.096  -3.653  -1.921  1.00  0.00     0.217 HD
ENDBRANCH  15  20
ENDBRANCH  12  14
ENDBRANCH   8  11
ENDBRANCH   1   7
BRANCH   4  22
HETATM   22  C   UNL     1       8.905  -4.163  -2.127  1.00  0.00     0.121 C 
BRANCH  22  23
HETATM   23  S   UNL     1       9.882  -2.805  -2.833  1.00  0.00    -0.087 SA
BRANCH  23  24
HETATM   24  C   UNL     1      11.459  -3.489  -2.705  1.00  0.00     0.167 A 
HETATM   25  N   UNL     1      11.797  -4.597  -2.093  1.00  0.00    -0.223 NA
HETATM   26  C   UNL     1      13.156  -4.695  -2.276  1.00  0.00     0.086 A 
HETATM   27  C   UNL     1      13.640  -3.622  -3.021  1.00  0.00     0.063 A 
HETATM   28  C   UNL     1      14.050  -5.680  -1.834  1.00  0.00     0.034 A 
HETATM   29  N   UNL     1      12.526  -2.864  -3.279  1.00  0.00    -0.333 N 
HETATM   30  C   UNL     1      14.986  -3.470  -3.360  1.00  0.00     0.032 A 
HETATM   31  H   UNL     1      12.486  -2.001  -3.799  1.00  0.00     0.168 HD
HETATM   32  C   UNL     1      15.862  -4.464  -2.909  1.00  0.00     0.002 A 
HETATM   33  C   UNL     1      15.406  -5.551  -2.158  1.00  0.00     0.002 A 
ENDBRANCH  23  24
ENDBRANCH  22  23
ENDBRANCH   4  22
TORSDOF 7
