REMARK  2 active torsions:
REMARK  status: ('A' for Active; 'I' for Inactive)
REMARK    1  A    between atoms: N_7  and  C_9 
REMARK    2  A    between atoms: C_9  and  C_10 
ROOT
HETATM    1  C   UNL     1      -2.400  -0.133  -0.271  1.00  0.00     0.136 A 
HETATM    2  N   UNL     1      -1.517  -1.177  -0.402  1.00  0.00    -0.244 NA
HETATM    3  C   UNL     1      -0.329  -0.669  -0.164  1.00  0.00     0.131 A 
HETATM    4  N   UNL     1      -0.424   0.671   0.110  1.00  0.00    -0.341 N 
HETATM    5  C   UNL     1       0.710   1.537   0.351  1.00  0.00     0.157 C 
HETATM    6  C   UNL     1       1.969   0.740   0.707  1.00  0.00     0.256 C 
HETATM    7  N   UNL     1       2.151  -0.432  -0.247  1.00  0.00    -0.059 N 
HETATM    8  H   UNL     1       2.144  -0.069  -1.209  1.00  0.00     0.280 HD
HETATM    9  C   UNL     1       0.971  -1.384  -0.151  1.00  0.00     0.313 C 
HETATM   10  C   UNL     1      -1.735   1.029   0.046  1.00  0.00     0.111 A 
ENDROOT
BRANCH   7  11
HETATM   11  C   UNL     1       3.452  -1.172  -0.074  1.00  0.00     0.274 C 
BRANCH  11  12
HETATM   12  C   UNL     1       4.638  -0.346  -0.455  1.00  0.00    -0.024 A 
HETATM   13  C   UNL     1       4.975   0.010  -1.752  1.00  0.00     0.059 A 
HETATM   14  S   UNL     1       6.385   0.981  -1.827  1.00  0.00    -0.094 SA
HETATM   15  C   UNL     1       6.579   0.909  -0.149  1.00  0.00     0.051 A 
HETATM   16 BR   UNL     1       7.987   1.745   0.758  1.00  0.00    -0.043 Br
HETATM   17  C   UNL     1       5.600   0.179   0.478  1.00  0.00     0.036 A 
ENDBRANCH  11  12
ENDBRANCH   7  11
TORSDOF 2
