REMARK  6 active torsions:
REMARK  status: ('A' for Active; 'I' for Inactive)
REMARK    1  A    between atoms: C_2  and  C_3 
REMARK    2  A    between atoms: C_3  and  C_4 
REMARK    3  A    between atoms: C_3  and  C_10 
REMARK    4  A    between atoms: C_10  and  C_11 
REMARK       I    between atoms: C_11  and  N_12 
REMARK    5  A    between atoms: N_12  and  C_13 
REMARK    6  A    between atoms: C_20  and  C_21 
REMARK       I    between atoms: C_21  and  N_22 
ROOT
HETATM    1  C   UNL     1       3.346  -1.268  -5.776  1.00  0.00     0.035 A 
HETATM    2  C   UNL     1       4.134  -0.273  -6.372  1.00  0.00     0.046 A 
HETATM    3  C   UNL     1       4.353  -0.300  -7.768  1.00  0.00     0.030 A 
HETATM    4  C   UNL     1       3.783  -1.321  -8.517  1.00  0.00     0.063 A 
HETATM    5  N   UNL     1       4.174  -1.089  -9.805  1.00  0.00    -0.277 N 
HETATM    6  H   UNL     1       3.946  -1.641 -10.625  1.00  0.00     0.189 HD
HETATM    7  N   UNL     1       4.940   0.002  -9.967  1.00  0.00    -0.168 NA
HETATM    8  C   UNL     1       5.058   0.503  -8.716  1.00  0.00     0.156 A 
HETATM    9  C   UNL     1       2.990  -2.325  -7.959  1.00  0.00     0.034 A 
HETATM   10  C   UNL     1       2.781  -2.272  -6.575  1.00  0.00     0.032 A 
ENDROOT
BRANCH   1  11
HETATM   11  N   UNL     1       3.069  -1.329  -4.394  1.00  0.00    -0.327 N 
HETATM   12  C   UNL     1       3.596  -0.532  -3.387  1.00  0.00     0.222 C 
HETATM   13  O   UNL     1       4.420   0.362  -3.527  1.00  0.00    -0.273 OA
HETATM   14  H   UNL     1       2.455  -2.077  -4.099  1.00  0.00     0.169 HD
BRANCH  12  15
HETATM   15  C   UNL     1       3.029  -0.920  -2.027  1.00  0.00     0.113 C 
BRANCH  15  16
HETATM   16  C   UNL     1       3.653  -0.141  -0.846  1.00  0.00     0.030 C 
BRANCH  16  17
HETATM   17  C   UNL     1       3.185   1.347  -0.765  1.00  0.00    -0.014 C 
HETATM   18  C   UNL     1       4.062   2.165   0.192  1.00  0.00     0.010 C 
HETATM   19  C   UNL     1       1.711   1.550  -0.403  1.00  0.00     0.010 C 
ENDBRANCH  16  17
BRANCH  16  20
HETATM   20  C   UNL     1       3.478  -0.911   0.463  1.00  0.00    -0.053 A 
HETATM   21  C   UNL     1       2.250  -1.474   0.844  1.00  0.00     0.007 A 
HETATM   22  C   UNL     1       2.128  -2.180   2.043  1.00  0.00     0.001 A 
HETATM   23  C   UNL     1       3.232  -2.335   2.878  1.00  0.00     0.000 A 
HETATM   24  C   UNL     1       4.457  -1.782   2.516  1.00  0.00     0.001 A 
HETATM   25  C   UNL     1       4.580  -1.076   1.318  1.00  0.00     0.007 A 
ENDBRANCH  16  20
ENDBRANCH  15  16
ENDBRANCH  12  15
ENDBRANCH   1  11
BRANCH   8  26
HETATM   26  C   UNL     1       5.829   1.728  -8.459  1.00  0.00     0.270 C 
HETATM   27  N   UNL     1       6.403   2.270  -9.577  1.00  0.00    -0.365 N 
HETATM   28  H   UNL     1       6.256   1.812 -10.468  1.00  0.00     0.159 HD
HETATM   29  H   UNL     1       6.943   3.117  -9.499  1.00  0.00     0.159 HD
HETATM   30  O   UNL     1       5.966   2.252  -7.359  1.00  0.00    -0.266 OA
ENDBRANCH   8  26
TORSDOF 6
