REMARK  7 active torsions:
REMARK  status: ('A' for Active; 'I' for Inactive)
REMARK    1  A    between atoms: O_2  and  C_3 
REMARK    2  A    between atoms: C_4  and  O_5 
REMARK    3  A    between atoms: O_5  and  C_6 
REMARK       I    between atoms: C_6  and  N_7 
REMARK    4  A    between atoms: C_14  and  O_15 
REMARK    5  A    between atoms: C_18  and  C_19 
REMARK    6  A    between atoms: C_23  and  N_24 
REMARK    7  A    between atoms: C_31  and  C_32 
ROOT
HETATM    1  C   UNL     1       3.612  -3.739  -2.840  1.00  0.00     0.105 C 
HETATM    2  C   UNL     1       2.319  -3.415  -2.093  1.00  0.00     0.067 C 
HETATM    3  C   UNL     1       1.842  -1.973  -2.141  1.00  0.00     0.020 C 
HETATM    4  N   UNL     1       1.445  -0.777  -2.181  1.00  0.00    -0.096 N 
HETATM    5  C   UNL     1       1.700  -4.290  -1.255  1.00  0.00     0.139 C 
HETATM    6  O   UNL     1       2.236  -5.566  -0.994  1.00  0.00    -0.279 OA
HETATM    7  C   UNL     1       3.461  -5.787  -1.457  1.00  0.00     0.175 A 
HETATM    8  C   UNL     1       4.204  -4.996  -2.298  1.00  0.00     0.040 A 
HETATM    9  N   UNL     1       4.213  -6.877  -1.173  1.00  0.00    -0.256 N 
HETATM   10  H   UNL     1       3.974  -7.672  -0.589  1.00  0.00     0.191 HD
HETATM   11  N   UNL     1       5.424  -6.839  -1.760  1.00  0.00    -0.172 NA
HETATM   12  C   UNL     1       5.448  -5.669  -2.428  1.00  0.00     0.099 A 
ENDROOT
BRANCH   1  13
HETATM   13  C   UNL     1       3.366  -3.946  -4.334  1.00  0.00    -0.039 A 
HETATM   14  C   UNL     1       3.504  -2.844  -5.196  1.00  0.00     0.048 A 
HETATM   15  C   UNL     1       3.192  -2.961  -6.551  1.00  0.00     0.105 A 
HETATM   16  C   UNL     1       2.705  -4.168  -7.055  1.00  0.00     0.147 A 
HETATM   17  C   UNL     1       2.628  -5.306  -6.245  1.00  0.00     0.105 A 
HETATM   18  C   UNL     1       2.921  -5.173  -4.884  1.00  0.00     0.048 A 
BRANCH  15  19
HETATM   19  O   UNL     1       3.294  -1.873  -7.378  1.00  0.00    -0.353 OA
HETATM   20  C   UNL     1       4.664  -1.604  -7.674  1.00  0.00     0.210 C 
ENDBRANCH  15  19
BRANCH  16  21
HETATM   21  O   UNL     1       2.339  -4.220  -8.407  1.00  0.00    -0.256 OA
BRANCH  21  22
HETATM   22  C   UNL     1       0.971  -4.394  -8.602  1.00  0.00     0.368 C 
HETATM   23  N   UNL     1       0.635  -4.483  -9.946  1.00  0.00    -0.324 N 
HETATM   24  C   UNL     1      -0.655  -5.063 -10.306  1.00  0.00     0.154 C 
HETATM   25  C   UNL     1       1.629  -4.458 -11.017  1.00  0.00     0.154 C 
HETATM   26  C   UNL     1      -1.161  -4.529 -11.647  1.00  0.00     0.187 C 
HETATM   27  O   UNL     1      -0.164  -4.665 -12.672  1.00  0.00    -0.388 OA
HETATM   28  C   UNL     1       1.017  -3.930 -12.318  1.00  0.00     0.187 C 
HETATM   29  O   UNL     1       0.132  -4.466  -7.707  1.00  0.00    -0.238 OA
ENDBRANCH  21  22
ENDBRANCH  16  21
BRANCH  17  30
HETATM   30  O   UNL     1       2.262  -6.472  -6.864  1.00  0.00    -0.353 OA
HETATM   31  C   UNL     1       2.213  -7.649  -6.069  1.00  0.00     0.210 C 
ENDBRANCH  17  30
ENDBRANCH   1  13
BRANCH   5  32
HETATM   32  N   UNL     1       0.552  -4.043  -0.540  1.00  0.00    -0.282 NA
HETATM   33  H   UNL     1       0.311  -3.068  -0.386  1.00  0.00     0.126 HD
HETATM   34  H   UNL     1       0.473  -4.619   0.293  1.00  0.00     0.126 HD
ENDBRANCH   5  32
BRANCH  12  35
HETATM   35  C   UNL     1       6.638  -5.261  -3.169  1.00  0.00    -0.005 A 
HETATM   36  C   UNL     1       7.314  -6.189  -3.974  1.00  0.00     0.015 A 
HETATM   37  C   UNL     1       8.466  -5.817  -4.672  1.00  0.00     0.020 A 
HETATM   38  C   UNL     1       8.949  -4.516  -4.561  1.00  0.00     0.011 A 
HETATM   39 BR   UNL     1      10.514  -4.012  -5.494  1.00  0.00    -0.051 Br
HETATM   40  C   UNL     1       8.293  -3.584  -3.758  1.00  0.00     0.020 A 
HETATM   41  C   UNL     1       7.140  -3.957  -3.061  1.00  0.00     0.015 A 
ENDBRANCH  12  35
TORSDOF 7
