REMARK  6 active torsions:
REMARK  status: ('A' for Active; 'I' for Inactive)
REMARK    1  A    between atoms: C_4  and  C_5 
REMARK    2  A    between atoms: C_5  and  C_6 
REMARK    3  A    between atoms: C_6  and  C_7 
REMARK    4  A    between atoms: C_7  and  C_8 
REMARK       I    between atoms: C_8  and  N_9 
REMARK    5  A    between atoms: N_9  and  C_10 
REMARK    6  A    between atoms: C_12  and  C_13 
ROOT
HETATM    1  C   UNL     1       9.336   1.040   0.520  1.00  0.00     0.222 C 
HETATM    2  N   UNL     1       9.330  -0.287   0.210  1.00  0.00    -0.327 N 
HETATM    3  O   UNL     1      10.430   1.548   0.784  1.00  0.00    -0.273 OA
HETATM    4  H   UNL     1      10.282  -0.638   0.225  1.00  0.00     0.169 HD
ENDROOT
BRANCH   2   5
HETATM    5  C   UNL     1       8.340  -1.236  -0.110  1.00  0.00     0.035 A 
HETATM    6  C   UNL     1       6.962  -1.015  -0.123  1.00  0.00     0.042 A 
HETATM    7  C   UNL     1       6.058  -2.043  -0.459  1.00  0.00    -0.021 A 
HETATM    8  C   UNL     1       6.556  -3.311  -0.774  1.00  0.00     0.012 A 
HETATM    9  C   UNL     1       7.928  -3.549  -0.759  1.00  0.00     0.003 A 
HETATM   10  C   UNL     1       8.809  -2.519  -0.429  1.00  0.00     0.029 A 
BRANCH   7  11
HETATM   11  C   UNL     1       4.623  -1.806  -0.466  1.00  0.00     0.010 A 
HETATM   12  C   UNL     1       3.539  -2.688  -0.237  1.00  0.00     0.152 A 
HETATM   13  N   UNL     1       2.351  -2.089  -0.350  1.00  0.00    -0.187 NA
HETATM   14  N   UNL     1       2.666  -0.822  -0.656  1.00  0.00    -0.289 N 
HETATM   15  H   UNL     1       1.910  -0.159  -0.799  1.00  0.00     0.188 HD
HETATM   16  C   UNL     1       4.011  -0.600  -0.740  1.00  0.00     0.123 A 
ENDBRANCH   7  11
ENDBRANCH   2   5
BRANCH   1  17
HETATM   17  C   UNL     1       8.064   1.859   0.534  1.00  0.00     0.103 C 
BRANCH  17  18
HETATM   18  C   UNL     1       8.292   3.345   0.824  1.00  0.00     0.014 C 
BRANCH  18  19
HETATM   19  C   UNL     1       8.925   4.088  -0.358  1.00  0.00     0.046 C 
BRANCH  19  20
HETATM   20  C   UNL     1       9.058   5.555  -0.068  1.00  0.00    -0.017 A 
HETATM   21  S   UNL     1       7.845   6.653  -0.570  1.00  0.00    -0.100 SA
HETATM   22  C   UNL     1       8.684   7.991   0.088  1.00  0.00    -0.021 A 
HETATM   23  C   UNL     1       8.106   9.360  -0.020  1.00  0.00     0.056 C 
HETATM   24  C   UNL     1       9.866   7.605   0.684  1.00  0.00     0.015 A 
HETATM   25  C   UNL     1      10.083   6.201   0.592  1.00  0.00     0.015 A 
ENDBRANCH  19  20
ENDBRANCH  18  19
ENDBRANCH  17  18
ENDBRANCH   1  17
TORSDOF 6
