REMARK  7 active torsions:
REMARK  status: ('A' for Active; 'I' for Inactive)
REMARK    1  A    between atoms: S_2  and  C_3 
REMARK    2  A    between atoms: C_3  and  C_4 
REMARK    3  A    between atoms: C_4  and  C_5 
REMARK    4  A    between atoms: C_5  and  N_6 
REMARK    5  A    between atoms: C_5  and  C_26 
REMARK       I    between atoms: N_6  and  C_7 
REMARK    6  A    between atoms: C_7  and  C_8 
REMARK    7  A    between atoms: C_8  and  N_9 
ROOT
HETATM    1  N   UNL     1       5.131   2.435   3.280  1.00  0.00    -0.348 N 
HETATM    2  C   UNL     1       3.788   2.153   3.456  1.00  0.00     0.236 C 
HETATM    3  O   UNL     1       3.270   2.027   4.561  1.00  0.00    -0.272 OA
HETATM    4  H   UNL     1       5.301   3.008   2.454  1.00  0.00     0.163 HD
ENDROOT
BRANCH   2   5
HETATM    5  C   UNL     1       2.932   2.198   2.189  1.00  0.00     0.239 C 
BRANCH   5   6
HETATM    6  N   UNL     1       3.563   1.657   1.002  1.00  0.00    -0.259 N 
HETATM    7  C   UNL     1       4.468   2.318   0.240  1.00  0.00     0.326 A 
HETATM    8  O   UNL     1       5.020   3.367   0.531  1.00  0.00    -0.247 OA
HETATM    9  N   UNL     1       4.717   1.595  -0.895  1.00  0.00    -0.320 N 
HETATM   10  C   UNL     1       3.926   0.380  -0.968  1.00  0.00     0.144 A 
HETATM   11  H   UNL     1       5.287   1.959  -1.647  1.00  0.00     0.165 HD
HETATM   12  C   UNL     1       2.910   0.426  -2.102  1.00  0.00    -0.014 A 
HETATM   13  C   UNL     1       4.869  -0.830  -1.022  1.00  0.00     0.047 C 
HETATM   14  C   UNL     1       3.219   0.470   0.412  1.00  0.00     0.261 A 
HETATM   15  C   UNL     1       2.649  -0.719  -2.883  1.00  0.00    -0.049 A 
HETATM   16  C   UNL     1       2.158   1.593  -2.349  1.00  0.00     0.011 A 
HETATM   17  C   UNL     1       1.667  -0.668  -3.887  1.00  0.00     0.007 A 
HETATM   18  C   UNL     1       3.432  -1.998  -2.716  1.00  0.00     0.039 C 
HETATM   19  C   UNL     1       0.932   0.494  -4.110  1.00  0.00     0.001 A 
HETATM   20  C   UNL     1       1.179   1.625  -3.343  1.00  0.00     0.001 A 
HETATM   21  C   UNL     1       4.122  -2.115  -1.362  1.00  0.00     0.008 C 
HETATM   22  O   UNL     1       2.456  -0.361   0.886  1.00  0.00    -0.270 OA
ENDBRANCH   5   6
ENDBRANCH   2   5
BRANCH   1  23
HETATM   23  C   UNL     1       6.002   2.766   4.411  1.00  0.00     0.155 C 
BRANCH  23  24
HETATM   24  C   UNL     1       6.008   1.790   5.605  1.00  0.00     0.043 C 
BRANCH  24  25
HETATM   25  C   UNL     1       6.230   0.325   5.237  1.00  0.00     0.076 C 
BRANCH  25  26
HETATM   26  S   UNL     1       6.232  -0.682   6.762  1.00  0.00    -0.173 SA
HETATM   27  C   UNL     1       6.206  -2.328   6.019  1.00  0.00     0.089 C 
ENDBRANCH  25  26
ENDBRANCH  24  25
ENDBRANCH  23  24
BRANCH  23  28
HETATM   28  C   UNL     1       7.401   3.000   3.900  1.00  0.00     0.128 A 
HETATM   29  N   UNL     1       8.325   3.742   4.479  1.00  0.00    -0.231 NA
HETATM   30  C   UNL     1       9.416   3.705   3.647  1.00  0.00     0.085 A 
HETATM   31  C   UNL     1       9.160   2.917   2.531  1.00  0.00     0.062 A 
HETATM   32  C   UNL     1      10.663   4.331   3.774  1.00  0.00     0.034 A 
HETATM   33  N   UNL     1       7.885   2.459   2.730  1.00  0.00    -0.341 N 
HETATM   34  C   UNL     1      10.084   2.723   1.502  1.00  0.00     0.032 A 
HETATM   35  H   UNL     1       7.363   1.863   2.105  1.00  0.00     0.167 HD
HETATM   36  C   UNL     1      11.321   3.365   1.641  1.00  0.00     0.002 A 
HETATM   37  C   UNL     1      11.610   4.153   2.758  1.00  0.00     0.002 A 
ENDBRANCH  23  28
ENDBRANCH   1  23
TORSDOF 7
