REMARK  7 active torsions:
REMARK  status: ('A' for Active; 'I' for Inactive)
REMARK    1  A    between atoms: C_3  and  C_4 
REMARK    2  A    between atoms: C_6  and  O_7 
REMARK    3  A    between atoms: C_9  and  O_10 
REMARK    4  A    between atoms: O_10  and  C_11 
REMARK    5  A    between atoms: C_11  and  C_12 
REMARK       I    between atoms: C_12  and  N_13 
REMARK    6  A    between atoms: N_13  and  N_14 
REMARK       I    between atoms: N_14  and  C_15 
REMARK    7  A    between atoms: C_15  and  C_16 
ROOT
HETATM    1  C   UNL     1      11.064  -0.659  -2.145  1.00  0.00     0.260 C 
HETATM    2  N   UNL     1      11.610  -0.181  -0.970  1.00  0.00    -0.265 N 
HETATM    3  O   UNL     1      11.714  -0.783  -3.184  1.00  0.00    -0.269 OA
HETATM    4  H   UNL     1      11.113  -0.275  -0.084  1.00  0.00     0.190 HD
ENDROOT
BRANCH   2   5
HETATM    5  N   UNL     1      12.991   0.018  -0.915  1.00  0.00    -0.263 N 
HETATM    6  C   UNL     1      13.710  -0.473   0.155  1.00  0.00     0.272 C 
HETATM    7  O   UNL     1      13.164  -0.976   1.136  1.00  0.00    -0.266 OA
HETATM    8  H   UNL     1      13.426   0.459  -1.717  1.00  0.00     0.190 HD
BRANCH   6   9
HETATM    9  C   UNL     1      15.156  -0.284   0.064  1.00  0.00     0.061 A 
HETATM   10  C   UNL     1      16.023  -0.180  -1.080  1.00  0.00     0.008 A 
HETATM   11  C   UNL     1      17.321   0.065  -0.605  1.00  0.00     0.045 A 
HETATM   12  C   UNL     1      15.838  -0.283  -2.480  1.00  0.00     0.015 A 
HETATM   13  C   UNL     1      18.408   0.264  -1.475  1.00  0.00     0.030 A 
HETATM   14  N   UNL     1      17.256   0.047   0.770  1.00  0.00    -0.359 N 
HETATM   15  C   UNL     1      18.183   0.192  -2.851  1.00  0.00     0.002 A 
HETATM   16  C   UNL     1      16.917  -0.087  -3.349  1.00  0.00     0.001 A 
HETATM   17  C   UNL     1      18.357   0.220   1.691  1.00  0.00     0.156 C 
HETATM   18  C   UNL     1      15.970  -0.180   1.178  1.00  0.00     0.108 A 
ENDBRANCH   6   9
ENDBRANCH   2   5
BRANCH   1  19
HETATM   19  C   UNL     1       9.602  -1.081  -2.034  1.00  0.00     0.280 C 
BRANCH  19  20
HETATM   20  O   UNL     1       8.928  -0.273  -1.073  1.00  0.00    -0.339 OA
BRANCH  20  21
HETATM   21  C   UNL     1       7.561  -0.246  -1.201  1.00  0.00     0.102 A 
HETATM   22  C   UNL     1       6.919   0.985  -0.980  1.00  0.00     0.102 A 
HETATM   23  C   UNL     1       5.522   1.051  -1.041  1.00  0.00     0.051 A 
HETATM   24  C   UNL     1       4.765  -0.090  -1.338  1.00  0.00    -0.034 A 
HETATM   25  C   UNL     1       5.416  -1.310  -1.550  1.00  0.00     0.014 A 
HETATM   26  C   UNL     1       6.808  -1.391  -1.475  1.00  0.00     0.040 A 
BRANCH  22  27
HETATM   27  O   UNL     1       7.738   2.054  -0.711  1.00  0.00    -0.353 OA
HETATM   28  C   UNL     1       7.146   3.346  -0.738  1.00  0.00     0.210 C 
ENDBRANCH  22  27
BRANCH  24  29
HETATM   29  C   UNL     1       3.303   0.010  -1.366  1.00  0.00     0.007 C 
HETATM   30  C   UNL     1       2.565  -0.390  -2.413  1.00  0.00    -0.030 C 
HETATM   31  C   UNL     1       1.075  -0.282  -2.464  1.00  0.00     0.036 C 
ENDBRANCH  24  29
ENDBRANCH  20  21
ENDBRANCH  19  20
ENDBRANCH   1  19
TORSDOF 7
