REMARK  6 active torsions:
REMARK  status: ('A' for Active; 'I' for Inactive)
REMARK    1  A    between atoms: C_2  and  O_3 
REMARK    2  A    between atoms: C_2  and  C_4 
REMARK    3  A    between atoms: C_6  and  N_7 
REMARK       I    between atoms: N_7  and  C_8 
REMARK    4  A    between atoms: C_8  and  C_9 
REMARK    5  A    between atoms: C_14  and  C_15 
REMARK    6  A    between atoms: C_23  and  C_24 
ROOT
HETATM    1  C   UNL     1       3.634   2.083  -3.306  1.00  0.00     0.148 A 
HETATM    2  N   UNL     1       3.306   3.383  -3.102  1.00  0.00    -0.165 NA
HETATM    3  N   UNL     1       3.761   3.618  -1.855  1.00  0.00    -0.240 N 
HETATM    4  C   UNL     1       4.275   2.522  -1.233  1.00  0.00     0.123 A 
HETATM    5  N   UNL     1       4.756   2.603   0.020  1.00  0.00    -0.366 N 
HETATM    6  C   UNL     1       4.226   3.584   0.960  1.00  0.00     0.118 C 
HETATM    7  C   UNL     1       3.602   4.829   0.290  1.00  0.00     0.066 C 
HETATM    8  C   UNL     1       3.738   4.929  -1.243  1.00  0.00     0.221 C 
HETATM    9  C   UNL     1       4.229   1.509  -2.148  1.00  0.00     0.089 A 
HETATM   10  H   UNL     1       5.093   1.752   0.473  1.00  0.00     0.161 HD
ENDROOT
BRANCH   1  11
HETATM   11  C   UNL     1       3.416   1.391  -4.588  1.00  0.00     0.276 C 
HETATM   12  N   UNL     1       2.911   2.227  -5.564  1.00  0.00    -0.322 N 
HETATM   13  H   UNL     1       2.721   3.171  -5.236  1.00  0.00     0.169 HD
HETATM   14  O   UNL     1       3.685   0.200  -4.713  1.00  0.00    -0.266 OA
BRANCH  12  15
HETATM   15  C   UNL     1       2.686   1.933  -6.921  1.00  0.00     0.035 A 
HETATM   16  C   UNL     1       3.005   0.705  -7.509  1.00  0.00     0.039 A 
HETATM   17  C   UNL     1       2.789   0.474  -8.879  1.00  0.00    -0.028 A 
HETATM   18  C   UNL     1       2.242   1.501  -9.658  1.00  0.00     0.010 A 
HETATM   19  C   UNL     1       1.912   2.726  -9.080  1.00  0.00     0.003 A 
HETATM   20  C   UNL     1       2.137   2.941  -7.718  1.00  0.00     0.029 A 
BRANCH  17  21
HETATM   21  C   UNL     1       3.186  -0.854  -9.487  1.00  0.00     0.147 C 
HETATM   22  C   UNL     1       4.499  -0.763 -10.252  1.00  0.00     0.044 C 
BRANCH  21  23
HETATM   23  O   UNL     1       2.167  -1.318 -10.371  1.00  0.00    -0.391 OA
HETATM   24  H   UNL     1       1.318  -1.145  -9.928  1.00  0.00     0.210 HD
ENDBRANCH  21  23
ENDBRANCH  17  21
ENDBRANCH  12  15
ENDBRANCH   1  11
BRANCH   8  25
HETATM   25  C   UNL     1       4.956   5.718  -1.667  1.00  0.00     0.409 C 
HETATM   26  F   UNL     1       4.996   5.915  -3.005  1.00  0.00    -0.169 F 
HETATM   27  F   UNL     1       4.923   6.954  -1.104  1.00  0.00    -0.169 F 
HETATM   28  F   UNL     1       6.123   5.154  -1.302  1.00  0.00    -0.169 F 
ENDBRANCH   8  25
BRANCH   6  29
HETATM   29  C   UNL     1       5.293   3.913   1.991  1.00  0.00    -0.035 A 
HETATM   30  C   UNL     1       6.625   4.165   1.620  1.00  0.00     0.012 A 
HETATM   31  C   UNL     1       7.602   4.418   2.585  1.00  0.00     0.043 A 
HETATM   32  C   UNL     1       7.253   4.418   3.928  1.00  0.00     0.116 A 
HETATM   33  F   UNL     1       8.193   4.642   4.855  1.00  0.00    -0.206 F 
HETATM   34  C   UNL     1       5.943   4.179   4.324  1.00  0.00     0.043 A 
HETATM   35  C   UNL     1       4.964   3.932   3.359  1.00  0.00     0.012 A 
ENDBRANCH   6  29
TORSDOF 6
