REMARK  6 active torsions:
REMARK  status: ('A' for Active; 'I' for Inactive)
REMARK    1  A    between atoms: C_2  and  O_3 
REMARK    2  A    between atoms: O_3  and  C_4 
REMARK    3  A    between atoms: C_7  and  N_8 
REMARK    4  A    between atoms: C_11  and  N_12 
REMARK    5  A    between atoms: C_16  and  O_17 
REMARK    6  A    between atoms: C_16  and  C_18 
ROOT
HETATM    1  N   UNL     1       8.589   1.418   0.922  1.00  0.00    -0.251 N 
HETATM    2  C   UNL     1       9.286   2.599   1.067  1.00  0.00     0.262 C 
HETATM    3  O   UNL     1       8.956   3.637   1.621  1.00  0.00    -0.270 OA
HETATM    4  C   UNL     1      10.630   2.423   0.384  1.00  0.00     0.289 C 
HETATM    5  C   UNL     1      10.852   0.938   0.551  1.00  0.00     0.146 C 
HETATM    6  C   UNL     1       9.448   0.408   0.545  1.00  0.00     0.233 C 
HETATM    7  O   UNL     1       9.221  -0.754   0.253  1.00  0.00    -0.273 OA
ENDROOT
BRANCH   4   8
HETATM    8  N   UNL     1      11.844   3.241   0.915  1.00  0.00    -0.058 N 
HETATM    9  H   UNL     1      12.008   2.965   1.895  1.00  0.00     0.281 HD
HETATM   10  C   UNL     1      13.089   2.927   0.102  1.00  0.00     0.239 C 
HETATM   11  C   UNL     1      14.274   3.759   0.557  1.00  0.00     0.071 C 
HETATM   12  C   UNL     1      13.992   5.269   0.475  1.00  0.00     0.088 C 
HETATM   13  C   UNL     1      12.787   5.511   1.397  1.00  0.00     0.071 C 
HETATM   14  C   UNL     1      11.556   4.739   0.950  1.00  0.00     0.239 C 
BRANCH  12  15
HETATM   15  O   UNL     1      15.110   5.919   1.082  1.00  0.00    -0.385 OA
HETATM   16  H   UNL     1      15.499   6.560   0.459  1.00  0.00     0.211 HD
ENDBRANCH  12  15
BRANCH  12  17
HETATM   17  C   UNL     1      13.831   5.836  -0.941  1.00  0.00    -0.024 A 
HETATM   18  C   UNL     1      13.117   7.030  -1.169  1.00  0.00     0.011 A 
HETATM   19  C   UNL     1      12.960   7.556  -2.456  1.00  0.00     0.020 A 
HETATM   20  C   UNL     1      13.540   6.912  -3.542  1.00  0.00     0.011 A 
HETATM   21 BR   UNL     1      13.326   7.616  -5.280  1.00  0.00    -0.051 Br
HETATM   22  C   UNL     1      14.291   5.760  -3.346  1.00  0.00     0.020 A 
HETATM   23  C   UNL     1      14.446   5.236  -2.056  1.00  0.00     0.011 A 
ENDBRANCH  12  17
ENDBRANCH   4   8
BRANCH   1  24
HETATM   24  C   UNL     1       7.176   1.276   1.102  1.00  0.00     0.045 A 
HETATM   25  C   UNL     1       6.347   2.394   1.292  1.00  0.00     0.033 A 
HETATM   26  C   UNL     1       4.954   2.266   1.373  1.00  0.00     0.039 A 
HETATM   27  C   UNL     1       4.347   1.021   1.254  1.00  0.00     0.068 A 
HETATM   28  C   UNL     1       5.147  -0.106   1.121  1.00  0.00     0.039 A 
HETATM   29  C   UNL     1       6.544   0.023   1.046  1.00  0.00     0.033 A 
BRANCH  27  30
HETATM   30  O   UNL     1       2.983   1.029   1.296  1.00  0.00    -0.352 OA
BRANCH  30  31
HETATM   31  C   UNL     1       2.330  -0.074   0.665  1.00  0.00     0.171 C 
HETATM   32  C   UNL     1       0.882   0.314   0.426  1.00  0.00     0.034 C 
ENDBRANCH  30  31
ENDBRANCH  27  30
ENDBRANCH   1  24
TORSDOF 6
