REMARK  8 active torsions:
REMARK  status: ('A' for Active; 'I' for Inactive)
REMARK    1  A    between atoms: C_2  and  N_3 
REMARK    2  A    between atoms: C_2  and  C_34 
REMARK       I    between atoms: N_3  and  C_4 
REMARK    3  A    between atoms: C_4  and  C_5 
REMARK    4  A    between atoms: C_5  and  N_6 
REMARK       I    between atoms: N_12  and  C_13 
REMARK    5  A    between atoms: C_13  and  C_14 
REMARK    6  A    between atoms: C_14  and  O_15 
REMARK    7  A    between atoms: O_15  and  C_16 
REMARK    8  A    between atoms: N_25  and  C_26 
ROOT
HETATM    1  N   UNL     1       1.935  -2.002   1.067  1.00  0.00    -0.325 N 
HETATM    2  C   UNL     1       2.232  -0.664   1.147  1.00  0.00     0.250 C 
HETATM    3  O   UNL     1       2.344   0.083   0.187  1.00  0.00    -0.270 OA
HETATM    4  C   UNL     1       2.446  -0.324   2.638  1.00  0.00     0.118 C 
HETATM    5  C   UNL     1       1.711   0.980   2.960  1.00  0.00     0.061 C 
HETATM    6  C   UNL     1       2.449   2.219   2.456  1.00  0.00     0.129 C 
HETATM    7  N   UNL     1       3.877   2.190   2.761  1.00  0.00    -0.350 N 
HETATM    8  C   UNL     1       4.511   3.411   3.017  1.00  0.00     0.244 C 
HETATM    9  O   UNL     1       3.881   4.470   3.097  1.00  0.00    -0.271 OA
HETATM   10  C   UNL     1       4.592   0.997   2.317  1.00  0.00     0.129 C 
HETATM   11  C   UNL     1       3.965  -0.275   2.870  1.00  0.00     0.061 C 
HETATM   12  N   UNL     1       1.839  -1.518   3.302  1.00  0.00    -0.346 N 
HETATM   13  C   UNL     1       1.582  -2.575   2.327  1.00  0.00     0.254 C 
ENDROOT
BRANCH  12  14
HETATM   14  C   UNL     1       1.748  -1.799   4.654  1.00  0.00     0.032 A 
HETATM   15  C   UNL     1       2.234  -0.946   5.657  1.00  0.00     0.029 A 
HETATM   16  C   UNL     1       2.145  -1.253   7.023  1.00  0.00     0.002 A 
HETATM   17  C   UNL     1       1.548  -2.434   7.438  1.00  0.00     0.000 A 
HETATM   18  C   UNL     1       1.037  -3.299   6.484  1.00  0.00     0.002 A 
HETATM   19  C   UNL     1       1.134  -2.981   5.121  1.00  0.00     0.029 A 
ENDBRANCH  12  14
BRANCH   1  20
HETATM   20  C   UNL     1       1.782  -2.750  -0.168  1.00  0.00     0.230 C 
BRANCH  20  21
HETATM   21  C   UNL     1       0.330  -2.894  -0.624  1.00  0.00     0.236 C 
HETATM   22  N   UNL     1      -0.374  -1.711  -0.652  1.00  0.00    -0.351 N 
HETATM   23  H   UNL     1       0.183  -0.868  -0.560  1.00  0.00     0.163 HD
HETATM   24  O   UNL     1      -0.105  -3.975  -1.011  1.00  0.00    -0.272 OA
BRANCH  22  25
HETATM   25  C   UNL     1      -1.676  -1.538  -1.286  1.00  0.00     0.113 C 
HETATM   26  C   UNL     1      -2.725  -2.582  -0.892  1.00  0.00     0.037 C 
BRANCH  25  27
HETATM   27  C   UNL     1      -1.525  -1.343  -2.785  1.00  0.00    -0.036 A 
HETATM   28  C   UNL     1      -1.539  -0.046  -3.325  1.00  0.00     0.009 A 
HETATM   29  C   UNL     1      -1.380   0.160  -4.697  1.00  0.00     0.001 A 
HETATM   30  C   UNL     1      -1.196  -0.925  -5.550  1.00  0.00     0.000 A 
HETATM   31  C   UNL     1      -1.169  -2.217  -5.030  1.00  0.00     0.001 A 
HETATM   32  C   UNL     1      -1.329  -2.424  -3.658  1.00  0.00     0.009 A 
ENDBRANCH  25  27
ENDBRANCH  22  25
ENDBRANCH  20  21
ENDBRANCH   1  20
BRANCH   8  33
HETATM   33  C   UNL     1       6.034   3.421   3.177  1.00  0.00     0.278 C 
BRANCH  33  34
HETATM   34  O   UNL     1       6.410   2.663   4.321  1.00  0.00    -0.342 OA
BRANCH  34  35
HETATM   35  C   UNL     1       7.731   2.719   4.674  1.00  0.00     0.069 A 
HETATM   36  C   UNL     1       8.787   3.054   3.825  1.00  0.00     0.037 A 
HETATM   37  C   UNL     1      10.100   3.059   4.306  1.00  0.00     0.003 A 
HETATM   38  C   UNL     1      10.362   2.730   5.635  1.00  0.00     0.000 A 
HETATM   39  C   UNL     1       9.312   2.386   6.484  1.00  0.00     0.003 A 
HETATM   40  C   UNL     1       8.002   2.374   6.001  1.00  0.00     0.037 A 
ENDBRANCH  34  35
ENDBRANCH  33  34
ENDBRANCH   8  33
TORSDOF 8
