REMARK  4 active torsions:
REMARK  status: ('A' for Active; 'I' for Inactive)
REMARK    1  A    between atoms: N_6  and  N_7 
REMARK       I    between atoms: N_7  and  C_8 
REMARK    2  A    between atoms: C_8  and  C_9 
REMARK    3  A    between atoms: C_10  and  O_11 
REMARK    4  A    between atoms: C_14  and  N_15 
ROOT
HETATM    1  N   UNL     1       7.452  -0.784   0.147  1.00  0.00    -0.242 N 
HETATM    2  C   UNL     1       8.578  -1.428  -0.340  1.00  0.00     0.274 C 
HETATM    3  O   UNL     1       8.586  -2.415  -1.071  1.00  0.00    -0.266 OA
HETATM    4  H   UNL     1       7.535   0.044   0.719  1.00  0.00     0.192 HD
ENDROOT
BRANCH   1   5
HETATM    5  N   UNL     1       6.218  -1.314  -0.048  1.00  0.00    -0.166 NA
HETATM    6  C   UNL     1       5.185  -0.531  -0.031  1.00  0.00     0.157 A 
HETATM    7  C   UNL     1       3.754  -1.102  -0.055  1.00  0.00     0.279 A 
HETATM    8  C   UNL     1       5.036   0.932   0.004  1.00  0.00     0.028 A 
HETATM    9  N   UNL     1       2.922  -0.001   0.031  1.00  0.00    -0.316 N 
HETATM   10  O   UNL     1       3.464  -2.277  -0.115  1.00  0.00    -0.265 OA
HETATM   11  C   UNL     1       1.485  -0.070   0.026  1.00  0.00     0.159 C 
HETATM   12  C   UNL     1       3.661   1.188   0.057  1.00  0.00     0.050 A 
HETATM   13  C   UNL     1       3.171   2.483   0.096  1.00  0.00     0.032 A 
HETATM   14  C   UNL     1       4.091   3.535   0.066  1.00  0.00     0.021 A 
HETATM   15  C   UNL     1       5.467   3.273  -0.022  1.00  0.00     0.012 A 
HETATM   16  C   UNL     1       5.956   1.965  -0.068  1.00  0.00     0.035 A 
HETATM   17 BR   UNL     1       6.685   4.719  -0.091  1.00  0.00    -0.051 Br
ENDBRANCH   1   5
BRANCH   2  18
HETATM   18  C   UNL     1       9.875  -0.773  -0.027  1.00  0.00     0.068 A 
HETATM   19  C   UNL     1      10.911  -0.830  -0.967  1.00  0.00     0.081 A 
HETATM   20  C   UNL     1      12.090  -0.125  -0.754  1.00  0.00     0.039 A 
HETATM   21  C   UNL     1      12.255   0.612   0.421  1.00  0.00     0.026 A 
HETATM   22  C   UNL     1      11.276   0.597   1.418  1.00  0.00     0.006 A 
HETATM   23  C   UNL     1      10.069  -0.064   1.169  1.00  0.00     0.043 A 
BRANCH  19  24
HETATM   24  O   UNL     1      10.821  -1.535  -2.137  1.00  0.00    -0.360 OA
HETATM   25  H   UNL     1      10.021  -2.107  -2.086  1.00  0.00     0.217 HD
ENDBRANCH  19  24
BRANCH  22  26
HETATM   26  N   UNL     1      11.402   1.423   2.542  1.00  0.00    -0.303 NA
HETATM   27  H   UNL     1      12.366   1.632   2.787  1.00  0.00     0.124 HD
HETATM   28  H   UNL     1      10.871   1.113   3.350  1.00  0.00     0.124 HD
ENDBRANCH  22  26
ENDBRANCH   2  18
TORSDOF 4
