REMARK  4 active torsions:
REMARK  status: ('A' for Active; 'I' for Inactive)
REMARK    1  A    between atoms: C_5  and  N_6 
REMARK       I    between atoms: N_6  and  C_7 
REMARK    2  A    between atoms: C_7  and  C_8 
REMARK    3  A    between atoms: C_12  and  C_13 
REMARK    4  A    between atoms: N_24  and  C_25 
ROOT
HETATM    1  N   UNL     1       4.766  -2.108   1.250  1.00  0.00    -0.348 N 
HETATM    2  C   UNL     1       4.675  -3.475   1.300  1.00  0.00     0.257 C 
HETATM    3  O   UNL     1       3.745  -4.050   1.863  1.00  0.00    -0.267 OA
HETATM    4  H   UNL     1       5.532  -1.679   0.730  1.00  0.00     0.163 HD
ENDROOT
BRANCH   1   5
HETATM    5  C   UNL     1       3.745  -1.269   1.837  1.00  0.00     0.122 C 
HETATM    6  C   UNL     1       2.483  -1.143   0.952  1.00  0.00     0.039 C 
HETATM    7  C   UNL     1       2.568  -0.073  -0.178  1.00  0.00    -0.040 C 
HETATM    8  C   UNL     1       1.184   0.027  -0.853  1.00  0.00     0.015 C 
HETATM    9  C   UNL     1       3.585  -0.489  -1.261  1.00  0.00     0.015 C 
HETATM   10  C   UNL     1       2.949   1.333   0.385  1.00  0.00     0.069 C 
HETATM   11  C   UNL     1       3.975   1.245   1.469  1.00  0.00     0.047 A 
HETATM   12  C   UNL     1       4.315   0.073   2.126  1.00  0.00     0.008 A 
HETATM   13  N   UNL     1       4.608   2.283   2.151  1.00  0.00    -0.238 N 
HETATM   14  C   UNL     1       5.192   0.467   3.139  1.00  0.00     0.150 A 
HETATM   15  N   UNL     1       5.362   1.784   3.176  1.00  0.00    -0.179 NA
BRANCH  13  16
HETATM   16  C   UNL     1       4.538   3.702   1.986  1.00  0.00     0.058 A 
HETATM   17  C   UNL     1       4.921   4.522   3.065  1.00  0.00     0.031 A 
HETATM   18  C   UNL     1       4.842   5.914   2.973  1.00  0.00     0.002 A 
HETATM   19  C   UNL     1       4.402   6.508   1.795  1.00  0.00     0.000 A 
HETATM   20  C   UNL     1       4.047   5.711   0.710  1.00  0.00     0.002 A 
HETATM   21  C   UNL     1       4.113   4.315   0.804  1.00  0.00     0.031 A 
ENDBRANCH  13  16
ENDBRANCH   1   5
BRANCH   2  22
HETATM   22  C   UNL     1       5.774  -4.240   0.646  1.00  0.00     0.100 A 
HETATM   23  C   UNL     1       6.885  -3.618  -0.138  1.00  0.00     0.261 A 
HETATM   24  O   UNL     1       6.962  -2.404  -0.309  1.00  0.00    -0.267 OA
HETATM   25  N   UNL     1       7.824  -4.479  -0.662  1.00  0.00    -0.322 N 
HETATM   26  C   UNL     1       7.795  -5.842  -0.501  1.00  0.00     0.045 A 
HETATM   27  H   UNL     1       8.582  -4.056  -1.184  1.00  0.00     0.169 HD
HETATM   28  C   UNL     1       6.798  -6.409   0.194  1.00  0.00     0.031 A 
HETATM   29  C   UNL     1       5.766  -5.581   0.776  1.00  0.00     0.025 A 
BRANCH  26  30
HETATM   30  C   UNL     1       8.860  -6.650  -1.100  1.00  0.00    -0.009 A 
HETATM   31  C   UNL     1       8.829  -6.960  -2.465  1.00  0.00     0.013 A 
HETATM   32  C   UNL     1       9.825  -7.760  -3.028  1.00  0.00     0.001 A 
HETATM   33  C   UNL     1      10.858  -8.253  -2.231  1.00  0.00     0.000 A 
HETATM   34  C   UNL     1      10.898  -7.946  -0.872  1.00  0.00     0.001 A 
HETATM   35  C   UNL     1       9.901  -7.148  -0.307  1.00  0.00     0.013 A 
ENDBRANCH  26  30
ENDBRANCH   2  22
TORSDOF 4
