REMARK  8 active torsions:
REMARK  status: ('A' for Active; 'I' for Inactive)
REMARK    1  A    between atoms: C_4  and  S_5 
REMARK    2  A    between atoms: S_5  and  C_6 
REMARK    3  A    between atoms: C_6  and  C_7 
REMARK       I    between atoms: C_7  and  N_8 
REMARK    4  A    between atoms: N_8  and  C_9 
REMARK    5  A    between atoms: C_11  and  C_12 
REMARK    6  A    between atoms: C_23  and  C_24 
REMARK    7  A    between atoms: C_30  and  C_31 
REMARK       I    between atoms: C_31  and  N_32 
REMARK    8  A    between atoms: N_32  and  C_33 
ROOT
HETATM    1  C   UNL     1       1.034  -0.216   0.036  1.00  0.00     0.069 C 
HETATM    2  C   UNL     1       2.533  -0.224  -0.111  1.00  0.00     0.019 C 
HETATM    3  N   UNL     1       3.151   1.016  -0.041  1.00  0.00    -0.353 N 
HETATM    4  C   UNL     1       4.500   1.263  -0.240  1.00  0.00     0.087 C 
HETATM    5  C   UNL     1       5.328   0.208  -0.416  1.00  0.00     0.055 C 
HETATM    6  C   UNL     1       6.791   0.327  -0.811  1.00  0.00     0.019 C 
HETATM    7  N   UNL     1       8.005   0.425  -1.139  1.00  0.00    -0.096 N 
HETATM    8  C   UNL     1       4.824  -1.217  -0.168  1.00  0.00     0.104 C 
HETATM    9  C   UNL     1       3.299  -1.334  -0.232  1.00  0.00     0.046 C 
HETATM   10  H   UNL     1       2.577   1.838   0.133  1.00  0.00     0.166 HD
ENDROOT
BRANCH   4  11
HETATM   11  S   UNL     1       5.095   2.888  -0.006  1.00  0.00    -0.102 SA
BRANCH  11  12
HETATM   12  C   UNL     1       5.690   3.421  -1.639  1.00  0.00     0.184 C 
BRANCH  12  13
HETATM   13  C   UNL     1       6.289   4.834  -1.573  1.00  0.00     0.231 C 
HETATM   14  N   UNL     1       6.864   5.151  -0.354  1.00  0.00    -0.327 N 
HETATM   15  H   UNL     1       6.747   4.446   0.368  1.00  0.00     0.169 HD
HETATM   16  O   UNL     1       6.270   5.557  -2.567  1.00  0.00    -0.272 OA
BRANCH  14  17
HETATM   17  C   UNL     1       7.478   6.349   0.053  1.00  0.00     0.035 A 
HETATM   18  C   UNL     1       7.732   7.428  -0.794  1.00  0.00     0.045 A 
HETATM   19  C   UNL     1       8.347   8.596  -0.304  1.00  0.00     0.050 A 
HETATM   20  C   UNL     1       8.692   8.672   1.055  1.00  0.00     0.016 A 
HETATM   21  C   UNL     1       8.442   7.599   1.904  1.00  0.00     0.003 A 
HETATM   22  C   UNL     1       7.844   6.443   1.403  1.00  0.00     0.029 A 
BRANCH  19  23
HETATM   23  C   UNL     1       8.624   9.770  -1.210  1.00  0.00     0.417 C 
HETATM   24  F   UNL     1       8.451   9.502  -2.533  1.00  0.00    -0.166 F 
HETATM   25  F   UNL     1       7.820  10.835  -0.935  1.00  0.00    -0.166 F 
HETATM   26  F   UNL     1       9.901  10.231  -1.088  1.00  0.00    -0.166 F 
ENDBRANCH  19  23
ENDBRANCH  14  17
ENDBRANCH  12  13
ENDBRANCH  11  12
ENDBRANCH   4  11
BRANCH   8  27
HETATM   27  C   UNL     1       5.383  -1.684   1.187  1.00  0.00    -0.042 A 
HETATM   28  C   UNL     1       4.882  -1.186   2.401  1.00  0.00     0.027 A 
HETATM   29  C   UNL     1       5.456  -1.609   3.589  1.00  0.00     0.116 A 
HETATM   30  N   UNL     1       6.489  -2.471   3.658  1.00  0.00    -0.273 NA
HETATM   31  C   UNL     1       6.958  -2.944   2.483  1.00  0.00     0.116 A 
HETATM   32  C   UNL     1       6.451  -2.586   1.242  1.00  0.00     0.027 A 
ENDBRANCH   8  27
BRANCH   9  33
HETATM   33  C   UNL     1       2.793  -2.738  -0.367  1.00  0.00     0.255 C 
HETATM   34  N   UNL     1       1.769  -2.889  -1.277  1.00  0.00    -0.323 N 
HETATM   35  H   UNL     1       1.454  -2.063  -1.767  1.00  0.00     0.169 HD
HETATM   36  O   UNL     1       3.352  -3.637   0.249  1.00  0.00    -0.268 OA
BRANCH  34  37
HETATM   37  C   UNL     1       1.084  -4.085  -1.592  1.00  0.00     0.035 A 
HETATM   38  C   UNL     1       1.421  -5.340  -1.078  1.00  0.00     0.029 A 
HETATM   39  C   UNL     1       0.686  -6.476  -1.434  1.00  0.00     0.002 A 
HETATM   40  C   UNL     1      -0.397  -6.368  -2.300  1.00  0.00     0.000 A 
HETATM   41  C   UNL     1      -0.744  -5.123  -2.818  1.00  0.00     0.002 A 
HETATM   42  C   UNL     1      -0.004  -3.988  -2.470  1.00  0.00     0.029 A 
ENDBRANCH  34  37
ENDBRANCH   9  33
TORSDOF 8
