REMARK  8 active torsions:
REMARK  status: ('A' for Active; 'I' for Inactive)
REMARK    1  A    between atoms: O_2  and  C_3 
REMARK    2  A    between atoms: C_6  and  C_7 
REMARK    3  A    between atoms: C_11  and  C_12 
REMARK       I    between atoms: C_12  and  N_13 
REMARK    4  A    between atoms: N_13  and  N_14 
REMARK       I    between atoms: N_14  and  C_15 
REMARK    5  A    between atoms: C_15  and  C_16 
REMARK    6  A    between atoms: C_16  and  C_17 
REMARK    7  A    between atoms: C_17  and  C_18 
REMARK    8  A    between atoms: N_20  and  C_21 
ROOT
HETATM    1  C   UNL     1       4.898   4.675  -6.930  1.00  0.00     0.288 C 
HETATM    2  N   UNL     1       5.221   3.650  -7.792  1.00  0.00    -0.262 N 
HETATM    3  O   UNL     1       4.806   4.500  -5.716  1.00  0.00    -0.264 OA
HETATM    4  H   UNL     1       5.270   3.748  -8.803  1.00  0.00     0.190 HD
ENDROOT
BRANCH   2   5
HETATM    5  N   UNL     1       5.528   2.385  -7.277  1.00  0.00    -0.267 N 
HETATM    6  C   UNL     1       5.554   1.334  -8.164  1.00  0.00     0.236 C 
HETATM    7  O   UNL     1       5.442   1.513  -9.379  1.00  0.00    -0.272 OA
HETATM    8  H   UNL     1       5.408   2.276  -6.273  1.00  0.00     0.190 HD
BRANCH   6   9
HETATM    9  C   UNL     1       5.869  -0.037  -7.598  1.00  0.00     0.109 C 
BRANCH   9  10
HETATM   10  C   UNL     1       5.411  -0.322  -6.172  1.00  0.00     0.051 C 
BRANCH  10  11
HETATM   11  C   UNL     1       3.940  -0.215  -5.971  1.00  0.00    -0.021 A 
HETATM   12  C   UNL     1       3.255   0.657  -5.150  1.00  0.00     0.127 A 
HETATM   13  N   UNL     1       1.909   0.366  -5.258  1.00  0.00    -0.245 N 
HETATM   14  N   UNL     1       1.706  -0.651  -6.136  1.00  0.00    -0.180 NA
HETATM   15  C   UNL     1       2.922  -0.997  -6.550  1.00  0.00     0.147 A 
BRANCH  13  16
HETATM   16  C   UNL     1       0.819   0.977  -4.577  1.00  0.00     0.058 A 
HETATM   17  C   UNL     1       1.022   2.027  -3.671  1.00  0.00     0.031 A 
HETATM   18  C   UNL     1      -0.067   2.597  -3.005  1.00  0.00     0.002 A 
HETATM   19  C   UNL     1      -1.358   2.127  -3.238  1.00  0.00     0.000 A 
HETATM   20  C   UNL     1      -1.568   1.087  -4.140  1.00  0.00     0.002 A 
HETATM   21  C   UNL     1      -0.485   0.512  -4.809  1.00  0.00     0.031 A 
ENDBRANCH  13  16
ENDBRANCH  10  11
ENDBRANCH   9  10
ENDBRANCH   6   9
ENDBRANCH   2   5
BRANCH   1  22
HETATM   22  C   UNL     1       4.712   5.957  -7.553  1.00  0.00     0.121 A 
HETATM   23  N   UNL     1       4.468   7.091  -6.830  1.00  0.00    -0.272 N 
HETATM   24  N   UNL     1       4.417   8.213  -7.566  1.00  0.00    -0.174 NA
HETATM   25  H   UNL     1       4.363   7.162  -5.822  1.00  0.00     0.189 HD
HETATM   26  C   UNL     1       4.584   7.795  -8.830  1.00  0.00     0.089 A 
HETATM   27  C   UNL     1       4.752   6.383  -8.866  1.00  0.00     0.071 A 
BRANCH  26  28
HETATM   28  C   UNL     1       4.638   8.722  -9.960  1.00  0.00    -0.005 A 
HETATM   29  C   UNL     1       5.138  10.020  -9.788  1.00  0.00     0.016 A 
HETATM   30  C   UNL     1       5.277  10.886 -10.880  1.00  0.00     0.037 A 
HETATM   31  C   UNL     1       4.910  10.464 -12.157  1.00  0.00     0.068 A 
HETATM   32  C   UNL     1       4.365   9.191 -12.327  1.00  0.00     0.037 A 
HETATM   33  C   UNL     1       4.236   8.321 -11.240  1.00  0.00     0.016 A 
BRANCH  31  34
HETATM   34  O   UNL     1       5.018  11.205 -13.301  1.00  0.00    -0.356 OA
HETATM   35  C   UNL     1       5.961  12.270 -13.265  1.00  0.00     0.210 C 
ENDBRANCH  31  34
ENDBRANCH  26  28
ENDBRANCH   1  22
TORSDOF 8
