REMARK  6 active torsions:
REMARK  status: ('A' for Active; 'I' for Inactive)
REMARK    1  A    between atoms: C_2  and  O_3 
REMARK    2  A    between atoms: C_2  and  C_4 
REMARK    3  A    between atoms: C_2  and  C_11 
REMARK    4  A    between atoms: C_11  and  N_12 
REMARK       I    between atoms: N_12  and  C_13 
REMARK    5  A    between atoms: C_13  and  C_14 
REMARK    6  A    between atoms: C_15  and  C_16 
ROOT
HETATM    1  N   UNL     1       4.287  -1.594   0.428  1.00  0.00    -0.354 N 
HETATM    2  C   UNL     1       4.934  -2.329   1.400  1.00  0.00     0.255 C 
HETATM    3  O   UNL     1       4.328  -2.930   2.280  1.00  0.00    -0.268 OA
HETATM    4  H   UNL     1       4.833  -1.045  -0.218  1.00  0.00     0.162 HD
ENDROOT
BRANCH   2   5
HETATM    5  C   UNL     1       6.389  -2.310   1.310  1.00  0.00     0.080 A 
HETATM    6  C   UNL     1       7.363  -2.635   2.315  1.00  0.00     0.104 A 
HETATM    7  N   UNL     1       8.611  -2.542   1.819  1.00  0.00    -0.174 NA
HETATM    8  N   UNL     1       8.449  -2.162   0.551  1.00  0.00    -0.288 N 
HETATM    9  H   UNL     1       9.280  -2.034  -0.018  1.00  0.00     0.188 HD
HETATM   10  C   UNL     1       7.148  -2.005   0.191  1.00  0.00     0.128 A 
BRANCH   6  11
HETATM   11  C   UNL     1       7.178  -3.017   3.719  1.00  0.00    -0.004 A 
HETATM   12  C   UNL     1       7.983  -4.025   4.279  1.00  0.00     0.017 A 
HETATM   13  C   UNL     1       7.839  -4.391   5.619  1.00  0.00     0.043 A 
HETATM   14  C   UNL     1       6.892  -3.747   6.405  1.00  0.00     0.116 A 
HETATM   15  F   UNL     1       6.752  -4.097   7.690  1.00  0.00    -0.206 F 
HETATM   16  C   UNL     1       6.094  -2.740   5.878  1.00  0.00     0.043 A 
HETATM   17  C   UNL     1       6.241  -2.369   4.538  1.00  0.00     0.017 A 
ENDBRANCH   6  11
ENDBRANCH   2   5
BRANCH   1  18
HETATM   18  C   UNL     1       2.838  -1.489   0.369  1.00  0.00     0.165 C 
BRANCH  18  19
HETATM   19  C   UNL     1       2.163  -2.376  -0.719  1.00  0.00     0.097 C 
HETATM   20  C   UNL     1       2.637  -1.919  -2.110  1.00  0.00     0.053 C 
BRANCH  19  21
HETATM   21  O   UNL     1       0.753  -2.077  -0.695  1.00  0.00    -0.384 OA
HETATM   22  H   UNL     1       0.279  -2.884  -0.964  1.00  0.00     0.211 HD
ENDBRANCH  19  21
BRANCH  19  23
HETATM   23  C   UNL     1       2.326  -3.875  -0.452  1.00  0.00    -0.023 A 
HETATM   24  C   UNL     1       2.991  -4.744  -1.335  1.00  0.00     0.013 A 
HETATM   25  C   UNL     1       3.102  -6.109  -1.053  1.00  0.00     0.043 A 
HETATM   26  C   UNL     1       2.552  -6.620   0.114  1.00  0.00     0.116 A 
HETATM   27  F   UNL     1       2.658  -7.929   0.377  1.00  0.00    -0.206 F 
HETATM   28  C   UNL     1       1.891  -5.791   1.007  1.00  0.00     0.043 A 
HETATM   29  C   UNL     1       1.776  -4.429   0.724  1.00  0.00     0.013 A 
ENDBRANCH  19  23
ENDBRANCH  18  19
ENDBRANCH   1  18
TORSDOF 6
