REMARK  3 active torsions:
REMARK  status: ('A' for Active; 'I' for Inactive)
REMARK    1  A    between atoms: C_11  and  N_12 
REMARK       I    between atoms: N_12  and  C_13 
REMARK       I    between atoms: C_13  and  N_14 
REMARK    2  A    between atoms: N_14  and  C_15 
REMARK    3  A    between atoms: C_16  and  O_17 
ROOT
HETATM    1  N   UNL     1       0.840   2.256  -1.578  1.00  0.00    -0.338 N 
HETATM    2  C   UNL     1       0.250   3.344  -0.985  1.00  0.00     0.321 C 
HETATM    3  N   UNL     1       1.056   4.445  -0.870  1.00  0.00    -0.306 N 
HETATM    4  O   UNL     1      -0.925   3.240  -0.656  1.00  0.00    -0.247 OA
HETATM    5  H   UNL     1       0.134   1.538  -1.677  1.00  0.00     0.164 HD
HETATM    6  H   UNL     1       1.569   4.636  -1.719  1.00  0.00     0.171 HD
ENDROOT
BRANCH   1   7
HETATM    7  C   UNL     1       2.250   1.911  -1.499  1.00  0.00     0.091 C 
HETATM    8  C   UNL     1       2.651   0.816  -2.490  1.00  0.00     0.063 C 
HETATM    9  C   UNL     1       2.331  -0.631  -2.081  1.00  0.00     0.121 C 
HETATM   10  N   UNL     1       2.676  -0.861  -0.627  1.00  0.00    -0.059 N 
HETATM   11  C   UNL     1       0.882  -1.051  -2.351  1.00  0.00     0.046 C 
HETATM   12  C   UNL     1       3.236  -1.587  -2.890  1.00  0.00     0.046 C 
HETATM   13  C   UNL     1       2.334   0.174   0.427  1.00  0.00     0.121 C 
HETATM   14  H   UNL     1       3.695  -1.009  -0.577  1.00  0.00     0.279 HD
HETATM   15  H   UNL     1       2.282  -1.768  -0.332  1.00  0.00     0.279 HD
HETATM   16  C   UNL     1       0.868   0.043   0.851  1.00  0.00     0.046 C 
HETATM   17  C   UNL     1       3.199  -0.176   1.657  1.00  0.00     0.046 C 
HETATM   18  C   UNL     1       2.719   1.570  -0.079  1.00  0.00     0.063 C 
ENDBRANCH   1   7
BRANCH   3  19
HETATM   19  C   UNL     1       0.684   5.583  -0.112  1.00  0.00     0.072 A 
HETATM   20  C   UNL     1       0.143   5.494   1.189  1.00  0.00     0.095 A 
HETATM   21  C   UNL     1      -0.235   6.669   1.854  1.00  0.00     0.042 A 
HETATM   22  C   UNL     1      -0.059   7.914   1.245  1.00  0.00     0.045 A 
HETATM   23  C   UNL     1       0.520   7.986  -0.013  1.00  0.00     0.118 A 
HETATM   24  F   UNL     1       0.707   9.181  -0.588  1.00  0.00    -0.206 F 
HETATM   25  C   UNL     1       0.906   6.837  -0.692  1.00  0.00     0.074 A 
BRANCH  20  26
HETATM   26  O   UNL     1       0.122   4.251   1.774  1.00  0.00    -0.354 OA
HETATM   27  C   UNL     1      -0.735   4.095   2.900  1.00  0.00     0.210 C 
ENDBRANCH  20  26
ENDBRANCH   3  19
TORSDOF 3
