REMARK  6 active torsions:
REMARK  status: ('A' for Active; 'I' for Inactive)
REMARK    1  A    between atoms: C_6  and  C_7 
REMARK    2  A    between atoms: N_8  and  N_9 
REMARK       I    between atoms: N_9  and  C_10 
REMARK    3  A    between atoms: C_10  and  C_11 
REMARK    4  A    between atoms: C_14  and  O_15 
REMARK    5  A    between atoms: O_15  and  C_16 
REMARK    6  A    between atoms: C_16  and  C_17 
ROOT
HETATM    1  C   UNL     1       7.326  -0.113  -0.985  1.00  0.00     0.217 C 
HETATM    2  N   UNL     1       7.907  -1.141  -0.114  1.00  0.00    -0.247 N 
HETATM    3  C   UNL     1       9.286  -1.071   0.123  1.00  0.00     0.272 C 
HETATM    4  O   UNL     1       9.973  -1.959   0.614  1.00  0.00    -0.266 OA
HETATM    5  C   UNL     1       9.929   0.229  -0.192  1.00  0.00     0.054 A 
HETATM    6  C   UNL     1       9.092   1.331  -0.416  1.00  0.00     0.026 A 
HETATM    7  N   UNL     1       7.679   1.188  -0.401  1.00  0.00    -0.265 NA
HETATM    8  C   UNL     1      11.317   0.379  -0.146  1.00  0.00     0.019 A 
HETATM    9  C   UNL     1      11.875   1.647  -0.308  1.00  0.00     0.001 A 
HETATM   10  C   UNL     1      11.045   2.756  -0.486  1.00  0.00     0.002 A 
HETATM   11  C   UNL     1       9.657   2.602  -0.522  1.00  0.00     0.024 A 
HETATM   12  H   UNL     1       7.386   1.176   0.576  1.00  0.00     0.130 HD
ENDROOT
BRANCH   2  13
HETATM   13  N   UNL     1       7.056  -1.609   0.987  1.00  0.00    -0.163 NA
HETATM   14  C   UNL     1       6.911  -2.983   1.127  1.00  0.00     0.249 C 
HETATM   15  O   UNL     1       5.833  -3.533   0.918  1.00  0.00    -0.272 OA
HETATM   16  H   UNL     1       6.115  -1.232   0.882  1.00  0.00     0.156 HD
BRANCH  14  17
HETATM   17  C   UNL     1       8.037  -3.764   1.670  1.00  0.00     0.028 A 
HETATM   18  C   UNL     1       8.600  -3.422   2.903  1.00  0.00     0.019 A 
HETATM   19  C   UNL     1       9.651  -4.186   3.414  1.00  0.00     0.038 A 
HETATM   20  C   UNL     1      10.149  -5.280   2.700  1.00  0.00     0.069 A 
HETATM   21  C   UNL     1       9.560  -5.635   1.482  1.00  0.00     0.038 A 
HETATM   22  C   UNL     1       8.494  -4.886   0.973  1.00  0.00     0.019 A 
BRANCH  20  23
HETATM   23  O   UNL     1      11.191  -5.931   3.304  1.00  0.00    -0.348 OA
BRANCH  23  24
HETATM   24  C   UNL     1      11.966  -6.797   2.477  1.00  0.00     0.202 C 
BRANCH  24  25
HETATM   25  C   UNL     1      13.151  -7.244   3.282  1.00  0.00    -0.011 C 
HETATM   26  C   UNL     1      13.495  -8.522   3.491  1.00  0.00     0.009 C 
ENDBRANCH  24  25
ENDBRANCH  23  24
ENDBRANCH  20  23
ENDBRANCH  14  17
ENDBRANCH   2  13
BRANCH   1  27
HETATM   27  C   UNL     1       5.832  -0.226  -1.295  1.00  0.00    -0.014 A 
HETATM   28  C   UNL     1       5.305  -1.330  -2.009  1.00  0.00    -0.052 A 
HETATM   29  C   UNL     1       3.924  -1.380  -2.294  1.00  0.00     0.014 A 
HETATM   30  C   UNL     1       6.153  -2.487  -2.469  1.00  0.00     0.049 C 
HETATM   31  C   UNL     1       3.060  -0.347  -1.920  1.00  0.00    -0.061 A 
HETATM   32  C   UNL     1       1.611  -0.386  -2.306  1.00  0.00     0.048 C 
HETATM   33  C   UNL     1       3.583   0.756  -1.252  1.00  0.00     0.007 A 
HETATM   34  C   UNL     1       4.943   0.811  -0.939  1.00  0.00     0.011 A 
ENDBRANCH   1  27
TORSDOF 6
