REMARK  6 active torsions:
REMARK  status: ('A' for Active; 'I' for Inactive)
REMARK    1  A    between atoms: C_2  and  C_3 
REMARK    2  A    between atoms: C_3  and  N_4 
REMARK       I    between atoms: N_4  and  C_5 
REMARK    3  A    between atoms: C_5  and  C_6 
REMARK    4  A    between atoms: C_11  and  C_12 
REMARK    5  A    between atoms: C_15  and  O_16 
REMARK    6  A    between atoms: C_21  and  C_22 
ROOT
HETATM    1  C   UNL     1       4.527  -3.244  -2.916  1.00  0.00     0.170 A 
HETATM    2  N   UNL     1       4.953  -4.502  -2.638  1.00  0.00    -0.163 NA
HETATM    3  N   UNL     1       4.288  -5.269  -3.517  1.00  0.00    -0.238 N 
HETATM    4  C   UNL     1       3.372  -4.581  -4.268  1.00  0.00     0.145 A 
HETATM    5  N   UNL     1       2.564  -5.225  -5.148  1.00  0.00    -0.365 N 
HETATM    6  C   UNL     1       2.419  -6.676  -5.077  1.00  0.00     0.118 C 
HETATM    7  C   UNL     1       3.790  -7.307  -4.803  1.00  0.00     0.066 C 
HETATM    8  C   UNL     1       4.416  -6.718  -3.526  1.00  0.00     0.221 C 
HETATM    9  C   UNL     1       3.521  -3.258  -3.921  1.00  0.00     0.115 A 
HETATM   10 CL   UNL     1       2.667  -1.940  -4.564  1.00  0.00    -0.077 Cl
HETATM   11  H   UNL     1       1.767  -4.728  -5.549  1.00  0.00     0.162 HD
ENDROOT
BRANCH   6  12
HETATM   12  C   UNL     1       1.830  -7.215  -6.366  1.00  0.00    -0.035 A 
HETATM   13  C   UNL     1       2.251  -6.746  -7.619  1.00  0.00     0.012 A 
HETATM   14  C   UNL     1       1.725  -7.287  -8.795  1.00  0.00     0.037 A 
HETATM   15  C   UNL     1       0.782  -8.314  -8.748  1.00  0.00     0.068 A 
HETATM   16  C   UNL     1       0.356  -8.788  -7.508  1.00  0.00     0.037 A 
HETATM   17  C   UNL     1       0.877  -8.244  -6.327  1.00  0.00     0.012 A 
BRANCH  15  18
HETATM   18  O   UNL     1       0.361  -8.760  -9.970  1.00  0.00    -0.356 OA
HETATM   19  C   UNL     1      -0.511  -9.883  -9.979  1.00  0.00     0.210 C 
ENDBRANCH  15  18
ENDBRANCH   6  12
BRANCH   8  20
HETATM   20  C   UNL     1       5.858  -7.164  -3.413  1.00  0.00     0.409 C 
HETATM   21  F   UNL     1       6.630  -6.679  -4.410  1.00  0.00    -0.169 F 
HETATM   22  F   UNL     1       6.429  -6.830  -2.235  1.00  0.00    -0.169 F 
HETATM   23  F   UNL     1       5.924  -8.520  -3.491  1.00  0.00    -0.169 F 
ENDBRANCH   8  20
BRANCH   1  24
HETATM   24  C   UNL     1       5.094  -2.086  -2.205  1.00  0.00     0.273 C 
HETATM   25  N   UNL     1       6.086  -2.436  -1.313  1.00  0.00    -0.356 N 
HETATM   26  H   UNL     1       6.277  -3.432  -1.232  1.00  0.00     0.162 HD
HETATM   27  O   UNL     1       4.734  -0.928  -2.387  1.00  0.00    -0.266 OA
BRANCH  25  28
HETATM   28  C   UNL     1       6.805  -1.477  -0.510  1.00  0.00     0.122 C 
BRANCH  28  29
HETATM   29  C   UNL     1       6.028  -1.089   0.744  1.00  0.00     0.015 C 
HETATM   30  C   UNL     1       6.810  -0.106   1.599  1.00  0.00     0.006 C 
ENDBRANCH  28  29
ENDBRANCH  25  28
ENDBRANCH   1  24
TORSDOF 6
