REMARK  7 active torsions:
REMARK  status: ('A' for Active; 'I' for Inactive)
REMARK    1  A    between atoms: C_2  and  O_3 
REMARK    2  A    between atoms: O_3  and  C_4 
REMARK    3  A    between atoms: C_7  and  N_8 
REMARK    4  A    between atoms: C_9  and  O_10 
REMARK    5  A    between atoms: C_9  and  C_11 
REMARK       I    between atoms: C_11  and  N_12 
REMARK    6  A    between atoms: N_12  and  C_13 
REMARK    7  A    between atoms: C_13  and  C_14 
ROOT
HETATM    1  N   UNL     1       8.157  -2.080  -2.146  1.00  0.00    -0.254 N 
HETATM    2  C   UNL     1       9.092  -1.142  -2.793  1.00  0.00     0.256 C 
HETATM    3  C   UNL     1       9.936  -1.809  -3.856  1.00  0.00     0.034 A 
HETATM    4  C   UNL     1      10.214  -3.163  -3.702  1.00  0.00     0.048 A 
HETATM    5  N   UNL     1       9.636  -3.841  -2.633  1.00  0.00    -0.308 N 
HETATM    6  C   UNL     1       8.593  -3.372  -1.876  1.00  0.00     0.330 C 
HETATM    7  O   UNL     1       8.091  -4.150  -1.065  1.00  0.00    -0.246 OA
HETATM    8  C   UNL     1      10.517  -1.116  -4.928  1.00  0.00     0.015 A 
HETATM    9  C   UNL     1      11.352  -1.780  -5.828  1.00  0.00     0.001 A 
HETATM   10  C   UNL     1      11.627  -3.136  -5.653  1.00  0.00     0.002 A 
HETATM   11  C   UNL     1      11.065  -3.830  -4.582  1.00  0.00     0.030 A 
HETATM   12  H   UNL     1       9.830  -4.827  -2.497  1.00  0.00     0.170 HD
ENDROOT
BRANCH   2  13
HETATM   13  O   UNL     1       8.387  -0.076  -3.437  1.00  0.00    -0.359 OA
HETATM   14  H   UNL     1       8.307   0.614  -2.750  1.00  0.00     0.213 HD
ENDBRANCH   2  13
BRANCH   2  15
HETATM   15  C   UNL     1      10.021  -0.506  -1.672  1.00  0.00     0.279 C 
HETATM   16  N   UNL     1      10.906  -1.345  -1.028  1.00  0.00    -0.352 N 
HETATM   17  H   UNL     1      10.985  -2.313  -1.315  1.00  0.00     0.162 HD
HETATM   18  O   UNL     1       9.939   0.693  -1.387  1.00  0.00    -0.268 OA
BRANCH  16  19
HETATM   19  C   UNL     1      11.823  -0.851  -0.031  1.00  0.00     0.161 C 
BRANCH  19  20
HETATM   20  C   UNL     1      12.723  -1.956   0.455  1.00  0.00    -0.040 A 
HETATM   21  C   UNL     1      13.907  -2.263  -0.235  1.00  0.00     0.012 A 
HETATM   22  C   UNL     1      14.725  -3.308   0.197  1.00  0.00     0.043 A 
HETATM   23  C   UNL     1      14.358  -4.050   1.313  1.00  0.00     0.116 A 
HETATM   24  F   UNL     1      15.144  -5.053   1.726  1.00  0.00    -0.206 F 
HETATM   25  C   UNL     1      13.185  -3.770   2.003  1.00  0.00     0.043 A 
HETATM   26  C   UNL     1      12.363  -2.727   1.572  1.00  0.00     0.012 A 
ENDBRANCH  19  20
ENDBRANCH  16  19
ENDBRANCH   2  15
BRANCH   1  27
HETATM   27  C   UNL     1       7.014  -1.554  -1.462  1.00  0.00     0.043 A 
HETATM   28  C   UNL     1       6.816  -1.753  -0.091  1.00  0.00     0.032 A 
HETATM   29  C   UNL     1       5.687  -1.230   0.557  1.00  0.00     0.039 A 
HETATM   30  C   UNL     1       4.734  -0.512  -0.163  1.00  0.00     0.068 A 
HETATM   31  C   UNL     1       4.906  -0.345  -1.535  1.00  0.00     0.039 A 
HETATM   32  C   UNL     1       6.033  -0.860  -2.179  1.00  0.00     0.032 A 
BRANCH  30  33
HETATM   33  O   UNL     1       3.595   0.049   0.340  1.00  0.00    -0.352 OA
BRANCH  33  34
HETATM   34  C   UNL     1       3.496   0.148   1.759  1.00  0.00     0.171 C 
HETATM   35  C   UNL     1       2.265   0.979   2.079  1.00  0.00     0.034 C 
ENDBRANCH  33  34
ENDBRANCH  30  33
ENDBRANCH   1  27
TORSDOF 7
