REMARK  4 active torsions:
REMARK  status: ('A' for Active; 'I' for Inactive)
REMARK    1  A    between atoms: C_2  and  C_3 
REMARK    2  A    between atoms: C_3  and  C_4 
REMARK    3  A    between atoms: C_4  and  C_5 
REMARK    4  A    between atoms: C_25  and  N_26 
ROOT
HETATM    1  C   UNL     1       5.013   2.733   0.832  1.00  0.00     0.067 A 
HETATM    2  N   UNL     1       4.432   3.703   1.559  1.00  0.00    -0.177 NA
HETATM    3  N   UNL     1       5.292   4.737   1.489  1.00  0.00    -0.256 N 
HETATM    4  H   UNL     1       5.052   5.607   1.951  1.00  0.00     0.191 HD
HETATM    5  C   UNL     1       6.393   4.452   0.751  1.00  0.00     0.176 A 
HETATM    6  C   UNL     1       6.275   3.149   0.335  1.00  0.00     0.049 A 
HETATM    7  C   UNL     1       7.351   2.556  -0.509  1.00  0.00     0.144 A 
HETATM    8  C   UNL     1       6.775   1.934  -1.809  1.00  0.00     0.246 A 
HETATM    9  O   UNL     1       6.222   2.510  -2.733  1.00  0.00    -0.271 OA
HETATM   10  N   UNL     1       7.016   0.566  -1.752  1.00  0.00    -0.325 N 
HETATM   11  C   UNL     1       7.663   0.211  -0.577  1.00  0.00     0.043 A 
HETATM   12  C   UNL     1       7.895   1.341   0.223  1.00  0.00     0.003 A 
HETATM   13  C   UNL     1       8.038  -1.064  -0.210  1.00  0.00     0.030 A 
HETATM   14  C   UNL     1       8.678  -1.212   1.017  1.00  0.00     0.003 A 
HETATM   15  C   UNL     1       8.931  -0.096   1.834  1.00  0.00     0.007 A 
HETATM   16  C   UNL     1       8.552   1.202   1.448  1.00  0.00    -0.051 A 
HETATM   17  C   UNL     1       8.833   2.357   2.363  1.00  0.00     0.049 C 
HETATM   18  C   UNL     1       8.400   3.601  -0.870  1.00  0.00     0.081 A 
HETATM   19  C   UNL     1       9.462   3.190  -1.877  1.00  0.00     0.021 C 
HETATM   20  N   UNL     1      10.343   2.849  -2.713  1.00  0.00    -0.096 N 
HETATM   21  C   UNL     1       8.374   4.874  -0.394  1.00  0.00     0.140 A 
HETATM   22  O   UNL     1       7.368   5.315   0.486  1.00  0.00    -0.279 OA
HETATM   23  H   UNL     1       6.748  -0.069  -2.491  1.00  0.00     0.169 HD
ENDROOT
BRANCH  21  24
HETATM   24  N   UNL     1       9.282   5.862  -0.702  1.00  0.00    -0.282 NA
HETATM   25  H   UNL     1       9.759   5.756  -1.594  1.00  0.00     0.126 HD
HETATM   26  H   UNL     1       8.885   6.791  -0.581  1.00  0.00     0.126 HD
ENDBRANCH  21  24
BRANCH   1  27
HETATM   27  C   UNL     1       4.289   1.442   0.625  1.00  0.00     0.062 C 
BRANCH  27  28
HETATM   28  C   UNL     1       4.551   0.427   1.738  1.00  0.00     0.006 C 
BRANCH  28  29
HETATM   29  C   UNL     1       3.928  -0.928   1.403  1.00  0.00    -0.004 C 
HETATM   30  C   UNL     1       4.221  -1.959   2.480  1.00  0.00     0.005 C 
ENDBRANCH  28  29
ENDBRANCH  27  28
ENDBRANCH   1  27
TORSDOF 4
