REMARK  8 active torsions:
REMARK  status: ('A' for Active; 'I' for Inactive)
REMARK    1  A    between atoms: C_4  and  O_5 
REMARK    2  A    between atoms: O_5  and  C_6 
REMARK    3  A    between atoms: C_8  and  C_9 
REMARK    4  A    between atoms: C_9  and  N_10 
REMARK    5  A    between atoms: C_9  and  C_14 
REMARK       I    between atoms: N_10  and  C_11 
REMARK       I    between atoms: C_11  and  N_12 
REMARK    6  A    between atoms: C_14  and  C_15 
REMARK       I    between atoms: C_15  and  N_16 
REMARK    7  A    between atoms: N_16  and  N_17 
REMARK       I    between atoms: N_17  and  C_18 
REMARK    8  A    between atoms: C_18  and  C_19 
ROOT
HETATM    1  C   UNL     1       7.223  -1.880  -1.121  1.00  0.00     0.128 C 
ENDROOT
BRANCH   1   2
HETATM    2  C   UNL     1       8.148  -2.477  -0.051  1.00  0.00    -0.032 A 
HETATM    3  C   UNL     1       8.733  -3.750  -0.187  1.00  0.00     0.046 A 
HETATM    4  C   UNL     1       9.601  -4.266   0.783  1.00  0.00     0.076 A 
HETATM    5  C   UNL     1       9.910  -3.506   1.909  1.00  0.00     0.037 A 
HETATM    6  C   UNL     1       9.303  -2.265   2.091  1.00  0.00     0.003 A 
HETATM    7  C   UNL     1       8.421  -1.764   1.130  1.00  0.00     0.009 A 
BRANCH   4   8
HETATM    8  O   UNL     1      10.147  -5.497   0.488  1.00  0.00    -0.311 OA
BRANCH   8   9
HETATM    9  C   UNL     1      10.618  -6.282   1.511  1.00  0.00     0.076 A 
HETATM   10  C   UNL     1       9.826  -6.651   2.601  1.00  0.00     0.037 A 
HETATM   11  C   UNL     1      10.353  -7.488   3.586  1.00  0.00     0.003 A 
HETATM   12  C   UNL     1      11.655  -7.976   3.466  1.00  0.00     0.000 A 
HETATM   13  C   UNL     1      12.432  -7.633   2.359  1.00  0.00     0.003 A 
HETATM   14  C   UNL     1      11.910  -6.791   1.377  1.00  0.00     0.037 A 
ENDBRANCH   8   9
ENDBRANCH   4   8
ENDBRANCH   1   2
BRANCH   1  15
HETATM   15  N   UNL     1       7.164  -2.735  -2.302  1.00  0.00    -0.334 N 
HETATM   16  C   UNL     1       6.002  -2.966  -2.964  1.00  0.00     0.314 C 
HETATM   17  N   UNL     1       6.163  -3.756  -4.050  1.00  0.00    -0.352 N 
HETATM   18  O   UNL     1       4.918  -2.502  -2.644  1.00  0.00    -0.248 OA
HETATM   19  H   UNL     1       6.836  -4.505  -3.982  1.00  0.00     0.160 HD
HETATM   20  H   UNL     1       5.289  -4.016  -4.492  1.00  0.00     0.160 HD
HETATM   21  H   UNL     1       8.017  -2.875  -2.827  1.00  0.00     0.165 HD
ENDBRANCH   1  15
BRANCH   1  22
HETATM   22  C   UNL     1       7.668  -0.459  -1.499  1.00  0.00     0.134 C 
BRANCH  22  23
HETATM   23  C   UNL     1       6.923   0.248  -2.610  1.00  0.00     0.238 C 
HETATM   24  N   UNL     1       5.546   0.232  -2.559  1.00  0.00    -0.267 N 
HETATM   25  H   UNL     1       5.040  -0.589  -2.207  1.00  0.00     0.190 HD
HETATM   26  O   UNL     1       7.534   0.915  -3.450  1.00  0.00    -0.272 OA
BRANCH  24  27
HETATM   27  N   UNL     1       4.887   0.922  -3.592  1.00  0.00    -0.262 N 
HETATM   28  C   UNL     1       3.518   1.104  -3.551  1.00  0.00     0.293 C 
HETATM   29  O   UNL     1       2.801   0.574  -2.704  1.00  0.00    -0.264 OA
HETATM   30  H   UNL     1       5.467   1.448  -4.245  1.00  0.00     0.190 HD
BRANCH  28  31
HETATM   31  C   UNL     1       3.021   1.982  -4.590  1.00  0.00     0.144 A 
HETATM   32  O   UNL     1       3.907   2.584  -5.448  1.00  0.00    -0.317 OA
HETATM   33  C   UNL     1       3.183   3.357  -6.297  1.00  0.00     0.143 A 
HETATM   34  C   UNL     1       1.842   3.263  -6.010  1.00  0.00     0.027 A 
HETATM   35  C   UNL     1       1.736   2.378  -4.910  1.00  0.00     0.045 A 
ENDBRANCH  28  31
ENDBRANCH  24  27
ENDBRANCH  22  23
ENDBRANCH   1  22
TORSDOF 8
