REMARK  6 active torsions:
REMARK  status: ('A' for Active; 'I' for Inactive)
REMARK    1  A    between atoms: C_2  and  O_3 
REMARK    2  A    between atoms: C_2  and  C_4 
REMARK    3  A    between atoms: C_7  and  N_8 
REMARK       I    between atoms: N_8  and  C_9 
REMARK    4  A    between atoms: C_9  and  C_10 
REMARK    5  A    between atoms: C_13  and  C_14 
REMARK    6  A    between atoms: C_19  and  C_20 
ROOT
HETATM    1  C   UNL     1       4.011   2.138  -5.705  1.00  0.00     0.096 A 
HETATM    2  C   UNL     1       3.212   1.044  -5.428  1.00  0.00     0.138 A 
HETATM    3  N   UNL     1       3.942  -0.060  -5.807  1.00  0.00    -0.240 N 
HETATM    4  C   UNL     1       3.461  -1.428  -5.732  1.00  0.00     0.221 C 
HETATM    5  C   UNL     1       2.175  -1.502  -4.884  1.00  0.00     0.066 C 
HETATM    6  C   UNL     1       1.218  -0.342  -5.206  1.00  0.00     0.118 C 
HETATM    7  N   UNL     1       1.944   0.913  -4.945  1.00  0.00    -0.365 N 
HETATM    8  N   UNL     1       5.080   0.248  -6.446  1.00  0.00    -0.181 NA
HETATM    9  C   UNL     1       5.131   1.581  -6.366  1.00  0.00     0.160 A 
HETATM   10  H   UNL     1       1.327   1.727  -4.960  1.00  0.00     0.161 HD
ENDROOT
BRANCH   1  11
HETATM   11  C   UNL     1       3.758   3.545  -5.456  1.00  0.00     0.261 C 
HETATM   12  N   UNL     1       2.974   3.765  -4.339  1.00  0.00    -0.323 N 
HETATM   13  H   UNL     1       2.793   2.946  -3.769  1.00  0.00     0.169 HD
HETATM   14  O   UNL     1       4.257   4.406  -6.170  1.00  0.00    -0.267 OA
BRANCH  12  15
HETATM   15  C   UNL     1       2.524   5.000  -3.836  1.00  0.00     0.035 A 
HETATM   16  C   UNL     1       2.621   6.203  -4.534  1.00  0.00     0.030 A 
HETATM   17  C   UNL     1       2.149   7.394  -3.969  1.00  0.00     0.012 A 
HETATM   18  C   UNL     1       1.573   7.403  -2.692  1.00  0.00    -0.030 A 
HETATM   19  C   UNL     1       1.482   6.193  -1.992  1.00  0.00     0.012 A 
HETATM   20  C   UNL     1       1.941   5.002  -2.564  1.00  0.00     0.030 A 
BRANCH  18  21
HETATM   21  C   UNL     1       1.103   8.706  -2.082  1.00  0.00     0.147 C 
HETATM   22  C   UNL     1       2.139   9.298  -1.138  1.00  0.00     0.044 C 
BRANCH  21  23
HETATM   23  O   UNL     1      -0.116   8.512  -1.367  1.00  0.00    -0.391 OA
HETATM   24  H   UNL     1      -0.676   7.938  -1.918  1.00  0.00     0.210 HD
ENDBRANCH  21  23
ENDBRANCH  18  21
ENDBRANCH  12  15
ENDBRANCH   1  11
BRANCH   4  25
HETATM   25  C   UNL     1       4.505  -2.350  -5.141  1.00  0.00     0.409 C 
HETATM   26  F   UNL     1       4.891  -1.962  -3.904  1.00  0.00    -0.169 F 
HETATM   27  F   UNL     1       3.980  -3.599  -5.004  1.00  0.00    -0.169 F 
HETATM   28  F   UNL     1       5.606  -2.488  -5.905  1.00  0.00    -0.169 F 
ENDBRANCH   4  25
BRANCH   6  29
HETATM   29  C   UNL     1       0.599  -0.410  -6.603  1.00  0.00    -0.035 A 
HETATM   30  C   UNL     1      -0.051  -1.591  -7.019  1.00  0.00     0.012 A 
HETATM   31  C   UNL     1      -0.628  -1.691  -8.288  1.00  0.00     0.043 A 
HETATM   32  C   UNL     1      -0.581  -0.605  -9.150  1.00  0.00     0.116 A 
HETATM   33  F   UNL     1      -1.137  -0.701 -10.365  1.00  0.00    -0.206 F 
HETATM   34  C   UNL     1       0.027   0.579  -8.765  1.00  0.00     0.043 A 
HETATM   35  C   UNL     1       0.609   0.678  -7.498  1.00  0.00     0.012 A 
ENDBRANCH   6  29
TORSDOF 6
