REMARK  6 active torsions:
REMARK  status: ('A' for Active; 'I' for Inactive)
REMARK    1  A    between atoms: C_3  and  C_4 
REMARK    2  A    between atoms: C_4  and  C_5 
REMARK    3  A    between atoms: N_8  and  C_10 
REMARK    4  A    between atoms: C_10  and  C_11 
REMARK    5  A    between atoms: N_24  and  C_25 
REMARK    6  A    between atoms: C_25  and  C_26 
ROOT
HETATM    1  C   UNL     1       8.069   3.121   0.889  1.00  0.00     0.149 C 
HETATM    2  N   UNL     1       6.698   2.676   0.671  1.00  0.00    -0.220 NA
HETATM    3  C   UNL     1       5.838   3.191   1.609  1.00  0.00     0.304 C 
HETATM    4  O   UNL     1       4.632   3.026   1.564  1.00  0.00    -0.253 OA
HETATM    5  N   UNL     1       6.554   3.833   2.562  1.00  0.00    -0.270 N 
HETATM    6  C   UNL     1       7.872   3.910   2.203  1.00  0.00     0.257 C 
HETATM    7  O   UNL     1       8.774   4.421   2.852  1.00  0.00    -0.270 OA
HETATM    8  H   UNL     1       6.332   2.708  -0.280  1.00  0.00     0.134 HD
ENDROOT
BRANCH   1   9
HETATM    9  C   UNL     1       8.496   3.981  -0.297  1.00  0.00     0.067 A 
HETATM   10  C   UNL     1       9.454   4.986  -0.200  1.00  0.00     0.030 A 
HETATM   11  C   UNL     1       9.830   5.669  -1.356  1.00  0.00     0.003 A 
HETATM   12  C   UNL     1       9.254   5.333  -2.575  1.00  0.00     0.019 A 
HETATM   13  C   UNL     1       8.317   4.318  -2.595  1.00  0.00     0.117 A 
HETATM   14  N   UNL     1       7.935   3.629  -1.496  1.00  0.00    -0.263 NA
ENDBRANCH   1   9
BRANCH   1  15
HETATM   15  C   UNL     1       9.063   1.923   1.110  1.00  0.00     0.028 C 
HETATM   16  C   UNL     1       9.233   0.983  -0.097  1.00  0.00     0.035 C 
HETATM   17  C   UNL     1       8.001   0.141  -0.385  1.00  0.00     0.235 C 
HETATM   18  N   UNL     1       7.560  -0.634   0.837  1.00  0.00    -0.067 N 
HETATM   19  H   UNL     1       8.222  -1.415   0.949  1.00  0.00     0.280 HD
HETATM   20  C   UNL     1       7.544   0.122   2.144  1.00  0.00     0.235 C 
HETATM   21  C   UNL     1       8.759   1.018   2.319  1.00  0.00     0.035 C 
BRANCH  18  22
HETATM   22  C   UNL     1       6.183  -1.270   0.631  1.00  0.00     0.278 C 
BRANCH  22  23
HETATM   23  C   UNL     1       6.054  -2.153  -0.572  1.00  0.00     0.028 A 
HETATM   24  C   UNL     1       5.267  -1.835  -1.688  1.00  0.00     0.045 A 
HETATM   25 CL   UNL     1       4.409  -0.342  -1.803  1.00  0.00    -0.084 Cl
HETATM   26  C   UNL     1       5.172  -2.720  -2.767  1.00  0.00     0.024 A 
HETATM   27  C   UNL     1       5.863  -3.932  -2.746  1.00  0.00     0.005 A 
HETATM   28  C   UNL     1       6.657  -4.256  -1.650  1.00  0.00     0.043 A 
HETATM   29  C   UNL     1       6.745  -3.368  -0.583  1.00  0.00     0.126 A 
HETATM   30  F   UNL     1       7.534  -3.671   0.457  1.00  0.00    -0.205 F 
ENDBRANCH  22  23
ENDBRANCH  18  22
ENDBRANCH   1  15
BRANCH   5  31
HETATM   31  C   UNL     1       5.955   4.415   3.752  1.00  0.00     0.168 C 
BRANCH  31  32
HETATM   32  C   UNL     1       5.238   5.736   3.464  1.00  0.00     0.140 C 
HETATM   33  O   UNL     1       6.206   6.793   3.316  1.00  0.00    -0.384 OA
HETATM   34  C   UNL     1       5.856   7.858   4.212  1.00  0.00     0.168 C 
HETATM   35  C   UNL     1       4.403   7.649   4.571  1.00  0.00     0.029 C 
HETATM   36  C   UNL     1       4.313   6.145   4.604  1.00  0.00     0.036 C 
ENDBRANCH  31  32
ENDBRANCH   5  31
TORSDOF 6
