REMARK  8 active torsions:
REMARK  status: ('A' for Active; 'I' for Inactive)
REMARK    1  A    between atoms: C_2  and  C_3 
REMARK    2  A    between atoms: C_3  and  N_4 
REMARK    3  A    between atoms: C_7  and  C_8 
REMARK       I    between atoms: C_8  and  N_9 
REMARK    4  A    between atoms: N_9  and  N_10 
REMARK       I    between atoms: N_10  and  C_11 
REMARK    5  A    between atoms: C_11  and  C_12 
REMARK    6  A    between atoms: C_12  and  O_13 
REMARK    7  A    between atoms: O_13  and  C_14 
REMARK    8  A    between atoms: C_23  and  C_24 
ROOT
HETATM    1  C   UNL     1       0.519  -0.729  -4.701  1.00  0.00     0.273 C 
HETATM    2  N   UNL     1       0.926  -1.054  -5.985  1.00  0.00    -0.263 N 
HETATM    3  O   UNL     1      -0.502  -0.075  -4.500  1.00  0.00    -0.266 OA
HETATM    4  H   UNL     1       1.892  -1.324  -6.170  1.00  0.00     0.190 HD
ENDROOT
BRANCH   2   5
HETATM    5  N   UNL     1       0.242  -0.473  -7.069  1.00  0.00    -0.265 N 
HETATM    6  C   UNL     1       1.007   0.092  -8.072  1.00  0.00     0.260 C 
HETATM    7  O   UNL     1       2.232  -0.033  -8.113  1.00  0.00    -0.269 OA
HETATM    8  H   UNL     1      -0.714  -0.172  -6.884  1.00  0.00     0.190 HD
BRANCH   6   9
HETATM    9  C   UNL     1       0.212   0.860  -9.118  1.00  0.00     0.280 C 
BRANCH   9  10
HETATM   10  O   UNL     1      -0.235  -0.064 -10.103  1.00  0.00    -0.342 OA
BRANCH  10  11
HETATM   11  C   UNL     1      -0.698   0.480 -11.271  1.00  0.00     0.069 A 
HETATM   12  C   UNL     1      -0.696  -0.385 -12.369  1.00  0.00     0.043 A 
HETATM   13  C   UNL     1      -1.141   0.046 -13.627  1.00  0.00    -0.059 A 
HETATM   14  C   UNL     1      -1.131  -0.877 -14.808  1.00  0.00     0.048 C 
HETATM   15  C   UNL     1      -1.614   1.355 -13.765  1.00  0.00     0.007 A 
HETATM   16  C   UNL     1      -1.634   2.216 -12.668  1.00  0.00     0.003 A 
HETATM   17  C   UNL     1      -1.178   1.781 -11.422  1.00  0.00     0.037 A 
ENDBRANCH  10  11
ENDBRANCH   9  10
ENDBRANCH   6   9
ENDBRANCH   2   5
BRANCH   1  18
HETATM   18  C   UNL     1       1.387  -1.259  -3.663  1.00  0.00     0.077 A 
HETATM   19  C   UNL     1       1.987  -2.544  -3.697  1.00  0.00     0.158 A 
HETATM   20  N   UNL     1       2.738  -2.804  -2.633  1.00  0.00    -0.183 NA
HETATM   21  N   UNL     1       2.630  -1.692  -1.882  1.00  0.00    -0.268 N 
HETATM   22  C   UNL     1       1.831  -0.720  -2.459  1.00  0.00     0.052 A 
BRANCH  21  23
HETATM   23  C   UNL     1       3.299  -1.644  -0.580  1.00  0.00     0.106 C 
HETATM   24  C   UNL     1       4.549  -2.532  -0.500  1.00  0.00     0.034 C 
BRANCH  23  25
HETATM   25  C   UNL     1       2.320  -1.913   0.580  1.00  0.00     0.022 C 
HETATM   26  C   UNL     1       1.694  -3.302   0.587  1.00  0.00     0.007 C 
ENDBRANCH  23  25
ENDBRANCH  21  23
BRANCH  22  27
HETATM   27  C   UNL     1       1.585   0.651  -1.822  1.00  0.00     0.038 A 
HETATM   28  C   UNL     1       1.296   1.857  -2.682  1.00  0.00     0.011 A 
HETATM   29  C   UNL     1       0.213   1.276  -1.835  1.00  0.00     0.011 A 
ENDBRANCH  22  27
ENDBRANCH   1  18
TORSDOF 8
