REMARK  8 active torsions:
REMARK  status: ('A' for Active; 'I' for Inactive)
REMARK    1  A    between atoms: C_6  and  N_7 
REMARK    2  A    between atoms: N_7  and  C_8 
REMARK    3  A    between atoms: C_8  and  N_9 
REMARK    4  A    between atoms: N_9  and  C_10 
REMARK    5  A    between atoms: N_9  and  C_25 
REMARK    6  A    between atoms: C_10  and  C_11 
REMARK    7  A    between atoms: C_25  and  C_26 
REMARK    8  A    between atoms: C_26  and  N_27 
ROOT
HETATM    1  N   UNL     1      -3.345  -1.476  -0.627  1.00  0.00    -0.352 N 
ENDROOT
BRANCH   1   2
HETATM    2  C   UNL     1      -2.286  -2.347  -0.763  1.00  0.00     0.174 C 
HETATM    3  S   UNL     1      -1.932  -3.037  -2.250  1.00  0.00    -0.041 SA
BRANCH   2   4
HETATM    4  N   UNL     1      -1.340  -2.457   0.204  1.00  0.00    -0.333 N 
HETATM    5  H   UNL     1      -0.482  -2.892  -0.132  1.00  0.00     0.168 HD
BRANCH   4   6
HETATM    6  C   UNL     1      -1.426  -2.404   1.611  1.00  0.00     0.035 A 
HETATM    7  C   UNL     1      -0.218  -2.371   2.317  1.00  0.00     0.053 A 
HETATM    8  C   UNL     1      -0.219  -2.323   3.712  1.00  0.00     0.036 A 
HETATM    9  C   UNL     1      -1.418  -2.332   4.417  1.00  0.00     0.024 A 
HETATM   10 CL   UNL     1       1.275  -2.244   4.559  1.00  0.00    -0.084 Cl
HETATM   11  C   UNL     1      -2.623  -2.403   3.721  1.00  0.00     0.004 A 
HETATM   12  C   UNL     1      -2.625  -2.447   2.323  1.00  0.00     0.029 A 
ENDBRANCH   4   6
ENDBRANCH   2   4
ENDBRANCH   1   2
BRANCH   1  13
HETATM   13  C   UNL     1      -4.710  -2.050  -0.646  1.00  0.00     0.169 C 
BRANCH  13  14
HETATM   14  C   UNL     1      -5.479  -1.749  -1.903  1.00  0.00     0.029 A 
HETATM   15  C   UNL     1      -6.302  -0.501  -1.925  1.00  0.00     0.253 A 
HETATM   16  O   UNL     1      -6.205   0.346  -1.041  1.00  0.00    -0.268 OA
HETATM   17  N   UNL     1      -7.158  -0.319  -2.975  1.00  0.00    -0.322 N 
HETATM   18  C   UNL     1      -7.303  -1.228  -4.029  1.00  0.00     0.048 A 
HETATM   19  H   UNL     1      -7.733   0.514  -2.949  1.00  0.00     0.169 HD
HETATM   20  C   UNL     1      -6.512  -2.396  -4.033  1.00  0.00    -0.006 A 
HETATM   21  C   UNL     1      -8.226  -0.970  -5.044  1.00  0.00     0.070 A 
HETATM   22  C   UNL     1      -6.643  -3.324  -5.073  1.00  0.00     0.053 A 
HETATM   23  C   UNL     1      -5.605  -2.635  -2.909  1.00  0.00     0.028 A 
HETATM   24  C   UNL     1      -7.564  -3.049  -6.063  1.00  0.00     0.106 A 
HETATM   25  C   UNL     1      -8.333  -1.909  -6.047  1.00  0.00     0.107 A 
HETATM   26  O   UNL     1      -7.834  -3.840  -7.136  1.00  0.00    -0.323 OA
HETATM   27  O   UNL     1      -9.182  -1.841  -7.108  1.00  0.00    -0.323 OA
HETATM   28  C   UNL     1      -8.880  -3.082  -7.782  1.00  0.00     0.352 A 
ENDBRANCH  13  14
ENDBRANCH   1  13
BRANCH   1  29
HETATM   29  C   UNL     1      -3.209  -0.145   0.007  1.00  0.00     0.153 C 
BRANCH  29  30
HETATM   30  C   UNL     1      -1.922   0.632  -0.327  1.00  0.00     0.254 C 
BRANCH  30  31
HETATM   31  N   UNL     1      -1.584   0.588  -1.805  1.00  0.00    -0.066 N 
HETATM   32  H   UNL     1      -1.662  -0.397  -2.102  1.00  0.00     0.280 HD
HETATM   33  C   UNL     1      -2.549   1.372  -2.685  1.00  0.00     0.261 C 
HETATM   34  C   UNL     1      -2.105   1.262  -4.150  1.00  0.00     0.195 C 
HETATM   35  O   UNL     1      -0.762   1.733  -4.316  1.00  0.00    -0.388 OA
HETATM   36  C   UNL     1       0.166   0.954  -3.554  1.00  0.00     0.195 C 
HETATM   37  C   UNL     1      -0.152   1.037  -2.059  1.00  0.00     0.261 C 
ENDBRANCH  30  31
ENDBRANCH  29  30
ENDBRANCH   1  29
TORSDOF 8
