REMARK  9 active torsions:
REMARK  status: ('A' for Active; 'I' for Inactive)
REMARK    1  A    between atoms: C_3  and  C_4 
REMARK    2  A    between atoms: C_4  and  C_5 
REMARK    3  A    between atoms: C_5  and  O_6 
REMARK    4  A    between atoms: C_16  and  O_17 
REMARK    5  A    between atoms: C_18  and  C_19 
REMARK    6  A    between atoms: C_19  and  N_20 
REMARK    7  A    between atoms: N_20  and  C_23 
REMARK    8  A    between atoms: N_26  and  C_28 
REMARK    9  A    between atoms: C_28  and  C_29 
ROOT
HETATM    1  C   UNL     1       4.438   0.428  -3.728  1.00  0.00     0.050 C 
HETATM    2  C   UNL     1       5.054   0.313  -2.356  1.00  0.00    -0.036 C 
HETATM    3  C   UNL     1       6.076  -0.520  -2.062  1.00  0.00     0.034 C 
HETATM    4  C   UNL     1       6.567  -0.677  -0.666  1.00  0.00     0.295 C 
HETATM    5  O   UNL     1       7.586  -1.303  -0.405  1.00  0.00    -0.259 OA
HETATM    6  O   UNL     1       5.809  -0.094   0.331  1.00  0.00    -0.274 OA
HETATM    7  C   UNL     1       4.850   0.895   0.048  1.00  0.00     0.099 A 
HETATM    8  C   UNL     1       4.495   1.155  -1.278  1.00  0.00     0.006 A 
HETATM    9  C   UNL     1       4.352   1.631   1.140  1.00  0.00     0.007 A 
HETATM   10  C   UNL     1       4.757   1.286   2.549  1.00  0.00     0.054 C 
HETATM   11  C   UNL     1       3.520   2.718   0.853  1.00  0.00     0.082 A 
HETATM   12  C   UNL     1       3.178   3.046  -0.470  1.00  0.00     0.002 A 
HETATM   13  C   UNL     1       3.647   2.244  -1.522  1.00  0.00     0.026 A 
ENDROOT
BRANCH  12  14
HETATM   14  C   UNL     1       2.398   4.296  -0.761  1.00  0.00     0.274 C 
BRANCH  14  15
HETATM   15  N   UNL     1       3.264   5.485  -0.448  1.00  0.00    -0.067 N 
HETATM   16  H   UNL     1       3.810   5.221   0.383  1.00  0.00     0.277 HD
HETATM   17  H   UNL     1       3.981   5.490  -1.194  1.00  0.00     0.277 HD
BRANCH  15  18
HETATM   18  C   UNL     1       2.691   6.872  -0.360  1.00  0.00     0.189 C 
HETATM   19  C   UNL     1       1.245   6.948   0.124  1.00  0.00     0.060 C 
HETATM   20  C   UNL     1       1.052   7.034   1.635  1.00  0.00     0.237 C 
HETATM   21  N   UNL     1       2.284   6.584   2.372  1.00  0.00    -0.067 N 
HETATM   22  H   UNL     1       2.464   5.598   2.131  1.00  0.00     0.280 HD
HETATM   23  C   UNL     1       3.500   7.410   2.035  1.00  0.00     0.237 C 
HETATM   24  C   UNL     1       3.596   7.718   0.537  1.00  0.00     0.060 C 
BRANCH  21  25
HETATM   25  C   UNL     1       2.067   6.483   3.899  1.00  0.00     0.273 C 
BRANCH  25  26
HETATM   26  C   UNL     1       1.187   7.533   4.515  1.00  0.00    -0.033 A 
HETATM   27  C   UNL     1      -0.170   7.254   4.759  1.00  0.00     0.009 A 
HETATM   28  C   UNL     1      -1.010   8.231   5.289  1.00  0.00     0.001 A 
HETATM   29  C   UNL     1      -0.509   9.494   5.586  1.00  0.00     0.000 A 
HETATM   30  C   UNL     1       0.836   9.780   5.364  1.00  0.00     0.001 A 
HETATM   31  C   UNL     1       1.684   8.804   4.836  1.00  0.00     0.009 A 
ENDBRANCH  25  26
ENDBRANCH  21  25
ENDBRANCH  15  18
ENDBRANCH  14  15
ENDBRANCH  12  14
BRANCH  11  32
HETATM   32  O   UNL     1       3.061   3.555   1.850  1.00  0.00    -0.359 OA
HETATM   33  H   UNL     1       3.050   2.999   2.662  1.00  0.00     0.217 HD
ENDBRANCH  11  32
BRANCH   3  34
HETATM   34  C   UNL     1       6.849  -1.372  -3.045  1.00  0.00     0.156 C 
BRANCH  34  35
HETATM   35  C   UNL     1       6.591  -2.847  -2.803  1.00  0.00     0.262 C 
HETATM   36  O   UNL     1       5.611  -3.299  -2.225  1.00  0.00    -0.265 OA
BRANCH  35  37
HETATM   37  O   UNL     1       7.587  -3.578  -3.373  1.00  0.00    -0.326 OA
HETATM   38  C   UNL     1       7.482  -4.989  -3.172  1.00  0.00     0.213 C 
ENDBRANCH  35  37
ENDBRANCH  34  35
ENDBRANCH   3  34
TORSDOF 9
