REMARK  10 active torsions:
REMARK  status: ('A' for Active; 'I' for Inactive)
REMARK    1  A    between atoms: C_2  and  O_3 
REMARK    2  A    between atoms: O_3  and  C_4 
REMARK    3  A    between atoms: C_7  and  C_8 
REMARK    4  A    between atoms: C_8  and  C_9 
REMARK    5  A    between atoms: C_10  and  C_11 
REMARK    6  A    between atoms: C_14  and  N_15 
REMARK    7  A    between atoms: N_20  and  C_21 
REMARK    8  A    between atoms: C_21  and  C_22 
REMARK    9  A    between atoms: C_22  and  N_23 
REMARK   10  A    between atoms: C_34  and  O_35 
ROOT
HETATM    1  C   UNL     1       2.621   3.522  -5.738  1.00  0.00     0.059 C 
HETATM    2  C   UNL     1       3.573   2.458  -6.183  1.00  0.00     0.161 C 
HETATM    3  N   UNL     1       3.106   2.200  -7.548  1.00  0.00    -0.332 N 
HETATM    4  C   UNL     1       1.875   2.803  -7.749  1.00  0.00     0.278 C 
HETATM    5  O   UNL     1       1.126   2.571  -8.684  1.00  0.00    -0.265 OA
HETATM    6  C   UNL     1       1.649   3.739  -6.637  1.00  0.00     0.146 C 
ENDROOT
BRANCH   1   7
HETATM    7  C   UNL     1       2.669   4.355  -4.520  1.00  0.00     0.193 C 
HETATM    8  O   UNL     1       1.997   5.386  -4.488  1.00  0.00    -0.287 OA
BRANCH   7   9
HETATM    9  C   UNL     1       3.508   3.998  -3.355  1.00  0.00     0.015 A 
HETATM   10  C   UNL     1       3.656   2.681  -2.906  1.00  0.00     0.018 A 
HETATM   11  C   UNL     1       4.419   2.413  -1.764  1.00  0.00     0.038 A 
HETATM   12  C   UNL     1       5.011   3.460  -1.059  1.00  0.00     0.069 A 
HETATM   13  C   UNL     1       4.826   4.776  -1.472  1.00  0.00     0.038 A 
HETATM   14  C   UNL     1       4.083   5.046  -2.623  1.00  0.00     0.018 A 
BRANCH  12  15
HETATM   15  O   UNL     1       5.664   3.260   0.122  1.00  0.00    -0.347 OA
BRANCH  15  16
HETATM   16  C   UNL     1       6.853   2.464   0.009  1.00  0.00     0.120 C 
HETATM   17  C   UNL     1       6.650   1.166   0.784  1.00  0.00     0.040 C 
HETATM   18  C   UNL     1       7.997   3.270   0.617  1.00  0.00     0.040 C 
ENDBRANCH  15  16
ENDBRANCH  12  15
ENDBRANCH   7   9
ENDBRANCH   1   7
BRANCH   2  19
HETATM   19  C   UNL     1       5.049   2.790  -6.147  1.00  0.00    -0.030 A 
HETATM   20  C   UNL     1       5.953   1.835  -5.643  1.00  0.00     0.012 A 
HETATM   21  C   UNL     1       7.326   2.091  -5.604  1.00  0.00     0.037 A 
HETATM   22  C   UNL     1       7.812   3.317  -6.071  1.00  0.00     0.102 A 
HETATM   23  C   UNL     1       6.929   4.281  -6.575  1.00  0.00     0.037 A 
HETATM   24  C   UNL     1       5.556   4.013  -6.618  1.00  0.00     0.012 A 
BRANCH  22  25
HETATM   25  N   UNL     1       9.257   3.581  -6.052  1.00  0.00    -0.116 N 
HETATM   26  O   UNL     1       9.993   2.688  -5.611  1.00  0.00    -0.532 OA
HETATM   27  O   UNL     1       9.646   4.663  -6.508  1.00  0.00    -0.532 OA
ENDBRANCH  22  25
ENDBRANCH   2  19
BRANCH   6  28
HETATM   28  O   UNL     1       0.620   4.633  -6.606  1.00  0.00    -0.355 OA
HETATM   29  H   UNL     1       0.748   5.208  -5.814  1.00  0.00     0.218 HD
ENDBRANCH   6  28
BRANCH   3  30
HETATM   30  C   UNL     1       3.534   1.043  -8.327  1.00  0.00     0.155 C 
BRANCH  30  31
HETATM   31  C   UNL     1       3.426   1.236  -9.868  1.00  0.00     0.254 C 
BRANCH  31  32
HETATM   32  N   UNL     1       2.631   0.109 -10.555  1.00  0.00    -0.066 N 
HETATM   33  H   UNL     1       3.017  -0.762 -10.156  1.00  0.00     0.280 HD
HETATM   34  C   UNL     1       2.897   0.015 -12.064  1.00  0.00     0.262 C 
HETATM   35  C   UNL     1       2.070   1.037 -12.882  1.00  0.00     0.260 C 
HETATM   36  N   UNL     1       0.602   0.936 -12.554  1.00  0.00    -0.072 N 
HETATM   37  H   UNL     1       0.190   0.061 -12.916  1.00  0.00     0.277 HD
HETATM   38  H   UNL     1       0.095   1.682 -13.063  1.00  0.00     0.277 HD
HETATM   39  C   UNL     1       0.311   1.103 -11.080  1.00  0.00     0.260 C 
HETATM   40  C   UNL     1       1.124   0.084 -10.241  1.00  0.00     0.262 C 
ENDBRANCH  31  32
ENDBRANCH  30  31
ENDBRANCH   3  30
TORSDOF 10
