REMARK  6 active torsions:
REMARK  status: ('A' for Active; 'I' for Inactive)
REMARK    1  A    between atoms: C_3  and  N_4 
REMARK       I    between atoms: N_4  and  C_5 
REMARK    2  A    between atoms: C_5  and  C_6 
REMARK    3  A    between atoms: C_6  and  O_7 
REMARK    4  A    between atoms: O_7  and  C_8 
REMARK    5  A    between atoms: C_10  and  N_11 
REMARK       I    between atoms: N_11  and  C_12 
REMARK    6  A    between atoms: C_12  and  C_13 
ROOT
HETATM    1  C   UNL     1       0.373   1.096   1.115  1.00  0.00     0.278 C 
ENDROOT
BRANCH   1   2
HETATM    2  C   UNL     1       0.999   2.412   0.639  1.00  0.00     0.246 C 
HETATM    3  N   UNL     1       2.314   2.551   1.046  1.00  0.00    -0.323 N 
HETATM    4  H   UNL     1       2.717   1.666   1.342  1.00  0.00     0.169 HD
HETATM    5  O   UNL     1       0.349   3.194  -0.046  1.00  0.00    -0.271 OA
BRANCH   3   6
HETATM    6  C   UNL     1       3.226   3.605   0.784  1.00  0.00     0.065 A 
HETATM    7  C   UNL     1       2.879   4.954   0.599  1.00  0.00    -0.031 A 
HETATM    8  C   UNL     1       1.504   5.533   0.784  1.00  0.00     0.050 C 
HETATM    9  C   UNL     1       3.892   5.868   0.255  1.00  0.00     0.035 A 
HETATM   10  C   UNL     1       5.213   5.453   0.181  1.00  0.00     0.031 A 
HETATM   11  N   UNL     1       5.579   4.184   0.443  1.00  0.00    -0.256 NA
HETATM   12  C   UNL     1       6.293   6.421  -0.194  1.00  0.00     0.070 C 
HETATM   13  C   UNL     1       4.603   3.286   0.741  1.00  0.00     0.058 A 
HETATM   14  C   UNL     1       5.111   1.893   0.999  1.00  0.00     0.073 C 
ENDBRANCH   3   6
ENDBRANCH   1   2
BRANCH   1  15
HETATM   15  O   UNL     1       1.347   0.145   1.543  1.00  0.00    -0.342 OA
BRANCH  15  16
HETATM   16  C   UNL     1       1.345  -0.169   2.874  1.00  0.00     0.071 A 
HETATM   17  C   UNL     1       1.633  -1.504   3.179  1.00  0.00     0.066 A 
HETATM   18  C   UNL     1       1.701  -1.934   4.505  1.00  0.00     0.037 A 
HETATM   19  C   UNL     1       1.496  -0.998   5.527  1.00  0.00     0.029 A 
HETATM   20  C   UNL     1       1.233   0.341   5.226  1.00  0.00     0.005 A 
HETATM   21  C   UNL     1       1.164   0.760   3.898  1.00  0.00     0.037 A 
BRANCH  18  22
HETATM   22  N   UNL     1       1.969  -3.263   4.894  1.00  0.00    -0.327 N 
HETATM   23  C   UNL     1       2.208  -4.346   4.074  1.00  0.00     0.226 C 
HETATM   24  O   UNL     1       2.246  -4.345   2.852  1.00  0.00    -0.273 OA
HETATM   25  H   UNL     1       1.999  -3.431   5.887  1.00  0.00     0.169 HD
BRANCH  23  26
HETATM   26  C   UNL     1       2.455  -5.649   4.767  1.00  0.00     0.078 A 
HETATM   27  C   UNL     1       3.685  -5.808   5.633  1.00  0.00     0.015 A 
HETATM   28  C   UNL     1       2.320  -5.920   6.246  1.00  0.00     0.015 A 
ENDBRANCH  23  26
ENDBRANCH  18  22
ENDBRANCH  15  16
ENDBRANCH   1  15
TORSDOF 6
