REMARK  4 active torsions:
REMARK  status: ('A' for Active; 'I' for Inactive)
REMARK    1  A    between atoms: N_7  and  N_8 
REMARK       I    between atoms: N_8  and  C_9 
REMARK    2  A    between atoms: C_9  and  C_10 
REMARK    3  A    between atoms: C_10  and  N_11 
REMARK    4  A    between atoms: N_11  and  C_12 
ROOT
HETATM    1  N   UNL     1      -3.828   2.137  -0.056  1.00  0.00    -0.245 N 
HETATM    2  C   UNL     1      -4.715   3.191   0.093  1.00  0.00     0.250 C 
HETATM    3  O   UNL     1      -5.919   3.079   0.323  1.00  0.00    -0.270 OA
HETATM    4  H   UNL     1      -2.820   2.308  -0.080  1.00  0.00     0.192 HD
ENDROOT
BRANCH   1   5
HETATM    5  N   UNL     1      -4.285   0.849  -0.042  1.00  0.00    -0.166 NA
HETATM    6  C   UNL     1      -3.393  -0.086  -0.114  1.00  0.00     0.157 A 
HETATM    7  C   UNL     1      -3.661  -1.518  -0.128  1.00  0.00     0.027 A 
HETATM    8  C   UNL     1      -1.870   0.055  -0.207  1.00  0.00     0.277 A 
HETATM    9  C   UNL     1      -4.853  -2.211  -0.088  1.00  0.00     0.016 A 
HETATM   10  C   UNL     1      -2.424  -2.154  -0.210  1.00  0.00     0.048 A 
HETATM   11  C   UNL     1      -4.774  -3.606  -0.132  1.00  0.00     0.001 A 
HETATM   12  C   UNL     1      -3.525  -4.257  -0.212  1.00  0.00     0.002 A 
HETATM   13  C   UNL     1      -2.329  -3.529  -0.251  1.00  0.00     0.030 A 
HETATM   14  N   UNL     1      -1.380  -1.231  -0.250  1.00  0.00    -0.321 N 
HETATM   15  H   UNL     1      -0.398  -1.452  -0.314  1.00  0.00     0.169 HD
HETATM   16  O   UNL     1      -1.276   1.113  -0.244  1.00  0.00    -0.266 OA
ENDBRANCH   1   5
BRANCH   2  17
HETATM   17  C   UNL     1      -4.051   4.564  -0.032  1.00  0.00     0.197 C 
BRANCH  17  18
HETATM   18  N   UNL     1      -3.788   5.151   1.287  1.00  0.00    -0.284 NA
HETATM   19  H   UNL     1      -4.627   5.093   1.867  1.00  0.00     0.128 HD
BRANCH  18  20
HETATM   20  C   UNL     1      -2.636   4.816   2.001  1.00  0.00     0.008 A 
HETATM   21  C   UNL     1      -1.406   4.533   1.396  1.00  0.00     0.025 A 
HETATM   22  C   UNL     1      -0.257   4.293   2.162  1.00  0.00     0.021 A 
HETATM   23  C   UNL     1      -0.322   4.366   3.549  1.00  0.00     0.011 A 
HETATM   24 BR   UNL     1       1.230   4.059   4.582  1.00  0.00    -0.051 Br
HETATM   25  C   UNL     1      -1.521   4.685   4.174  1.00  0.00     0.021 A 
HETATM   26  C   UNL     1      -2.662   4.922   3.401  1.00  0.00     0.025 A 
ENDBRANCH  18  20
ENDBRANCH  17  18
ENDBRANCH   2  17
TORSDOF 4
