REMARK  7 active torsions:
REMARK  status: ('A' for Active; 'I' for Inactive)
REMARK    1  A    between atoms: C_2  and  C_3 
REMARK    2  A    between atoms: C_3  and  N_4 
REMARK       I    between atoms: N_4  and  C_5 
REMARK    3  A    between atoms: C_5  and  C_6 
REMARK    4  A    between atoms: C_7  and  N_8 
REMARK    5  A    between atoms: N_9  and  N_10 
REMARK    6  A    between atoms: C_11  and  C_12 
REMARK    7  A    between atoms: C_13  and  O_14 
ROOT
HETATM    1  C   UNL     1       0.721  -2.338   0.435  1.00  0.00     0.104 C 
HETATM    2  C   UNL     1      -0.471  -3.048   0.501  1.00  0.00     0.123 C 
HETATM    3  N   UNL     1      -1.260  -2.470   1.490  1.00  0.00    -0.202 N 
HETATM    4  C   UNL     1      -0.431  -1.721   2.307  1.00  0.00     0.183 A 
HETATM    5  C   UNL     1       0.793  -1.605   1.651  1.00  0.00     0.124 A 
HETATM    6  N   UNL     1       1.795  -0.854   2.174  1.00  0.00    -0.242 NA
HETATM    7  C   UNL     1       1.537  -0.308   3.370  1.00  0.00     0.086 A 
HETATM    8  C   UNL     1       0.288  -0.460   4.028  1.00  0.00     0.088 A 
HETATM    9  N   UNL     1      -0.735  -1.154   3.500  1.00  0.00    -0.225 NA
HETATM   10  C   UNL     1       2.539   0.429   3.987  1.00  0.00     0.034 A 
HETATM   11  C   UNL     1       2.348   1.018   5.238  1.00  0.00     0.002 A 
HETATM   12  C   UNL     1       1.129   0.870   5.883  1.00  0.00     0.002 A 
HETATM   13  C   UNL     1       0.112   0.136   5.271  1.00  0.00     0.034 A 
ENDROOT
BRANCH   3  14
HETATM   14  N   UNL     1      -2.625  -2.654   1.469  1.00  0.00    -0.176 NA
HETATM   15  C   UNL     1      -3.347  -1.760   2.065  1.00  0.00     0.153 C 
BRANCH  15  16
HETATM   16  C   UNL     1      -4.821  -1.772   1.898  1.00  0.00     0.017 A 
HETATM   17  C   UNL     1      -5.455  -2.637   0.994  1.00  0.00     0.077 A 
HETATM   18  C   UNL     1      -6.830  -2.563   0.786  1.00  0.00     0.039 A 
HETATM   19  C   UNL     1      -7.582  -1.615   1.479  1.00  0.00     0.022 A 
HETATM   20  C   UNL     1      -6.952  -0.753   2.379  1.00  0.00     0.012 A 
HETATM   21 BR   UNL     1      -7.975   0.543   3.300  1.00  0.00    -0.051 Br
HETATM   22  C   UNL     1      -5.574  -0.823   2.594  1.00  0.00     0.034 A 
BRANCH  17  23
HETATM   23  O   UNL     1      -4.776  -3.564   0.250  1.00  0.00    -0.360 OA
HETATM   24  H   UNL     1      -3.827  -3.454   0.475  1.00  0.00     0.217 HD
ENDBRANCH  17  23
ENDBRANCH  15  16
ENDBRANCH   3  14
BRANCH   2  25
HETATM   25  N   UNL     1      -0.964  -4.045  -0.299  1.00  0.00    -0.286 NA
HETATM   26  H   UNL     1      -0.304  -4.765  -0.603  1.00  0.00     0.125 HD
HETATM   27  H   UNL     1      -1.825  -4.494   0.024  1.00  0.00     0.125 HD
ENDBRANCH   2  25
BRANCH   1  28
HETATM   28  C   UNL     1       1.656  -2.312  -0.687  1.00  0.00     0.257 C 
HETATM   29  N   UNL     1       1.131  -2.867  -1.842  1.00  0.00    -0.352 N 
HETATM   30  H   UNL     1       0.160  -3.152  -1.757  1.00  0.00     0.163 HD
HETATM   31  O   UNL     1       2.745  -1.755  -0.647  1.00  0.00    -0.267 OA
BRANCH  29  32
HETATM   32  C   UNL     1       1.578  -2.496  -3.177  1.00  0.00     0.080 C 
HETATM   33  C   UNL     1       2.964  -3.061  -3.487  1.00  0.00     0.032 C 
BRANCH  32  34
HETATM   34  C   UNL     1       0.570  -2.991  -4.234  1.00  0.00     0.020 C 
HETATM   35  C   UNL     1      -0.815  -2.365  -4.097  1.00  0.00     0.007 C 
ENDBRANCH  32  34
ENDBRANCH  29  32
ENDBRANCH   1  28
TORSDOF 7
