REMARK  5 active torsions:
REMARK  status: ('A' for Active; 'I' for Inactive)
REMARK    1  A    between atoms: C_5  and  N_6 
REMARK    2  A    between atoms: C_7  and  N_8 
REMARK    3  A    between atoms: N_8  and  N_9 
REMARK    4  A    between atoms: N_13  and  C_14 
REMARK    5  A    between atoms: C_14  and  N_15 
ROOT
HETATM    1  N   UNL     1       2.000  -2.361  -0.618  1.00  0.00    -0.166 NA
HETATM    2  C   UNL     1       0.728  -2.522  -0.452  1.00  0.00     0.157 A 
HETATM    3  C   UNL     1      -0.137  -3.759  -0.681  1.00  0.00     0.281 A 
HETATM    4  O   UNL     1       0.303  -4.835  -1.036  1.00  0.00    -0.265 OA
HETATM    5  N   UNL     1      -1.429  -3.366  -0.383  1.00  0.00    -0.284 N 
HETATM    6  C   UNL     1      -0.173  -1.475   0.011  1.00  0.00     0.027 A 
HETATM    7  C   UNL     1      -1.452  -2.024   0.045  1.00  0.00     0.052 A 
HETATM    8  C   UNL     1      -2.523  -1.256   0.460  1.00  0.00     0.031 A 
HETATM    9  C   UNL     1      -2.278   0.073   0.832  1.00  0.00     0.002 A 
HETATM   10  C   UNL     1      -0.977   0.612   0.791  1.00  0.00     0.001 A 
HETATM   11  C   UNL     1       0.100  -0.170   0.375  1.00  0.00     0.016 A 
ENDROOT
BRANCH   1  12
HETATM   12  N   UNL     1       2.742  -3.422  -1.056  1.00  0.00    -0.252 N 
HETATM   13  H   UNL     1       2.304  -4.342  -1.077  1.00  0.00     0.191 HD
BRANCH  12  14
HETATM   14  C   UNL     1       4.100  -3.310  -1.197  1.00  0.00     0.192 C 
HETATM   15  N   UNL     1       4.810  -4.346  -1.725  1.00  0.00    -0.332 N 
HETATM   16  H   UNL     1       5.802  -4.178  -1.608  1.00  0.00     0.168 HD
HETATM   17  S   UNL     1       5.010  -1.974  -0.721  1.00  0.00    -0.039 SA
BRANCH  15  18
HETATM   18  C   UNL     1       4.479  -5.487  -2.491  1.00  0.00     0.040 A 
HETATM   19  C   UNL     1       5.501  -6.445  -2.745  1.00  0.00    -0.029 A 
HETATM   20  C   UNL     1       5.233  -7.551  -3.590  1.00  0.00    -0.054 A 
HETATM   21  C   UNL     1       6.881  -6.266  -2.150  1.00  0.00     0.051 C 
HETATM   22  C   UNL     1       6.288  -8.565  -3.946  1.00  0.00     0.049 C 
HETATM   23  C   UNL     1       3.947  -7.717  -4.120  1.00  0.00     0.007 A 
HETATM   24  C   UNL     1       2.951  -6.783  -3.864  1.00  0.00     0.003 A 
HETATM   25  C   UNL     1       3.221  -5.665  -3.075  1.00  0.00     0.030 A 
ENDBRANCH  15  18
ENDBRANCH  12  14
ENDBRANCH   1  12
BRANCH   5  26
HETATM   26  C   UNL     1      -2.567  -4.248  -0.402  1.00  0.00     0.405 C 
BRANCH  26  27
HETATM   27  N   UNL     1      -3.587  -3.738  -1.320  1.00  0.00     0.106 N 
HETATM   28  C   UNL     1      -3.222  -3.891  -2.737  1.00  0.00     0.274 C 
HETATM   29  C   UNL     1      -3.318  -5.328  -3.260  1.00  0.00     0.030 C 
HETATM   30  C   UNL     1      -4.686  -5.936  -2.971  1.00  0.00     0.003 C 
HETATM   31  C   UNL     1      -5.050  -5.777  -1.499  1.00  0.00     0.030 C 
HETATM   32  C   UNL     1      -4.909  -4.320  -1.055  1.00  0.00     0.274 C 
ENDBRANCH  26  27
ENDBRANCH   5  26
TORSDOF 5
