REMARK  8 active torsions:
REMARK  status: ('A' for Active; 'I' for Inactive)
REMARK    1  A    between atoms: C_3  and  N_4 
REMARK       I    between atoms: N_4  and  C_5 
REMARK    2  A    between atoms: C_5  and  C_6 
REMARK    3  A    between atoms: C_6  and  S_7 
REMARK    4  A    between atoms: S_7  and  C_8 
REMARK    5  A    between atoms: N_9  and  C_10 
REMARK    6  A    between atoms: C_10  and  C_11 
REMARK       I    between atoms: C_11  and  N_12 
REMARK    7  A    between atoms: N_12  and  C_13 
REMARK    8  A    between atoms: C_20  and  C_21 
ROOT
HETATM    1  C   UNL     1       0.514   1.842   0.652  1.00  0.00     0.169 A 
HETATM    2  N   UNL     1      -0.749   1.895   0.108  1.00  0.00    -0.315 N 
HETATM    3  C   UNL     1      -0.786   3.009  -0.718  1.00  0.00     0.065 A 
HETATM    4  C   UNL     1       0.517   3.479  -0.706  1.00  0.00     0.150 A 
HETATM    5  N   UNL     1       1.315   2.735   0.120  1.00  0.00    -0.234 NA
ENDROOT
BRANCH   1   6
HETATM    6  S   UNL     1       0.956   0.762   1.931  1.00  0.00    -0.083 SA
BRANCH   6   7
HETATM    7  C   UNL     1       2.764   0.803   1.843  1.00  0.00     0.185 C 
BRANCH   7   8
HETATM    8  C   UNL     1       3.351   1.974   2.618  1.00  0.00     0.231 C 
HETATM    9  N   UNL     1       3.314   3.165   1.915  1.00  0.00    -0.326 N 
HETATM   10  H   UNL     1       2.955   3.093   0.963  1.00  0.00     0.169 HD
HETATM   11  O   UNL     1       3.884   1.791   3.710  1.00  0.00    -0.272 OA
BRANCH   9  12
HETATM   12  C   UNL     1       3.939   4.385   2.257  1.00  0.00     0.046 A 
HETATM   13  C   UNL     1       4.547   5.111   1.201  1.00  0.00    -0.035 A 
HETATM   14  C   UNL     1       4.559   4.606  -0.219  1.00  0.00     0.050 C 
HETATM   15  C   UNL     1       5.204   6.322   1.475  1.00  0.00     0.009 A 
HETATM   16  C   UNL     1       5.264   6.816   2.771  1.00  0.00     0.001 A 
HETATM   17  C   UNL     1       4.640   6.122   3.803  1.00  0.00     0.009 A 
HETATM   18  C   UNL     1       3.946   4.921   3.560  1.00  0.00    -0.035 A 
HETATM   19  C   UNL     1       3.200   4.328   4.725  1.00  0.00     0.050 C 
ENDBRANCH   9  12
ENDBRANCH   7   8
ENDBRANCH   6   7
ENDBRANCH   1   6
BRANCH   2  20
HETATM   20  C   UNL     1      -1.790   0.891   0.265  1.00  0.00     0.234 C 
BRANCH  20  21
HETATM   21  C   UNL     1      -2.986   1.224   1.130  1.00  0.00     0.236 C 
HETATM   22  N   UNL     1      -3.020   2.431   1.779  1.00  0.00    -0.355 N 
HETATM   23  H   UNL     1      -2.258   3.077   1.619  1.00  0.00     0.162 HD
HETATM   24  O   UNL     1      -3.888   0.392   1.211  1.00  0.00    -0.272 OA
BRANCH  22  25
HETATM   25  C   UNL     1      -4.176   3.009   2.473  1.00  0.00     0.084 C 
HETATM   26  C   UNL     1      -5.230   3.553   1.500  1.00  0.00     0.025 C 
HETATM   27  C   UNL     1      -6.269   2.526   1.072  1.00  0.00     0.002 C 
HETATM   28  C   UNL     1      -6.945   1.898   2.282  1.00  0.00     0.000 C 
HETATM   29  C   UNL     1      -5.946   1.249   3.232  1.00  0.00     0.002 C 
HETATM   30  C   UNL     1      -4.775   2.160   3.607  1.00  0.00     0.025 C 
ENDBRANCH  22  25
ENDBRANCH  20  21
ENDBRANCH   2  20
BRANCH   3  31
HETATM   31  C   UNL     1      -1.958   3.595  -1.360  1.00  0.00    -0.008 A 
HETATM   32  C   UNL     1      -2.712   2.895  -2.309  1.00  0.00     0.017 A 
HETATM   33  C   UNL     1      -3.830   3.490  -2.900  1.00  0.00     0.043 A 
HETATM   34  C   UNL     1      -4.182   4.790  -2.556  1.00  0.00     0.116 A 
HETATM   35  F   UNL     1      -5.252   5.358  -3.126  1.00  0.00    -0.206 F 
HETATM   36  C   UNL     1      -3.434   5.511  -1.635  1.00  0.00     0.043 A 
HETATM   37  C   UNL     1      -2.322   4.913  -1.038  1.00  0.00     0.017 A 
ENDBRANCH   3  31
TORSDOF 8
