REMARK  8 active torsions:
REMARK  status: ('A' for Active; 'I' for Inactive)
REMARK    1  A    between atoms: C_8  and  C_9 
REMARK       I    between atoms: C_9  and  N_10 
REMARK    2  A    between atoms: N_10  and  N_11 
REMARK    3  A    between atoms: N_11  and  C_12 
REMARK    4  A    between atoms: C_12  and  N_13 
REMARK    5  A    between atoms: N_13  and  C_14 
REMARK    6  A    between atoms: C_15  and  O_16 
REMARK    7  A    between atoms: C_19  and  O_20 
REMARK    8  A    between atoms: C_26  and  C_27 
ROOT
HETATM    1  C   UNL     1       5.136  -3.282   0.611  1.00  0.00     0.275 C 
HETATM    2  N   UNL     1       3.978  -4.031   0.508  1.00  0.00    -0.263 N 
HETATM    3  O   UNL     1       5.124  -2.059   0.735  1.00  0.00    -0.266 OA
HETATM    4  H   UNL     1       4.026  -4.960   0.092  1.00  0.00     0.190 HD
ENDROOT
BRANCH   2   5
HETATM    5  N   UNL     1       2.746  -3.359   0.419  1.00  0.00    -0.273 N 
HETATM    6  H   UNL     1       2.829  -2.341   0.440  1.00  0.00     0.189 HD
BRANCH   5   7
HETATM    7  C   UNL     1       1.710  -3.892  -0.304  1.00  0.00     0.191 C 
HETATM    8  S   UNL     1       1.750  -5.402  -1.038  1.00  0.00    -0.039 SA
BRANCH   7   9
HETATM    9  N   UNL     1       0.591  -3.131  -0.458  1.00  0.00    -0.330 N 
HETATM   10  H   UNL     1      -0.028  -3.443  -1.204  1.00  0.00     0.168 HD
BRANCH   9  11
HETATM   11  C   UNL     1       0.112  -1.993   0.231  1.00  0.00     0.068 A 
HETATM   12  C   UNL     1      -0.946  -1.279  -0.373  1.00  0.00     0.097 A 
HETATM   13  C   UNL     1      -1.477  -0.144   0.256  1.00  0.00     0.075 A 
HETATM   14  C   UNL     1      -0.973   0.274   1.489  1.00  0.00     0.070 A 
HETATM   15  C   UNL     1       0.042  -0.462   2.101  1.00  0.00     0.039 A 
HETATM   16  C   UNL     1       0.580  -1.593   1.482  1.00  0.00     0.035 A 
BRANCH  12  17
HETATM   17  O   UNL     1      -1.377  -1.782  -1.580  1.00  0.00    -0.354 OA
HETATM   18  C   UNL     1      -2.380  -1.050  -2.274  1.00  0.00     0.210 C 
ENDBRANCH  12  17
BRANCH  14  19
HETATM   19  O   UNL     1      -1.399   1.357   2.207  1.00  0.00    -0.356 OA
HETATM   20  C   UNL     1      -2.288   2.255   1.554  1.00  0.00     0.210 C 
ENDBRANCH  14  19
ENDBRANCH   9  11
ENDBRANCH   7   9
ENDBRANCH   5   7
ENDBRANCH   2   5
BRANCH   1  21
HETATM   21  C   UNL     1       6.358  -4.053   0.515  1.00  0.00     0.098 A 
HETATM   22  C   UNL     1       6.551  -5.412   0.681  1.00  0.00     0.138 A 
HETATM   23  N   UNL     1       5.727  -6.425   1.051  1.00  0.00    -0.370 N 
HETATM   24  N   UNL     1       7.879  -5.633   0.420  1.00  0.00    -0.240 N 
HETATM   25  C   UNL     1       6.182  -7.807   1.154  1.00  0.00     0.081 C 
HETATM   26  H   UNL     1       4.830  -6.240   1.501  1.00  0.00     0.161 HD
HETATM   27  C   UNL     1       5.647  -8.606  -0.028  1.00  0.00     0.032 C 
HETATM   28  C   UNL     1       7.700  -7.888   1.360  1.00  0.00     0.061 C 
HETATM   29  C   UNL     1       8.532  -6.923   0.500  1.00  0.00     0.221 C 
HETATM   30  N   UNL     1       8.586  -4.510   0.209  1.00  0.00    -0.181 NA
HETATM   31  C   UNL     1       7.655  -3.552   0.248  1.00  0.00     0.160 A 
BRANCH  29  32
HETATM   32  C   UNL     1       8.845  -7.442  -0.884  1.00  0.00     0.409 C 
HETATM   33  F   UNL     1       7.779  -7.474  -1.707  1.00  0.00    -0.169 F 
HETATM   34  F   UNL     1       9.810  -6.722  -1.499  1.00  0.00    -0.169 F 
HETATM   35  F   UNL     1       9.316  -8.715  -0.805  1.00  0.00    -0.169 F 
ENDBRANCH  29  32
ENDBRANCH   1  21
TORSDOF 8
