REMARK  5 active torsions:
REMARK  status: ('A' for Active; 'I' for Inactive)
REMARK    1  A    between atoms: C_2  and  O_3 
REMARK    2  A    between atoms: O_3  and  C_4 
REMARK    3  A    between atoms: C_6  and  C_7 
REMARK    4  A    between atoms: C_7  and  N_8 
REMARK       I    between atoms: N_8  and  C_9 
REMARK       I    between atoms: C_9  and  N_10 
REMARK    5  A    between atoms: N_10  and  C_11 
ROOT
HETATM    1  N   UNL     1       8.069   2.765   0.361  1.00  0.00    -0.335 N 
HETATM    2  C   UNL     1       9.304   2.193   0.386  1.00  0.00     0.321 C 
HETATM    3  N   UNL     1       9.883   2.055   1.614  1.00  0.00    -0.307 N 
HETATM    4  O   UNL     1       9.810   1.888  -0.690  1.00  0.00    -0.247 OA
HETATM    5  H   UNL     1       7.727   2.797  -0.592  1.00  0.00     0.165 HD
HETATM    6  H   UNL     1       9.483   2.611   2.348  1.00  0.00     0.170 HD
ENDROOT
BRANCH   1   7
HETATM    7  C   UNL     1       7.057   2.861   1.408  1.00  0.00     0.115 C 
HETATM    8  C   UNL     1       6.230   4.132   1.212  1.00  0.00     0.037 C 
BRANCH   7   9
HETATM    9  C   UNL     1       6.153   1.641   1.434  1.00  0.00    -0.033 A 
HETATM   10  C   UNL     1       5.610   1.097   0.256  1.00  0.00     0.046 A 
HETATM   11  C   UNL     1       4.746  -0.003   0.290  1.00  0.00     0.069 A 
HETATM   12  C   UNL     1       4.403  -0.565   1.517  1.00  0.00     0.037 A 
HETATM   13  C   UNL     1       4.927  -0.034   2.698  1.00  0.00     0.003 A 
HETATM   14  C   UNL     1       5.795   1.059   2.658  1.00  0.00     0.009 A 
BRANCH  11  15
HETATM   15  O   UNL     1       4.308  -0.417  -0.938  1.00  0.00    -0.352 OA
BRANCH  15  16
HETATM   16  C   UNL     1       3.483  -1.580  -0.977  1.00  0.00     0.171 C 
HETATM   17  C   UNL     1       3.197  -1.901  -2.433  1.00  0.00     0.034 C 
ENDBRANCH  15  16
ENDBRANCH  11  15
ENDBRANCH   7   9
ENDBRANCH   1   7
BRANCH   3  18
HETATM   18  C   UNL     1      11.124   1.434   1.898  1.00  0.00     0.059 A 
HETATM   19  C   UNL     1      11.707   1.601   3.169  1.00  0.00    -0.032 A 
HETATM   20  C   UNL     1      11.072   2.431   4.249  1.00  0.00     0.050 C 
HETATM   21  C   UNL     1      12.935   0.977   3.436  1.00  0.00     0.028 A 
HETATM   22  C   UNL     1      13.533   0.211   2.450  1.00  0.00     0.117 A 
HETATM   23  N   UNL     1      12.999   0.023   1.230  1.00  0.00    -0.271 NA
HETATM   24  C   UNL     1      11.813   0.636   0.982  1.00  0.00     0.146 A 
ENDBRANCH   3  18
TORSDOF 5
