REMARK  5 active torsions:
REMARK  status: ('A' for Active; 'I' for Inactive)
REMARK    1  A    between atoms: C_7  and  C_8 
REMARK       I    between atoms: C_8  and  N_9 
REMARK    2  A    between atoms: N_9  and  C_10 
REMARK    3  A    between atoms: C_10  and  C_11 
REMARK    4  A    between atoms: C_11  and  O_12 
REMARK    5  A    between atoms: C_11  and  C_13 
ROOT
HETATM    1  C   UNL     1       2.833  -2.554  -0.264  1.00  0.00     0.254 C 
HETATM    2  N   UNL     1       1.531  -2.772   0.123  1.00  0.00    -0.354 N 
HETATM    3  O   UNL     1       3.524  -3.454  -0.733  1.00  0.00    -0.268 OA
HETATM    4  H   UNL     1       1.048  -2.060   0.650  1.00  0.00     0.162 HD
ENDROOT
BRANCH   2   5
HETATM    5  C   UNL     1       0.876  -4.058  -0.063  1.00  0.00     0.159 C 
BRANCH   5   6
HETATM    6  C   UNL     1       1.268  -5.088   1.017  1.00  0.00     0.175 C 
BRANCH   6   7
HETATM    7  O   UNL     1       0.926  -4.578   2.312  1.00  0.00    -0.389 OA
HETATM    8  H   UNL     1       1.519  -3.821   2.459  1.00  0.00     0.210 HD
ENDBRANCH   6   7
BRANCH   6   9
HETATM    9  C   UNL     1       0.587  -6.418   0.837  1.00  0.00     0.049 A 
HETATM   10  C   UNL     1       1.343  -7.585   0.701  1.00  0.00     0.128 A 
HETATM   11  F   UNL     1       2.682  -7.524   0.726  1.00  0.00    -0.205 F 
HETATM   12  C   UNL     1       0.743  -8.834   0.531  1.00  0.00     0.043 A 
HETATM   13  C   UNL     1      -0.645  -8.938   0.494  1.00  0.00     0.006 A 
HETATM   14  C   UNL     1      -1.420  -7.790   0.630  1.00  0.00     0.043 A 
HETATM   15  C   UNL     1      -0.804  -6.549   0.802  1.00  0.00     0.128 A 
HETATM   16  F   UNL     1      -1.588  -5.468   0.920  1.00  0.00    -0.205 F 
ENDBRANCH   6   9
ENDBRANCH   5   6
ENDBRANCH   2   5
BRANCH   1  17
HETATM   17  C   UNL     1       3.342  -1.199  -0.030  1.00  0.00     0.066 A 
HETATM   18  C   UNL     1       2.624  -0.004   0.031  1.00  0.00     0.022 A 
HETATM   19  C   UNL     1       1.183   0.319  -0.153  1.00  0.00     0.069 C 
HETATM   20  N   UNL     1       3.523   1.009   0.271  1.00  0.00    -0.358 N 
HETATM   21  H   UNL     1       3.286   1.988   0.361  1.00  0.00     0.166 HD
HETATM   22  C   UNL     1       4.806   0.527   0.320  1.00  0.00     0.043 A 
HETATM   23  C   UNL     1       4.731  -0.851   0.130  1.00  0.00     0.008 A 
HETATM   24  C   UNL     1       6.016   1.207   0.508  1.00  0.00     0.030 A 
HETATM   25  C   UNL     1       5.936  -1.587   0.132  1.00  0.00     0.015 A 
HETATM   26  C   UNL     1       7.155  -0.926   0.317  1.00  0.00     0.001 A 
HETATM   27  C   UNL     1       7.192   0.453   0.502  1.00  0.00     0.002 A 
ENDBRANCH   1  17
TORSDOF 5
