REMARK  3 active torsions:
REMARK  status: ('A' for Active; 'I' for Inactive)
REMARK    1  A    between atoms: C_7  and  C_8 
REMARK    2  A    between atoms: C_17  and  C_18 
REMARK       I    between atoms: C_18  and  N_19 
REMARK    3  A    between atoms: N_19  and  C_20 
ROOT
HETATM    1  C   UNL     1       2.681  -2.602   0.175  1.00  0.00     0.206 C 
HETATM    2  N   UNL     1       2.141  -3.079  -1.106  1.00  0.00    -0.084 N 
HETATM    3  C   UNL     1       2.227  -4.381  -1.528  1.00  0.00     0.725 A 
HETATM    4  N   UNL     1       1.576  -4.522  -2.654  1.00  0.00    -0.054 NA
HETATM    5  C   UNL     1       1.061  -3.271  -2.864  1.00  0.00     0.275 A 
HETATM    6  N   UNL     1       1.327  -2.366  -1.916  1.00  0.00    -0.149 NA
HETATM    7  N   UNL     1       2.905  -5.274  -0.784  1.00  0.00    -0.192 N 
HETATM    8  C   UNL     1       3.639  -4.924   0.342  1.00  0.00     0.037 C 
HETATM    9  C   UNL     1       4.462  -6.033   0.953  1.00  0.00     0.070 C 
HETATM   10  C   UNL     1       3.578  -3.656   0.820  1.00  0.00     0.063 C 
HETATM   11  H   UNL     1       3.024  -6.216  -1.148  1.00  0.00     0.184 HD
ENDROOT
BRANCH  10  12
HETATM   12  C   UNL     1       4.499  -3.243   1.910  1.00  0.00     0.256 C 
HETATM   13  N   UNL     1       3.863  -2.716   3.011  1.00  0.00    -0.323 N 
HETATM   14  H   UNL     1       2.853  -2.722   3.027  1.00  0.00     0.169 HD
HETATM   15  O   UNL     1       5.705  -3.403   1.755  1.00  0.00    -0.267 OA
BRANCH  13  16
HETATM   16  C   UNL     1       4.486  -2.164   4.155  1.00  0.00     0.035 A 
HETATM   17  C   UNL     1       5.869  -2.030   4.303  1.00  0.00     0.029 A 
HETATM   18  C   UNL     1       6.411  -1.464   5.462  1.00  0.00     0.002 A 
HETATM   19  C   UNL     1       5.575  -1.026   6.484  1.00  0.00     0.000 A 
HETATM   20  C   UNL     1       4.195  -1.152   6.347  1.00  0.00     0.002 A 
HETATM   21  C   UNL     1       3.652  -1.716   5.188  1.00  0.00     0.029 A 
ENDBRANCH  13  16
ENDBRANCH  10  12
BRANCH   1  22
HETATM   22  C   UNL     1       3.298  -1.236   0.030  1.00  0.00     0.015 A 
HETATM   23  C   UNL     1       2.623   0.021   0.121  1.00  0.00     0.061 A 
HETATM   24  C   UNL     1       1.170   0.282   0.295  1.00  0.00     0.073 C 
HETATM   25  N   UNL     1       3.472   1.051   0.046  1.00  0.00    -0.178 NA
HETATM   26  N   UNL     1       4.671   0.478  -0.132  1.00  0.00    -0.284 N 
HETATM   27  C   UNL     1       5.852   1.304  -0.191  1.00  0.00     0.179 C 
HETATM   28  C   UNL     1       4.619  -0.882  -0.183  1.00  0.00     0.123 A 
ENDBRANCH   1  22
TORSDOF 3
