REMARK  7 active torsions:
REMARK  status: ('A' for Active; 'I' for Inactive)
REMARK    1  A    between atoms: C_3  and  O_4 
REMARK    2  A    between atoms: O_4  and  C_5 
REMARK    3  A    between atoms: C_5  and  C_6 
REMARK    4  A    between atoms: C_7  and  C_8 
REMARK    5  A    between atoms: C_8  and  N_9 
REMARK       I    between atoms: N_9  and  C_10 
REMARK    6  A    between atoms: C_10  and  C_11 
REMARK    7  A    between atoms: C_15  and  C_16 
ROOT
HETATM    1  N   UNL     1      -0.152   6.926   0.694  1.00  0.00    -0.345 N 
HETATM    2  C   UNL     1      -1.406   6.508   1.063  1.00  0.00     0.270 C 
HETATM    3  O   UNL     1      -2.143   5.868   0.321  1.00  0.00    -0.266 OA
HETATM    4  H   UNL     1       0.453   7.346   1.381  1.00  0.00     0.163 HD
ENDROOT
BRANCH   1   5
HETATM    5  C   UNL     1       0.427   6.574  -0.578  1.00  0.00     0.217 C 
BRANCH   5   6
HETATM    6  C   UNL     1       1.445   5.537  -0.392  1.00  0.00    -0.085 C 
HETATM    7  C   UNL     1       2.267   4.670  -0.255  1.00  0.00    -0.078 C 
BRANCH   7   8
HETATM    8  C   UNL     1       3.257   3.593  -0.110  1.00  0.00     0.269 C 
BRANCH   8   9
HETATM    9  O   UNL     1       2.569   2.364   0.104  1.00  0.00    -0.339 OA
BRANCH   9  10
HETATM   10  C   UNL     1       3.314   1.213   0.121  1.00  0.00     0.075 A 
HETATM   11  C   UNL     1       2.581   0.013   0.168  1.00  0.00    -0.029 A 
HETATM   12  C   UNL     1       1.078   0.017   0.226  1.00  0.00     0.051 C 
HETATM   13  C   UNL     1       3.265  -1.212   0.216  1.00  0.00     0.009 A 
HETATM   14  C   UNL     1       4.657  -1.249   0.196  1.00  0.00     0.001 A 
HETATM   15  C   UNL     1       5.380  -0.061   0.140  1.00  0.00     0.003 A 
HETATM   16  C   UNL     1       4.712   1.166   0.107  1.00  0.00     0.037 A 
ENDBRANCH   9  10
ENDBRANCH   8   9
ENDBRANCH   7   8
ENDBRANCH   5   6
ENDBRANCH   1   5
BRANCH   2  17
HETATM   17  C   UNL     1      -1.810   6.881   2.392  1.00  0.00     0.120 A 
HETATM   18  N   UNL     1      -2.996   6.457   2.920  1.00  0.00    -0.272 N 
HETATM   19  H   UNL     1      -3.682   5.860   2.467  1.00  0.00     0.189 HD
HETATM   20  N   UNL     1      -3.239   6.901   4.160  1.00  0.00    -0.174 NA
HETATM   21  C   UNL     1      -2.173   7.658   4.469  1.00  0.00     0.089 A 
HETATM   22  C   UNL     1      -1.249   7.662   3.384  1.00  0.00     0.071 A 
BRANCH  21  23
HETATM   23  C   UNL     1      -2.071   8.351   5.761  1.00  0.00    -0.006 A 
HETATM   24  C   UNL     1      -3.109   8.255   6.703  1.00  0.00     0.014 A 
HETATM   25  C   UNL     1      -3.031   8.916   7.932  1.00  0.00     0.001 A 
HETATM   26  C   UNL     1      -1.912   9.684   8.239  1.00  0.00     0.000 A 
HETATM   27  C   UNL     1      -0.871   9.791   7.319  1.00  0.00     0.001 A 
HETATM   28  C   UNL     1      -0.950   9.129   6.088  1.00  0.00     0.014 A 
ENDBRANCH  21  23
ENDBRANCH   2  17
TORSDOF 7
