REMARK  3 active torsions:
REMARK  status: ('A' for Active; 'I' for Inactive)
REMARK    1  A    between atoms: C_8  and  C_9 
REMARK    2  A    between atoms: C_14  and  C_15 
REMARK    3  A    between atoms: C_16  and  O_17 
ROOT
HETATM    1  C   UNL     1       2.680  -2.597   0.072  1.00  0.00     0.143 A 
HETATM    2  N   UNL     1       3.413  -3.589  -0.391  1.00  0.00    -0.223 NA
HETATM    3  C   UNL     1       2.630  -4.724  -0.327  1.00  0.00     0.149 A 
HETATM    4  C   UNL     1       1.389  -4.401   0.195  1.00  0.00     0.046 A 
HETATM    5  C   UNL     1       0.165  -5.231   0.350  1.00  0.00     0.070 C 
HETATM    6  C   UNL     1       0.380  -6.558   1.107  1.00  0.00     0.045 C 
HETATM    7  C   UNL     1       1.819  -7.121   1.094  1.00  0.00     0.132 C 
HETATM    8  N   UNL     1       2.444  -7.146  -0.216  1.00  0.00    -0.355 N 
HETATM    9  C   UNL     1       3.060  -6.047  -0.789  1.00  0.00     0.272 C 
HETATM   10  O   UNL     1       3.924  -6.225  -1.645  1.00  0.00    -0.266 OA
HETATM   11  N   UNL     1       1.449  -3.058   0.463  1.00  0.00    -0.341 N 
HETATM   12  H   UNL     1       0.702  -2.489   0.828  1.00  0.00     0.167 HD
HETATM   13  H   UNL     1       2.870  -8.011  -0.526  1.00  0.00     0.162 HD
ENDROOT
BRANCH   1  14
HETATM   14  C   UNL     1       3.143  -1.184   0.131  1.00  0.00     0.059 A 
HETATM   15  C   UNL     1       2.454  -0.079   0.595  1.00  0.00     0.040 A 
HETATM   16  C   UNL     1       1.106   0.124   1.171  1.00  0.00     0.071 C 
HETATM   17  N   UNL     1       3.314   0.974   0.422  1.00  0.00    -0.281 N 
HETATM   18  H   UNL     1       3.159   1.951   0.645  1.00  0.00     0.189 HD
HETATM   19  N   UNL     1       4.495   0.638  -0.111  1.00  0.00    -0.179 NA
HETATM   20  C   UNL     1       4.401  -0.686  -0.300  1.00  0.00     0.067 A 
HETATM   21  C   UNL     1       5.534  -1.435  -0.902  1.00  0.00     0.073 C 
ENDBRANCH   1  14
BRANCH   6  22
HETATM   22  C   UNL     1      -0.188  -6.463   2.526  1.00  0.00    -0.019 A 
HETATM   23  C   UNL     1      -1.465  -6.984   2.830  1.00  0.00     0.074 A 
HETATM   24  C   UNL     1      -1.961  -6.892   4.136  1.00  0.00     0.037 A 
HETATM   25  C   UNL     1      -1.211  -6.273   5.137  1.00  0.00     0.003 A 
HETATM   26  C   UNL     1       0.033  -5.729   4.840  1.00  0.00     0.001 A 
HETATM   27  C   UNL     1       0.538  -5.814   3.543  1.00  0.00     0.010 A 
BRANCH  23  28
HETATM   28  O   UNL     1      -2.149  -7.552   1.787  1.00  0.00    -0.355 OA
HETATM   29  C   UNL     1      -3.467  -8.024   2.036  1.00  0.00     0.210 C 
ENDBRANCH  23  28
ENDBRANCH   6  22
TORSDOF 3
