REMARK  6 active torsions:
REMARK  status: ('A' for Active; 'I' for Inactive)
REMARK    1  A    between atoms: C_2  and  N_3 
REMARK    2  A    between atoms: C_2  and  C_17 
REMARK       I    between atoms: N_3  and  C_4 
REMARK    3  A    between atoms: C_4  and  C_5 
REMARK    4  A    between atoms: C_6  and  O_7 
REMARK    5  A    between atoms: O_7  and  C_8 
REMARK    6  A    between atoms: C_8  and  C_9 
ROOT
HETATM    1  N   UNL     1       2.719   1.040   0.782  1.00  0.00    -0.346 N 
HETATM    2  C   UNL     1       2.662   2.336   0.322  1.00  0.00     0.256 C 
HETATM    3  O   UNL     1       2.340   2.625  -0.824  1.00  0.00    -0.267 OA
HETATM    4  H   UNL     1       2.995   0.826   1.733  1.00  0.00     0.163 HD
ENDROOT
BRANCH   1   5
HETATM    5  C   UNL     1       2.493  -0.088  -0.100  1.00  0.00     0.150 C 
HETATM    6  C   UNL     1       3.789  -0.511  -0.785  1.00  0.00     0.040 C 
BRANCH   5   7
HETATM    7  C   UNL     1       1.933  -1.193   0.740  1.00  0.00     0.127 A 
HETATM    8  N   UNL     1       2.558  -1.878   1.680  1.00  0.00    -0.231 NA
HETATM    9  C   UNL     1       1.632  -2.770   2.163  1.00  0.00     0.085 A 
HETATM   10  C   UNL     1       0.404  -2.604   1.532  1.00  0.00     0.062 A 
HETATM   11  C   UNL     1       1.766  -3.758   3.149  1.00  0.00     0.034 A 
HETATM   12  N   UNL     1       0.620  -1.589   0.637  1.00  0.00    -0.341 N 
HETATM   13  C   UNL     1      -0.725  -3.367   1.835  1.00  0.00     0.032 A 
HETATM   14  H   UNL     1      -0.067  -1.194   0.011  1.00  0.00     0.167 HD
HETATM   15  C   UNL     1      -0.573  -4.347   2.823  1.00  0.00     0.002 A 
HETATM   16  C   UNL     1       0.650  -4.544   3.468  1.00  0.00     0.002 A 
ENDBRANCH   5   7
ENDBRANCH   1   5
BRANCH   2  17
HETATM   17  C   UNL     1       3.036   3.382   1.298  1.00  0.00     0.084 A 
HETATM   18  C   UNL     1       2.312   4.567   1.400  1.00  0.00     0.180 A 
HETATM   19  N   UNL     1       2.632   5.558   2.271  1.00  0.00    -0.236 NA
HETATM   20  C   UNL     1       3.725   5.372   3.043  1.00  0.00     0.119 A 
HETATM   21  C   UNL     1       4.514   4.234   3.000  1.00  0.00     0.020 A 
HETATM   22  C   UNL     1       4.163   3.222   2.112  1.00  0.00     0.023 A 
BRANCH  18  23
HETATM   23  O   UNL     1       1.165   4.712   0.650  1.00  0.00    -0.328 OA
BRANCH  23  24
HETATM   24  C   UNL     1       0.665   6.055   0.622  1.00  0.00     0.248 C 
BRANCH  24  25
HETATM   25  C   UNL     1      -0.510   6.125  -0.338  1.00  0.00     0.377 C 
HETATM   26  F   UNL     1      -1.274   7.211  -0.049  1.00  0.00    -0.212 F 
HETATM   27  F   UNL     1      -0.066   6.300  -1.610  1.00  0.00    -0.212 F 
ENDBRANCH  24  25
ENDBRANCH  23  24
ENDBRANCH  18  23
ENDBRANCH   2  17
TORSDOF 6
