REMARK  2 active torsions:
REMARK  status: ('A' for Active; 'I' for Inactive)
REMARK    1  A    between atoms: C_9  and  C_11 
REMARK    2  A    between atoms: C_9  and  O_10 
ROOT
HETATM    1  C   UNL     1       0.948  -0.264   0.169  1.00  0.00     0.048 C 
HETATM    2  C   UNL     1       2.446  -0.153   0.156  1.00  0.00    -0.061 A 
HETATM    3  C   UNL     1       3.066   1.105   0.111  1.00  0.00     0.020 A 
HETATM    4  C   UNL     1       4.453   1.162   0.072  1.00  0.00     0.018 A 
HETATM    5  C   UNL     1       5.206  -0.012   0.097  1.00  0.00     0.045 A 
HETATM    6  N   UNL     1       6.561   0.278   0.073  1.00  0.00    -0.323 N 
HETATM    7  C   UNL     1       6.789   1.655   0.024  1.00  0.00     0.266 A 
HETATM    8  O   UNL     1       7.899   2.165   0.025  1.00  0.00    -0.269 OA
HETATM    9  C   UNL     1       5.379   2.362   0.023  1.00  0.00     0.198 A 
HETATM   10  C   UNL     1       4.629  -1.262   0.146  1.00  0.00     0.031 A 
HETATM   11  C   UNL     1       3.233  -1.326   0.172  1.00  0.00     0.009 A 
HETATM   12  H   UNL     1       7.312  -0.395   0.088  1.00  0.00     0.169 HD
ENDROOT
BRANCH   9  13
HETATM   13  C   UNL     1       5.079   3.061  -1.281  1.00  0.00     0.018 A 
HETATM   14  C   UNL     1       4.242   4.220  -1.479  1.00  0.00     0.002 A 
HETATM   15  C   UNL     1       4.211   4.494  -2.848  1.00  0.00     0.043 A 
HETATM   16  C   UNL     1       3.496   5.057  -0.622  1.00  0.00     0.014 A 
HETATM   17  C   UNL     1       3.472   5.548  -3.398  1.00  0.00     0.030 A 
HETATM   18  N   UNL     1       5.010   3.564  -3.465  1.00  0.00    -0.365 N 
HETATM   19  C   UNL     1       2.741   6.357  -2.524  1.00  0.00     0.002 A 
HETATM   20  C   UNL     1       2.753   6.118  -1.153  1.00  0.00     0.001 A 
HETATM   21  H   UNL     1       5.179   3.527  -4.461  1.00  0.00     0.165 HD
HETATM   22  C   UNL     1       5.530   2.699  -2.544  1.00  0.00     0.100 A 
ENDBRANCH   9  13
BRANCH   9  23
HETATM   23  O   UNL     1       5.189   3.168   1.176  1.00  0.00    -0.371 OA
HETATM   24  H   UNL     1       5.124   2.559   1.929  1.00  0.00     0.212 HD
ENDBRANCH   9  23
TORSDOF 2
