REMARK  2 active torsions:
REMARK  status: ('A' for Active; 'I' for Inactive)
REMARK    1  A    between atoms: C_4  and  C_5 
REMARK    2  A    between atoms: C_10  and  C_11 
ROOT
HETATM    1  C   UNL     1       7.600  -0.084   0.251  1.00  0.00     0.224 C 
HETATM    2  N   UNL     1       8.369  -0.342   1.480  1.00  0.00    -0.359 N 
HETATM    3  C   UNL     1       9.230   0.750   1.933  1.00  0.00     0.152 C 
HETATM    4  C   UNL     1       8.891  -1.653   1.555  1.00  0.00     0.047 A 
HETATM    5  C   UNL     1       8.213  -2.722   0.938  1.00  0.00     0.058 A 
HETATM    6  C   UNL     1       6.957  -2.436   0.221  1.00  0.00     0.255 C 
HETATM    7  O   UNL     1       6.255  -3.320  -0.257  1.00  0.00    -0.268 OA
HETATM    8  N   UNL     1       6.612  -1.122   0.122  1.00  0.00    -0.331 N 
HETATM    9  C   UNL     1      10.053  -1.985   2.272  1.00  0.00     0.030 A 
HETATM   10  C   UNL     1      10.528  -3.303   2.338  1.00  0.00     0.002 A 
HETATM   11  C   UNL     1       9.843  -4.332   1.702  1.00  0.00     0.001 A 
HETATM   12  C   UNL     1       8.676  -4.044   1.003  1.00  0.00     0.019 A 
HETATM   13  H   UNL     1       5.826  -0.957  -0.488  1.00  0.00     0.165 HD
ENDROOT
BRANCH   1  14
HETATM   14  C   UNL     1       6.849   1.217   0.167  1.00  0.00     0.034 A 
HETATM   15  C   UNL     1       7.195   2.386  -0.569  1.00  0.00     0.122 A 
HETATM   16  N   UNL     1       6.279   3.357  -0.428  1.00  0.00    -0.172 NA
HETATM   17  N   UNL     1       5.376   2.835   0.413  1.00  0.00    -0.288 N 
HETATM   18  H   UNL     1       4.581   3.407   0.681  1.00  0.00     0.188 HD
HETATM   19  C   UNL     1       5.670   1.568   0.806  1.00  0.00     0.123 A 
BRANCH  15  20
HETATM   20  C   UNL     1       8.425   2.589  -1.396  1.00  0.00     0.106 A 
HETATM   21  O   UNL     1       9.441   1.681  -1.524  1.00  0.00    -0.313 OA
HETATM   22  C   UNL     1      10.384   2.228  -2.339  1.00  0.00     0.050 A 
HETATM   23  C   UNL     1      11.581   1.408  -2.606  1.00  0.00     0.076 C 
HETATM   24  C   UNL     1       9.990   3.486  -2.740  1.00  0.00     0.035 A 
HETATM   25  C   UNL     1       8.733   3.718  -2.131  1.00  0.00     0.042 A 
ENDBRANCH  15  20
ENDBRANCH   1  14
TORSDOF 2
