REMARK  8 active torsions:
REMARK  status: ('A' for Active; 'I' for Inactive)
REMARK    1  A    between atoms: O_2  and  C_3 
REMARK    2  A    between atoms: C_5  and  N_6 
REMARK       I    between atoms: N_6  and  C_7 
REMARK    3  A    between atoms: C_7  and  C_8 
REMARK    4  A    between atoms: C_8  and  O_9 
REMARK    5  A    between atoms: O_9  and  C_10 
REMARK    6  A    between atoms: C_13  and  C_14 
REMARK       I    between atoms: C_14  and  N_15 
REMARK    7  A    between atoms: N_15  and  C_16 
REMARK    8  A    between atoms: C_19  and  N_20 
ROOT
HETATM    1  C   UNL     1       1.107   1.153   2.026  1.00  0.00     0.069 A 
HETATM    2  C   UNL     1       2.217   0.489   1.511  1.00  0.00     0.038 A 
HETATM    3  C   UNL     1       2.540  -0.792   1.977  1.00  0.00     0.020 A 
HETATM    4  C   UNL     1       1.762  -1.413   2.963  1.00  0.00     0.032 A 
HETATM    5  C   UNL     1       0.678  -0.715   3.512  1.00  0.00     0.020 A 
HETATM    6  C   UNL     1       0.369   0.569   3.057  1.00  0.00     0.038 A 
ENDROOT
BRANCH   4   7
HETATM    7  C   UNL     1       2.028  -2.853   3.282  1.00  0.00     0.256 C 
HETATM    8  N   UNL     1       1.445  -3.327   4.442  1.00  0.00    -0.323 N 
HETATM    9  H   UNL     1       1.157  -2.650   5.134  1.00  0.00     0.169 HD
HETATM   10  O   UNL     1       2.699  -3.511   2.495  1.00  0.00    -0.267 OA
BRANCH   8  11
HETATM   11  C   UNL     1       1.066  -4.660   4.703  1.00  0.00     0.035 A 
HETATM   12  C   UNL     1       1.246  -5.710   3.808  1.00  0.00     0.032 A 
HETATM   13  C   UNL     1       0.678  -6.968   4.062  1.00  0.00     0.031 A 
HETATM   14  C   UNL     1      -0.084  -7.218   5.210  1.00  0.00     0.030 A 
HETATM   15  C   UNL     1      -0.202  -6.162   6.126  1.00  0.00     0.031 A 
HETATM   16  C   UNL     1       0.365  -4.904   5.884  1.00  0.00     0.032 A 
BRANCH  14  17
HETATM   17  N   UNL     1      -0.782  -8.406   5.423  1.00  0.00    -0.381 N 
HETATM   18  C   UNL     1      -0.573  -9.084   6.711  1.00  0.00     0.123 C 
HETATM   19  C   UNL     1      -1.819  -9.904   7.048  1.00  0.00     0.020 C 
HETATM   20  C   UNL     1      -2.164 -10.879   5.924  1.00  0.00     0.003 C 
HETATM   21  C   UNL     1      -2.270 -10.154   4.584  1.00  0.00     0.020 C 
HETATM   22  C   UNL     1      -1.026  -9.313   4.295  1.00  0.00     0.123 C 
ENDBRANCH  14  17
ENDBRANCH   8  11
ENDBRANCH   4   7
BRANCH   1  23
HETATM   23  O   UNL     1       0.583   2.326   1.556  1.00  0.00    -0.342 OA
BRANCH  23  24
HETATM   24  C   UNL     1       0.899   2.702   0.220  1.00  0.00     0.278 C 
BRANCH  24  25
HETATM   25  C   UNL     1       0.417   1.797  -0.935  1.00  0.00     0.246 C 
HETATM   26  N   UNL     1      -0.517   0.854  -0.543  1.00  0.00    -0.325 N 
HETATM   27  H   UNL     1      -0.761   0.864   0.440  1.00  0.00     0.169 HD
HETATM   28  O   UNL     1       0.860   1.955  -2.070  1.00  0.00    -0.271 OA
BRANCH  26  29
HETATM   29  C   UNL     1      -1.046  -0.213  -1.296  1.00  0.00     0.037 A 
HETATM   30  C   UNL     1      -0.858  -0.368  -2.673  1.00  0.00     0.066 A 
HETATM   31  C   UNL     1      -1.398  -1.472  -3.342  1.00  0.00     0.070 A 
HETATM   32  C   UNL     1      -2.116  -2.430  -2.623  1.00  0.00     0.037 A 
HETATM   33  C   UNL     1      -2.311  -2.285  -1.253  1.00  0.00     0.005 A 
HETATM   34  C   UNL     1      -1.785  -1.174  -0.594  1.00  0.00     0.029 A 
BRANCH  31  35
HETATM   35  O   UNL     1      -1.292  -1.732  -4.683  1.00  0.00    -0.356 OA
HETATM   36  C   UNL     1      -0.620  -0.759  -5.473  1.00  0.00     0.210 C 
ENDBRANCH  31  35
ENDBRANCH  26  29
ENDBRANCH  24  25
ENDBRANCH  23  24
ENDBRANCH   1  23
TORSDOF 8
