REMARK  9 active torsions:
REMARK  status: ('A' for Active; 'I' for Inactive)
REMARK    1  A    between atoms: C_2  and  C_3 
REMARK    2  A    between atoms: C_7  and  C_8 
REMARK    3  A    between atoms: C_8  and  C_9 
REMARK       I    between atoms: C_9  and  N_10 
REMARK    4  A    between atoms: N_10  and  C_11 
REMARK    5  A    between atoms: C_11  and  C_12 
REMARK    6  A    between atoms: C_12  and  N_13 
REMARK    7  A    between atoms: C_21  and  C_22 
REMARK    8  A    between atoms: C_32  and  C_33 
REMARK    9  A    between atoms: C_33  and  O_34 
ROOT
HETATM    1  C   UNL     1       3.906  -1.039  -1.047  1.00  0.00     0.051 C 
HETATM    2  N   UNL     1       3.680  -1.624  -2.275  1.00  0.00    -0.228 NA
HETATM    3  C   UNL     1       4.067  -2.833  -2.466  1.00  0.00     0.170 C 
HETATM    4  N   UNL     1       4.620  -3.784  -1.374  1.00  0.00    -0.318 N 
HETATM    5  C   UNL     1       4.896  -4.948  -1.869  1.00  0.00     0.011 C 
HETATM    6  C   UNL     1       4.548  -3.234   0.005  1.00  0.00     0.166 C 
HETATM    7  S   UNL     1       3.960  -3.606  -4.013  1.00  0.00    -0.086 SA
HETATM    8  C   UNL     1       4.822  -5.062  -3.375  1.00  0.00     0.135 C 
HETATM    9  C   UNL     1       4.410  -1.730   0.000  1.00  0.00     0.069 C 
ENDROOT
BRANCH   5  10
HETATM   10  C   UNL     1       5.202  -6.145  -1.019  1.00  0.00     0.156 C 
BRANCH  10  11
HETATM   11  C   UNL     1       6.560  -6.740  -1.290  1.00  0.00     0.223 C 
HETATM   12  N   UNL     1       6.589  -8.107  -1.444  1.00  0.00    -0.359 N 
HETATM   13  H   UNL     1       5.719  -8.590  -1.652  1.00  0.00     0.162 HD
HETATM   14  O   UNL     1       7.562  -6.038  -1.324  1.00  0.00    -0.273 OA
BRANCH  12  15
HETATM   15  C   UNL     1       7.822  -8.794  -1.846  1.00  0.00     0.150 C 
BRANCH  15  16
HETATM   16  C   UNL     1       8.838  -8.981  -0.700  1.00  0.00     0.254 C 
BRANCH  16  17
HETATM   17  N   UNL     1       8.146  -9.409   0.590  1.00  0.00    -0.070 N 
HETATM   18  H   UNL     1       7.393  -8.724   0.727  1.00  0.00     0.279 HD
HETATM   19  C   UNL     1       7.516 -10.783   0.529  1.00  0.00     0.235 C 
HETATM   20  C   UNL     1       6.694 -11.004   1.791  1.00  0.00     0.028 C 
HETATM   21  C   UNL     1       7.543 -10.852   3.048  1.00  0.00     0.003 C 
HETATM   22  C   UNL     1       8.284  -9.519   3.061  1.00  0.00     0.028 C 
HETATM   23  C   UNL     1       9.079  -9.295   1.781  1.00  0.00     0.235 C 
ENDBRANCH  16  17
ENDBRANCH  15  16
ENDBRANCH  12  15
ENDBRANCH  10  11
ENDBRANCH   5  10
BRANCH   6  24
HETATM   24  C   UNL     1       3.412  -3.940   0.767  1.00  0.00    -0.024 A 
HETATM   25  C   UNL     1       3.622  -4.672   1.962  1.00  0.00    -0.053 A 
HETATM   26  C   UNL     1       4.934  -4.749   2.702  1.00  0.00     0.049 C 
HETATM   27  C   UNL     1       2.526  -5.307   2.576  1.00  0.00     0.008 A 
HETATM   28  C   UNL     1       1.248  -5.254   2.024  1.00  0.00     0.007 A 
HETATM   29  C   UNL     1       1.022  -4.544   0.850  1.00  0.00    -0.061 A 
HETATM   30  C   UNL     1      -0.368  -4.425   0.293  1.00  0.00     0.048 C 
HETATM   31  C   UNL     1       2.093  -3.873   0.247  1.00  0.00     0.017 A 
ENDBRANCH   6  24
BRANCH   9  32
HETATM   32  C   UNL     1       4.960  -1.089   1.224  1.00  0.00     0.293 C 
HETATM   33  O   UNL     1       4.994  -1.655   2.302  1.00  0.00    -0.259 OA
BRANCH  32  34
HETATM   34  O   UNL     1       5.585   0.066   0.910  1.00  0.00    -0.323 OA
HETATM   35  C   UNL     1       6.262   0.708   1.995  1.00  0.00     0.213 C 
ENDBRANCH  32  34
ENDBRANCH   9  32
BRANCH   1  36
HETATM   36  C   UNL     1       3.513   0.435  -1.020  1.00  0.00     0.056 C 
HETATM   37  C   UNL     1       2.486   0.770   0.059  1.00  0.00     0.011 C 
ENDBRANCH   1  36
TORSDOF 9
