REMARK  6 active torsions:
REMARK  status: ('A' for Active; 'I' for Inactive)
REMARK    1  A    between atoms: C_4  and  C_5 
REMARK    2  A    between atoms: C_9  and  N_10 
REMARK       I    between atoms: N_10  and  C_11 
REMARK    3  A    between atoms: C_11  and  C_12 
REMARK    4  A    between atoms: C_12  and  C_13 
REMARK    5  A    between atoms: C_13  and  C_14 
REMARK    6  A    between atoms: C_13  and  C_20 
ROOT
HETATM    1  N   UNL     1       8.713   2.407  -0.954  1.00  0.00    -0.312 N 
HETATM    2  C   UNL     1       9.718   3.284  -0.607  1.00  0.00     0.224 C 
HETATM    3  O   UNL     1      10.918   3.013  -0.721  1.00  0.00    -0.273 OA
HETATM    4  H   UNL     1       7.742   2.634  -0.794  1.00  0.00     0.170 HD
ENDROOT
BRANCH   1   5
HETATM    5  C   UNL     1       8.974   1.137  -1.436  1.00  0.00     0.132 A 
HETATM    6  N   UNL     1      10.233   0.643  -1.655  1.00  0.00    -0.261 N 
HETATM    7  N   UNL     1      10.248  -0.615  -2.124  1.00  0.00    -0.170 NA
HETATM    8  H   UNL     1      11.109   1.133  -1.490  1.00  0.00     0.191 HD
HETATM    9  C   UNL     1       8.950  -0.940  -2.205  1.00  0.00     0.120 A 
HETATM   10  C   UNL     1       8.100   0.126  -1.782  1.00  0.00     0.017 A 
HETATM   11  C   UNL     1       6.618   0.126  -1.728  1.00  0.00     0.055 C 
BRANCH   9  12
HETATM   12  C   UNL     1       8.498  -2.281  -2.690  1.00  0.00     0.106 A 
HETATM   13  O   UNL     1       7.191  -2.671  -2.810  1.00  0.00    -0.313 OA
HETATM   14  C   UNL     1       7.185  -3.949  -3.279  1.00  0.00     0.050 A 
HETATM   15  C   UNL     1       5.862  -4.567  -3.492  1.00  0.00     0.076 C 
HETATM   16  C   UNL     1       8.476  -4.392  -3.466  1.00  0.00     0.035 A 
HETATM   17  C   UNL     1       9.319  -3.320  -3.087  1.00  0.00     0.042 A 
ENDBRANCH   9  12
ENDBRANCH   1   5
BRANCH   2  18
HETATM   18  C   UNL     1       9.314   4.660  -0.086  1.00  0.00     0.116 C 
BRANCH  18  19
HETATM   19  C   UNL     1       7.817   5.000   0.061  1.00  0.00     0.049 C 
BRANCH  19  20
HETATM   20  C   UNL     1       7.049   4.104   1.029  1.00  0.00    -0.050 A 
HETATM   21  C   UNL     1       7.619   3.601   2.209  1.00  0.00     0.008 A 
HETATM   22  C   UNL     1       6.888   2.757   3.049  1.00  0.00     0.001 A 
HETATM   23  C   UNL     1       5.577   2.413   2.729  1.00  0.00     0.000 A 
HETATM   24  C   UNL     1       4.989   2.921   1.575  1.00  0.00     0.001 A 
HETATM   25  C   UNL     1       5.716   3.764   0.733  1.00  0.00     0.008 A 
ENDBRANCH  19  20
BRANCH  19  26
HETATM   26  C   UNL     1       7.665   6.487   0.347  1.00  0.00    -0.027 C 
HETATM   27  C   UNL     1       7.108   7.072   1.416  1.00  0.00     0.007 C 
ENDBRANCH  19  26
ENDBRANCH  18  19
ENDBRANCH   2  18
TORSDOF 6
