REMARK  7 active torsions:
REMARK  status: ('A' for Active; 'I' for Inactive)
REMARK    1  A    between atoms: N_7  and  C_8 
REMARK    2  A    between atoms: C_8  and  C_9 
REMARK       I    between atoms: C_9  and  N_10 
REMARK    3  A    between atoms: N_10  and  C_11 
REMARK    4  A    between atoms: C_11  and  C_12 
REMARK    5  A    between atoms: C_12  and  C_13 
REMARK    6  A    between atoms: C_12  and  C_23 
REMARK    7  A    between atoms: C_26  and  O_27 
ROOT
HETATM    1  C   UNL     1       1.906  -0.746  -3.786  1.00  0.00     0.136 C 
ENDROOT
BRANCH   1   2
HETATM    2  N   UNL     1       1.904  -1.970  -4.569  1.00  0.00    -0.359 N 
HETATM    3  C   UNL     1       0.717  -2.609  -4.876  1.00  0.00     0.236 C 
HETATM    4  O   UNL     1      -0.374  -2.229  -4.458  1.00  0.00    -0.272 OA
HETATM    5  H   UNL     1       2.724  -2.188  -5.129  1.00  0.00     0.162 HD
BRANCH   3   6
HETATM    6  C   UNL     1       0.867  -3.875  -5.716  1.00  0.00     0.239 C 
BRANCH   6   7
HETATM    7  N   UNL     1       1.296  -3.553  -7.060  1.00  0.00    -0.259 N 
HETATM    8  C   UNL     1       2.578  -3.303  -7.411  1.00  0.00     0.326 A 
HETATM    9  N   UNL     1       2.628  -3.049  -8.755  1.00  0.00    -0.324 N 
HETATM   10  O   UNL     1       3.543  -3.267  -6.666  1.00  0.00    -0.247 OA
HETATM   11  C   UNL     1       1.332  -3.150  -9.405  1.00  0.00     0.119 A 
HETATM   12  H   UNL     1       3.500  -2.813  -9.209  1.00  0.00     0.165 HD
HETATM   13  C   UNL     1       1.289  -4.327 -10.410  1.00  0.00     0.019 C 
HETATM   14  C   UNL     1       0.476  -3.472  -8.150  1.00  0.00     0.257 A 
HETATM   15  C   UNL     1       0.934  -1.797 -10.008  1.00  0.00     0.041 C 
HETATM   16  C   UNL     1       2.494  -4.330 -11.365  1.00  0.00     0.013 C 
HETATM   17  C   UNL     1      -0.021  -4.328 -11.220  1.00  0.00     0.007 C 
HETATM   18  C   UNL     1      -0.325  -2.978 -11.863  1.00  0.00     0.001 C 
HETATM   19  C   UNL     1      -0.352  -1.857 -10.831  1.00  0.00     0.003 C 
HETATM   20  O   UNL     1      -0.734  -3.653  -8.144  1.00  0.00    -0.270 OA
ENDBRANCH   6   7
ENDBRANCH   3   6
ENDBRANCH   1   2
BRANCH   1  21
HETATM   21  C   UNL     1       3.226  -0.324  -3.100  1.00  0.00     0.071 C 
BRANCH  21  22
HETATM   22  C   UNL     1       4.335   0.139  -4.019  1.00  0.00    -0.020 A 
HETATM   23  C   UNL     1       4.967   1.436  -3.978  1.00  0.00    -0.001 A 
HETATM   24  C   UNL     1       5.933   1.473  -4.984  1.00  0.00     0.042 A 
HETATM   25  C   UNL     1       4.810   2.581  -3.167  1.00  0.00     0.014 A 
HETATM   26  C   UNL     1       6.741   2.590  -5.224  1.00  0.00     0.030 A 
HETATM   27  N   UNL     1       5.905   0.253  -5.612  1.00  0.00    -0.365 N 
HETATM   28  C   UNL     1       6.564   3.708  -4.406  1.00  0.00     0.002 A 
HETATM   29  C   UNL     1       5.613   3.706  -3.390  1.00  0.00     0.001 A 
HETATM   30  H   UNL     1       6.513  -0.013  -6.373  1.00  0.00     0.165 HD
HETATM   31  C   UNL     1       4.959  -0.554  -5.042  1.00  0.00     0.097 A 
ENDBRANCH  21  22
BRANCH  21  32
HETATM   32  C   UNL     1       3.853  -1.296  -2.111  1.00  0.00    -0.048 A 
HETATM   33  C   UNL     1       4.138  -0.856  -0.807  1.00  0.00     0.011 A 
HETATM   34  C   UNL     1       4.714  -1.714   0.135  1.00  0.00     0.037 A 
HETATM   35  C   UNL     1       5.025  -3.031  -0.199  1.00  0.00     0.068 A 
HETATM   36  C   UNL     1       4.759  -3.481  -1.490  1.00  0.00     0.037 A 
HETATM   37  C   UNL     1       4.180  -2.622  -2.434  1.00  0.00     0.011 A 
BRANCH  35  38
HETATM   38  O   UNL     1       5.583  -3.763   0.812  1.00  0.00    -0.356 OA
HETATM   39  C   UNL     1       5.885  -5.123   0.528  1.00  0.00     0.210 C 
ENDBRANCH  35  38
ENDBRANCH  21  32
ENDBRANCH   1  21
TORSDOF 7
