REMARK  2 active torsions:
REMARK  status: ('A' for Active; 'I' for Inactive)
REMARK    1  A    between atoms: C_4  and  C_5 
REMARK    2  A    between atoms: C_10  and  C_11 
ROOT
HETATM    1  C   UNL     1       7.512  -0.289   0.050  1.00  0.00     0.224 C 
HETATM    2  N   UNL     1       8.383  -0.477   1.216  1.00  0.00    -0.359 N 
HETATM    3  C   UNL     1       9.252   0.646   1.543  1.00  0.00     0.152 C 
HETATM    4  C   UNL     1       8.776  -1.784   1.510  1.00  0.00     0.047 A 
HETATM    5  C   UNL     1       7.985  -2.871   1.093  1.00  0.00     0.058 A 
HETATM    6  C   UNL     1       6.726  -2.588   0.375  1.00  0.00     0.255 C 
HETATM    7  O   UNL     1       5.933  -3.474   0.075  1.00  0.00    -0.268 OA
HETATM    8  N   UNL     1       6.477  -1.279   0.082  1.00  0.00    -0.331 N 
HETATM    9  C   UNL     1       9.930  -2.093   2.247  1.00  0.00     0.030 A 
HETATM   10  C   UNL     1      10.294  -3.419   2.521  1.00  0.00     0.002 A 
HETATM   11  C   UNL     1       9.502  -4.472   2.076  1.00  0.00     0.001 A 
HETATM   12  C   UNL     1       8.339  -4.200   1.365  1.00  0.00     0.019 A 
HETATM   13  H   UNL     1       5.658  -1.119  -0.485  1.00  0.00     0.165 HD
ENDROOT
BRANCH   1  14
HETATM   14  C   UNL     1       8.144  -0.301  -1.314  1.00  0.00     0.034 A 
HETATM   15  C   UNL     1       7.708   0.385  -2.484  1.00  0.00     0.122 A 
HETATM   16  N   UNL     1       8.517   0.159  -3.531  1.00  0.00    -0.172 NA
HETATM   17  N   UNL     1       9.438  -0.687  -3.054  1.00  0.00    -0.288 N 
HETATM   18  H   UNL     1      10.157  -1.022  -3.687  1.00  0.00     0.188 HD
HETATM   19  C   UNL     1       9.274  -0.982  -1.737  1.00  0.00     0.123 A 
BRANCH  15  20
HETATM   20  C   UNL     1       6.504   1.265  -2.606  1.00  0.00     0.106 A 
HETATM   21  O   UNL     1       5.624   1.536  -1.594  1.00  0.00    -0.313 OA
HETATM   22  C   UNL     1       4.674   2.376  -2.089  1.00  0.00     0.050 A 
HETATM   23  C   UNL     1       3.619   2.811  -1.151  1.00  0.00     0.076 C 
HETATM   24  C   UNL     1       4.923   2.644  -3.416  1.00  0.00     0.035 A 
HETATM   25  C   UNL     1       6.099   1.929  -3.749  1.00  0.00     0.042 A 
ENDBRANCH  15  20
ENDBRANCH   1  14
TORSDOF 2
