REMARK  6 active torsions:
REMARK  status: ('A' for Active; 'I' for Inactive)
REMARK    1  A    between atoms: C_2  and  C_3 
REMARK    2  A    between atoms: C_3  and  C_4 
REMARK    3  A    between atoms: C_3  and  C_10 
REMARK    4  A    between atoms: C_10  and  C_11 
REMARK       I    between atoms: C_11  and  N_12 
REMARK    5  A    between atoms: N_12  and  C_13 
REMARK    6  A    between atoms: C_20  and  C_21 
REMARK       I    between atoms: C_21  and  N_22 
ROOT
HETATM    1  C   UNL     1       4.639  -3.164   4.218  1.00  0.00     0.035 A 
HETATM    2  C   UNL     1       5.844  -3.846   4.438  1.00  0.00     0.046 A 
HETATM    3  C   UNL     1       5.914  -4.830   5.448  1.00  0.00     0.030 A 
HETATM    4  C   UNL     1       4.785  -5.084   6.217  1.00  0.00     0.063 A 
HETATM    5  N   UNL     1       5.160  -6.056   7.101  1.00  0.00    -0.277 N 
HETATM    6  H   UNL     1       4.590  -6.482   7.822  1.00  0.00     0.189 HD
HETATM    7  N   UNL     1       6.427  -6.478   6.961  1.00  0.00    -0.168 NA
HETATM    8  C   UNL     1       6.906  -5.732   5.939  1.00  0.00     0.156 A 
HETATM    9  C   UNL     1       3.571  -4.420   6.029  1.00  0.00     0.034 A 
HETATM   10  C   UNL     1       3.521  -3.464   5.006  1.00  0.00     0.032 A 
ENDROOT
BRANCH   1  11
HETATM   11  N   UNL     1       4.465  -2.193   3.207  1.00  0.00    -0.327 N 
HETATM   12  C   UNL     1       5.434  -1.664   2.376  1.00  0.00     0.223 C 
HETATM   13  O   UNL     1       6.641  -1.871   2.445  1.00  0.00    -0.273 OA
HETATM   14  H   UNL     1       3.515  -1.872   3.062  1.00  0.00     0.169 HD
BRANCH  12  15
HETATM   15  C   UNL     1       4.873  -0.751   1.299  1.00  0.00     0.116 C 
BRANCH  15  16
HETATM   16  C   UNL     1       4.541  -1.465  -0.024  1.00  0.00     0.049 C 
BRANCH  16  17
HETATM   17  C   UNL     1       5.741  -2.144  -0.654  1.00  0.00    -0.027 C 
HETATM   18  C   UNL     1       6.200  -1.886  -1.887  1.00  0.00     0.007 C 
ENDBRANCH  16  17
BRANCH  16  19
HETATM   19  C   UNL     1       3.324  -2.376   0.095  1.00  0.00    -0.050 A 
HETATM   20  C   UNL     1       3.413  -3.692   0.576  1.00  0.00     0.008 A 
HETATM   21  C   UNL     1       2.272  -4.489   0.695  1.00  0.00     0.001 A 
HETATM   22  C   UNL     1       1.027  -3.986   0.328  1.00  0.00     0.000 A 
HETATM   23  C   UNL     1       0.919  -2.685  -0.154  1.00  0.00     0.001 A 
HETATM   24  C   UNL     1       2.057  -1.884  -0.266  1.00  0.00     0.008 A 
ENDBRANCH  16  19
ENDBRANCH  15  16
ENDBRANCH  12  15
ENDBRANCH   1  11
BRANCH   8  25
HETATM   25  C   UNL     1       8.281  -5.905   5.449  1.00  0.00     0.270 C 
HETATM   26  N   UNL     1       8.999  -6.855   6.124  1.00  0.00    -0.365 N 
HETATM   27  H   UNL     1       8.547  -7.364   6.873  1.00  0.00     0.159 HD
HETATM   28  H   UNL     1       9.944  -7.059   5.839  1.00  0.00     0.159 HD
HETATM   29  O   UNL     1       8.775  -5.284   4.515  1.00  0.00    -0.266 OA
ENDBRANCH   8  25
TORSDOF 6
