REMARK  5 active torsions:
REMARK  status: ('A' for Active; 'I' for Inactive)
REMARK    1  A    between atoms: C_3  and  N_4 
REMARK       I    between atoms: N_4  and  C_5 
REMARK       I    between atoms: C_5  and  N_6 
REMARK    2  A    between atoms: N_6  and  C_7 
REMARK    3  A    between atoms: C_7  and  C_8 
REMARK    4  A    between atoms: C_8  and  O_9 
REMARK    5  A    between atoms: O_9  and  C_10 
ROOT
HETATM    1  N   UNL     1       3.959   5.908  -1.449  1.00  0.00    -0.307 N 
HETATM    2  C   UNL     1       5.055   5.092  -1.605  1.00  0.00     0.320 C 
HETATM    3  N   UNL     1       4.934   3.957  -0.828  1.00  0.00    -0.340 N 
HETATM    4  O   UNL     1       6.027   5.312  -2.310  1.00  0.00    -0.247 OA
HETATM    5  H   UNL     1       3.590   5.898  -0.508  1.00  0.00     0.170 HD
HETATM    6  H   UNL     1       3.974   3.700  -0.650  1.00  0.00     0.164 HD
ENDROOT
BRANCH   3   7
HETATM    7  C   UNL     1       5.838   2.829  -1.035  1.00  0.00     0.156 C 
BRANCH   7   8
HETATM    8  C   UNL     1       7.298   3.056  -0.586  1.00  0.00     0.142 C 
HETATM    9  C   UNL     1       8.253   3.139  -1.779  1.00  0.00     0.042 C 
BRANCH   8  10
HETATM   10  O   UNL     1       7.736   1.897   0.149  1.00  0.00    -0.345 OA
BRANCH  10  11
HETATM   11  C   UNL     1       7.759   1.941   1.511  1.00  0.00     0.069 A 
HETATM   12  C   UNL     1       7.061   2.838   2.318  1.00  0.00     0.038 A 
HETATM   13  C   UNL     1       7.175   2.759   3.711  1.00  0.00     0.026 A 
HETATM   14  C   UNL     1       7.977   1.778   4.293  1.00  0.00     0.034 A 
HETATM   15 CL   UNL     1       8.115   1.687   6.005  1.00  0.00    -0.084 Cl
HETATM   16  C   UNL     1       8.662   0.868   3.495  1.00  0.00     0.026 A 
HETATM   17  C   UNL     1       8.547   0.950   2.106  1.00  0.00     0.038 A 
ENDBRANCH  10  11
ENDBRANCH   8  10
ENDBRANCH   7   8
ENDBRANCH   3   7
BRANCH   1  18
HETATM   18  C   UNL     1       3.633   7.040  -2.236  1.00  0.00     0.059 A 
HETATM   19  C   UNL     1       3.883   7.195  -3.609  1.00  0.00    -0.032 A 
HETATM   20  C   UNL     1       4.496   6.150  -4.498  1.00  0.00     0.050 C 
HETATM   21  C   UNL     1       3.513   8.407  -4.220  1.00  0.00     0.028 A 
HETATM   22  C   UNL     1       2.862   9.379  -3.479  1.00  0.00     0.117 A 
HETATM   23  N   UNL     1       2.549   9.235  -2.180  1.00  0.00    -0.271 NA
HETATM   24  C   UNL     1       2.940   8.076  -1.599  1.00  0.00     0.146 A 
ENDBRANCH   1  18
TORSDOF 5
