REMARK  3 active torsions:
REMARK  status: ('A' for Active; 'I' for Inactive)
REMARK    1  A    between atoms: C_3  and  N_4 
REMARK       I    between atoms: N_4  and  C_5 
REMARK    2  A    between atoms: C_5  and  C_6 
REMARK    3  A    between atoms: C_7  and  C_8 
ROOT
HETATM    1  C   UNL     1       4.651   3.779  -0.242  1.00  0.00     0.062 A 
HETATM    2  C   UNL     1       5.222   5.138  -0.633  1.00  0.00     0.199 A 
HETATM    3  N   UNL     1       6.556   5.329  -0.067  1.00  0.00    -0.092 N 
HETATM    4  C   UNL     1       7.195   4.428   0.738  1.00  0.00     0.735 A 
HETATM    5  N   UNL     1       6.601   3.249   1.008  1.00  0.00    -0.191 N 
HETATM    6  N   UNL     1       7.246   6.479  -0.113  1.00  0.00     0.012 NA
HETATM    7  N   UNL     1       8.348   6.234   0.589  1.00  0.00     0.033 NA
HETATM    8  N   UNL     1       8.326   4.961   1.130  1.00  0.00     0.030 NA
HETATM    9  C   UNL     1       5.341   2.903   0.530  1.00  0.00     0.037 A 
HETATM   10  C   UNL     1       4.833   1.543   0.939  1.00  0.00     0.070 C 
HETATM   11  H   UNL     1       7.086   2.572   1.592  1.00  0.00     0.184 HD
ENDROOT
BRANCH   1  12
HETATM   12  C   UNL     1       3.347   3.397  -0.843  1.00  0.00     0.256 C 
HETATM   13  N   UNL     1       2.319   4.230  -0.461  1.00  0.00    -0.323 N 
HETATM   14  H   UNL     1       2.521   4.925   0.242  1.00  0.00     0.169 HD
HETATM   15  O   UNL     1       3.300   2.424  -1.583  1.00  0.00    -0.267 OA
BRANCH  13  16
HETATM   16  C   UNL     1       0.979   4.206  -0.924  1.00  0.00     0.041 A 
HETATM   17  C   UNL     1       0.063   5.152  -0.409  1.00  0.00    -0.035 A 
HETATM   18  C   UNL     1       0.455   6.189   0.610  1.00  0.00     0.050 C 
HETATM   19  C   UNL     1      -1.267   5.147  -0.869  1.00  0.00     0.009 A 
HETATM   20  C   UNL     1      -1.692   4.224  -1.821  1.00  0.00     0.001 A 
HETATM   21  C   UNL     1      -0.792   3.297  -2.329  1.00  0.00     0.002 A 
HETATM   22  C   UNL     1       0.533   3.290  -1.884  1.00  0.00     0.030 A 
ENDBRANCH  13  16
ENDBRANCH   1  12
BRANCH   2  23
HETATM   23  C   UNL     1       5.242   5.402  -2.125  1.00  0.00    -0.011 A 
HETATM   24  C   UNL     1       4.770   6.616  -2.624  1.00  0.00     0.125 A 
HETATM   25  N   UNL     1       4.727   6.936  -3.935  1.00  0.00    -0.272 NA
HETATM   26  C   UNL     1       5.189   6.011  -4.802  1.00  0.00     0.116 A 
HETATM   27  C   UNL     1       5.698   4.784  -4.415  1.00  0.00     0.020 A 
HETATM   28  C   UNL     1       5.728   4.478  -3.057  1.00  0.00     0.012 A 
ENDBRANCH   2  23
TORSDOF 3
