REMARK  4 active torsions:
REMARK  status: ('A' for Active; 'I' for Inactive)
REMARK    1  A    between atoms: C_9  and  N_10 
REMARK    2  A    between atoms: N_10  and  C_12 
REMARK    3  A    between atoms: C_12  and  C_13 
REMARK    4  A    between atoms: C_14  and  C_15 
ROOT
HETATM    1  C   UNL     1       1.118  -3.437   1.573  1.00  0.00     0.016 A 
HETATM    2  C   UNL     1       0.899  -4.766   1.086  1.00  0.00     0.096 A 
HETATM    3  N   UNL     1      -0.018  -5.400   1.826  1.00  0.00    -0.174 NA
HETATM    4  N   UNL     1      -0.403  -4.517   2.747  1.00  0.00    -0.288 N 
HETATM    5  H   UNL     1      -1.121  -4.798   3.411  1.00  0.00     0.188 HD
HETATM    6  C   UNL     1       0.239  -3.316   2.637  1.00  0.00     0.120 A 
ENDROOT
BRANCH   1   7
HETATM    7  C   UNL     1       2.022  -2.409   0.986  1.00  0.00     0.277 C 
BRANCH   7   8
HETATM    8  N   UNL     1       2.461  -1.334   1.956  1.00  0.00    -0.065 N 
HETATM    9  H   UNL     1       1.614  -0.920   2.364  1.00  0.00     0.280 HD
HETATM   10  C   UNL     1       3.334  -1.865   3.061  1.00  0.00     0.270 C 
BRANCH   8  11
HETATM   11  C   UNL     1       3.258  -0.307   1.209  1.00  0.00     0.205 C 
HETATM   12  C   UNL     1       2.413   0.656   0.225  1.00  0.00     0.008 C 
HETATM   13  C   UNL     1       0.960   1.015   0.541  1.00  0.00     0.020 C 
HETATM   14  C   UNL     1       2.566   0.300  -1.258  1.00  0.00     0.020 C 
HETATM   15  C   UNL     1       3.462   1.699   0.657  1.00  0.00     0.137 C 
HETATM   16  C   UNL     1       3.502   0.997   2.046  1.00  0.00     0.049 C 
HETATM   17  O   UNL     1       3.267   3.082   0.947  1.00  0.00    -0.385 OA
HETATM   18  C   UNL     1       4.590   1.933   2.557  1.00  0.00     0.035 C 
HETATM   19  C   UNL     1       4.033   3.332   2.154  1.00  0.00     0.168 C 
ENDBRANCH   8  11
ENDBRANCH   7   8
ENDBRANCH   1   7
BRANCH   2  20
HETATM   20  C   UNL     1       1.485  -5.428  -0.076  1.00  0.00    -0.002 A 
HETATM   21  C   UNL     1       0.640  -5.971  -1.056  1.00  0.00     0.053 A 
HETATM   22  C   UNL     1       1.177  -6.595  -2.181  1.00  0.00     0.103 A 
HETATM   23  C   UNL     1       2.561  -6.706  -2.323  1.00  0.00     0.102 A 
HETATM   24  O   UNL     1       0.283  -7.085  -3.096  1.00  0.00    -0.346 OA
HETATM   25  O   UNL     1       3.157  -7.335  -3.386  1.00  0.00    -0.346 OA
HETATM   26  C   UNL     1       3.409  -6.169  -1.357  1.00  0.00     0.040 A 
HETATM   27  C   UNL     1       2.225  -8.182  -4.072  1.00  0.00     0.202 C 
HETATM   28  C   UNL     1       0.921  -7.445  -4.328  1.00  0.00     0.202 C 
HETATM   29  C   UNL     1       2.874  -5.541  -0.228  1.00  0.00     0.017 A 
ENDBRANCH   2  20
TORSDOF 4
