REMARK  7 active torsions:
REMARK  status: ('A' for Active; 'I' for Inactive)
REMARK    1  A    between atoms: C_2  and  C_3 
REMARK    2  A    between atoms: C_3  and  O_4 
REMARK    3  A    between atoms: O_4  and  C_5 
REMARK    4  A    between atoms: C_8  and  C_9 
REMARK    5  A    between atoms: C_15  and  C_16 
REMARK    6  A    between atoms: C_19  and  N_20 
REMARK       I    between atoms: N_20  and  C_21 
REMARK    7  A    between atoms: C_29  and  N_30 
ROOT
HETATM    1  C   UNL     1       6.708   1.221  -6.482  1.00  0.00     0.072 A 
HETATM    2  N   UNL     1       6.827   2.438  -7.121  1.00  0.00    -0.274 N 
HETATM    3  H   UNL     1       6.665   3.359  -6.728  1.00  0.00     0.189 HD
HETATM    4  N   UNL     1       7.201   2.352  -8.413  1.00  0.00    -0.148 NA
HETATM    5  C   UNL     1       7.332   1.043  -8.581  1.00  0.00     0.199 A 
HETATM    6  C   UNL     1       7.053   0.282  -7.442  1.00  0.00     0.040 A 
HETATM    7  C   UNL     1       7.155  -1.203  -7.488  1.00  0.00     0.106 A 
HETATM    8  C   UNL     1       7.565  -1.686  -8.875  1.00  0.00     0.081 A 
HETATM    9  C   UNL     1       7.747  -3.091  -9.033  1.00  0.00     0.100 C 
HETATM   10  N   UNL     1       7.895  -4.236  -9.155  1.00  0.00    -0.191 NA
HETATM   11  C   UNL     1       7.805  -0.839  -9.910  1.00  0.00     0.140 A 
HETATM   12  O   UNL     1       7.686   0.551  -9.781  1.00  0.00    -0.277 OA
ENDROOT
BRANCH   7  13
HETATM   13  C   UNL     1       5.812  -1.759  -7.031  1.00  0.00    -0.044 A 
HETATM   14  C   UNL     1       4.600  -1.430  -7.658  1.00  0.00     0.010 A 
HETATM   15  C   UNL     1       3.387  -1.971  -7.211  1.00  0.00     0.030 A 
HETATM   16  C   UNL     1       3.360  -2.864  -6.140  1.00  0.00     0.034 A 
HETATM   17  C   UNL     1       4.566  -3.212  -5.524  1.00  0.00     0.030 A 
HETATM   18  C   UNL     1       5.777  -2.671  -5.965  1.00  0.00     0.010 A 
BRANCH  16  19
HETATM   19  N   UNL     1       2.186  -3.453  -5.628  1.00  0.00    -0.328 N 
HETATM   20  C   UNL     1       0.886  -3.258  -6.058  1.00  0.00     0.218 C 
HETATM   21  C   UNL     1      -0.101  -4.081  -5.268  1.00  0.00     0.117 C 
HETATM   22  O   UNL     1       0.511  -2.540  -6.977  1.00  0.00    -0.274 OA
HETATM   23  H   UNL     1       2.317  -4.093  -4.855  1.00  0.00     0.169 HD
ENDBRANCH  16  19
ENDBRANCH   7  13
BRANCH  11  24
HETATM   24  N   UNL     1       8.187  -1.222 -11.178  1.00  0.00    -0.282 NA
HETATM   25  H   UNL     1       7.890  -2.152 -11.465  1.00  0.00     0.126 HD
HETATM   26  H   UNL     1       7.970  -0.507 -11.869  1.00  0.00     0.126 HD
ENDBRANCH  11  24
BRANCH   1  27
HETATM   27  C   UNL     1       6.254   1.097  -5.102  1.00  0.00    -0.007 A 
HETATM   28  C   UNL     1       5.120   1.795  -4.667  1.00  0.00     0.016 A 
HETATM   29  C   UNL     1       4.645   1.651  -3.358  1.00  0.00     0.037 A 
HETATM   30  C   UNL     1       5.295   0.799  -2.467  1.00  0.00     0.068 A 
HETATM   31  C   UNL     1       6.434   0.112  -2.892  1.00  0.00     0.037 A 
HETATM   32  C   UNL     1       6.914   0.260  -4.198  1.00  0.00     0.016 A 
BRANCH  30  33
HETATM   33  O   UNL     1       4.919   0.548  -1.177  1.00  0.00    -0.351 OA
BRANCH  33  34
HETATM   34  C   UNL     1       3.739   1.202  -0.708  1.00  0.00     0.175 C 
BRANCH  34  35
HETATM   35  C   UNL     1       3.452   0.703   0.705  1.00  0.00     0.022 C 
HETATM   36  C   UNL     1       2.228   1.375   1.301  1.00  0.00     0.007 C 
ENDBRANCH  34  35
ENDBRANCH  33  34
ENDBRANCH  30  33
ENDBRANCH   1  27
TORSDOF 7
