REMARK  4 active torsions:
REMARK  status: ('A' for Active; 'I' for Inactive)
REMARK    1  A    between atoms: C_6  and  C_7 
REMARK    2  A    between atoms: C_10  and  N_11 
REMARK       I    between atoms: N_11  and  C_12 
REMARK    3  A    between atoms: C_24  and  C_25 
REMARK       I    between atoms: C_25  and  N_26 
REMARK    4  A    between atoms: N_26  and  C_27 
ROOT
HETATM    1  C   UNL     1       1.231  -0.149   0.973  1.00  0.00     0.070 C 
HETATM    2  C   UNL     1       2.598  -0.044   0.345  1.00  0.00     0.037 C 
HETATM    3  N   UNL     1       3.219  -1.259   0.071  1.00  0.00    -0.193 N 
HETATM    4  C   UNL     1       4.550  -1.381  -0.106  1.00  0.00     0.709 A 
HETATM    5  N   UNL     1       5.302  -0.249  -0.291  1.00  0.00    -0.165 N 
HETATM    6  C   UNL     1       4.712   1.093  -0.379  1.00  0.00     0.182 C 
HETATM    7  N   UNL     1       5.293  -2.458  -0.078  1.00  0.00    -0.062 NA
HETATM    8  C   UNL     1       6.586  -1.998  -0.189  1.00  0.00     0.103 A 
HETATM    9  C   UNL     1       6.625  -0.609  -0.313  1.00  0.00     0.082 A 
HETATM   10  C   UNL     1       7.791  -2.717  -0.175  1.00  0.00     0.034 A 
HETATM   11  C   UNL     1       8.998  -2.015  -0.278  1.00  0.00     0.002 A 
HETATM   12  C   UNL     1       9.008  -0.624  -0.401  1.00  0.00     0.002 A 
HETATM   13  C   UNL     1       7.818   0.113  -0.425  1.00  0.00     0.032 A 
HETATM   14  C   UNL     1       3.275   1.112   0.128  1.00  0.00     0.061 C 
HETATM   15  H   UNL     1       2.720  -2.105   0.337  1.00  0.00     0.184 HD
ENDROOT
BRANCH   6  16
HETATM   16  C   UNL     1       4.839   1.624  -1.806  1.00  0.00    -0.030 A 
HETATM   17  C   UNL     1       4.401   0.883  -2.915  1.00  0.00     0.012 A 
HETATM   18  C   UNL     1       4.594   1.352  -4.220  1.00  0.00     0.030 A 
HETATM   19  C   UNL     1       5.219   2.577  -4.447  1.00  0.00     0.034 A 
HETATM   20  C   UNL     1       5.619   3.342  -3.345  1.00  0.00     0.030 A 
HETATM   21  C   UNL     1       5.427   2.876  -2.039  1.00  0.00     0.012 A 
BRANCH  19  22
HETATM   22  N   UNL     1       5.506   3.090  -5.729  1.00  0.00    -0.328 N 
HETATM   23  C   UNL     1       5.214   2.512  -6.952  1.00  0.00     0.218 C 
HETATM   24  C   UNL     1       5.765   3.311  -8.107  1.00  0.00     0.117 C 
HETATM   25  O   UNL     1       4.568   1.490  -7.152  1.00  0.00    -0.274 OA
HETATM   26  H   UNL     1       5.999   3.974  -5.752  1.00  0.00     0.169 HD
ENDBRANCH  19  22
ENDBRANCH   6  16
BRANCH  14  27
HETATM   27  C   UNL     1       2.798   2.471   0.517  1.00  0.00     0.256 C 
HETATM   28  N   UNL     1       1.503   2.753   0.144  1.00  0.00    -0.323 N 
HETATM   29  H   UNL     1       1.032   2.070  -0.435  1.00  0.00     0.169 HD
HETATM   30  O   UNL     1       3.579   3.223   1.090  1.00  0.00    -0.267 OA
BRANCH  28  31
HETATM   31  C   UNL     1       0.723   3.856   0.556  1.00  0.00     0.035 A 
HETATM   32  C   UNL     1       1.202   4.897   1.355  1.00  0.00     0.029 A 
HETATM   33  C   UNL     1       0.351   5.927   1.768  1.00  0.00     0.002 A 
HETATM   34  C   UNL     1      -0.989   5.923   1.391  1.00  0.00     0.000 A 
HETATM   35  C   UNL     1      -1.477   4.893   0.591  1.00  0.00     0.002 A 
HETATM   36  C   UNL     1      -0.624   3.868   0.172  1.00  0.00     0.029 A 
ENDBRANCH  28  31
ENDBRANCH  14  27
TORSDOF 4
