REMARK  4 active torsions:
REMARK  status: ('A' for Active; 'I' for Inactive)
REMARK    1  A    between atoms: C_9  and  C_10 
REMARK    2  A    between atoms: C_20  and  C_21 
REMARK       I    between atoms: C_21  and  N_22 
REMARK    3  A    between atoms: N_22  and  C_23 
REMARK    4  A    between atoms: C_24  and  O_25 
ROOT
HETATM    1  C   UNL     1       0.101  -0.224  -0.419  1.00  0.00     0.070 C 
HETATM    2  C   UNL     1       1.605  -0.321  -0.308  1.00  0.00     0.037 A 
HETATM    3  N   UNL     1       2.259   0.870  -0.017  1.00  0.00    -0.192 N 
HETATM    4  C   UNL     1       3.589   0.970   0.146  1.00  0.00     0.725 A 
HETATM    5  N   UNL     1       4.365  -0.147   0.002  1.00  0.00    -0.084 N 
HETATM    6  N   UNL     1       5.647   0.105   0.347  1.00  0.00    -0.149 NA
HETATM    7  C   UNL     1       5.587   1.423   0.569  1.00  0.00     0.275 A 
HETATM    8  N   UNL     1       4.343   1.989   0.469  1.00  0.00    -0.054 NA
HETATM    9  C   UNL     1       3.835  -1.484  -0.292  1.00  0.00     0.203 A 
HETATM   10  C   UNL     1       2.313  -1.472  -0.451  1.00  0.00     0.062 A 
HETATM   11  H   UNL     1       1.692   1.709   0.080  1.00  0.00     0.184 HD
ENDROOT
BRANCH  10  12
HETATM   12  C   UNL     1       1.620  -2.729  -0.881  1.00  0.00     0.256 C 
HETATM   13  N   UNL     1       2.079  -3.875  -0.266  1.00  0.00    -0.321 N 
HETATM   14  H   UNL     1       2.957  -3.828   0.228  1.00  0.00     0.169 HD
HETATM   15  O   UNL     1       0.782  -2.661  -1.771  1.00  0.00    -0.267 OA
BRANCH  13  16
HETATM   16  C   UNL     1       1.597  -5.194  -0.462  1.00  0.00     0.068 A 
HETATM   17  C   UNL     1       0.294  -5.552  -0.840  1.00  0.00     0.095 A 
HETATM   18  C   UNL     1      -0.040  -6.894  -1.062  1.00  0.00     0.039 A 
HETATM   19  C   UNL     1       0.899  -7.899  -0.849  1.00  0.00     0.003 A 
HETATM   20  C   UNL     1       2.177  -7.565  -0.413  1.00  0.00     0.002 A 
HETATM   21  C   UNL     1       2.521  -6.224  -0.216  1.00  0.00     0.032 A 
BRANCH  17  22
HETATM   22  O   UNL     1      -0.729  -4.655  -0.992  1.00  0.00    -0.354 OA
HETATM   23  C   UNL     1      -1.311  -4.339   0.271  1.00  0.00     0.210 C 
ENDBRANCH  17  22
ENDBRANCH  13  16
ENDBRANCH  10  12
BRANCH   9  24
HETATM   24  C   UNL     1       4.591  -2.106  -1.471  1.00  0.00    -0.017 A 
HETATM   25  C   UNL     1       5.697  -2.995  -1.279  1.00  0.00    -0.017 A 
HETATM   26  C   UNL     1       6.299  -3.584  -2.422  1.00  0.00    -0.025 A 
HETATM   27  C   UNL     1       6.256  -3.329  -0.019  1.00  0.00     0.013 A 
HETATM   28  C   UNL     1       7.373  -4.479  -2.279  1.00  0.00     0.012 A 
HETATM   29  C   UNL     1       5.835  -3.270  -3.705  1.00  0.00     0.012 A 
HETATM   30  C   UNL     1       7.883  -4.797  -1.024  1.00  0.00     0.001 A 
HETATM   31  C   UNL     1       7.329  -4.217   0.106  1.00  0.00     0.001 A 
HETATM   32  C   UNL     1       4.791  -2.371  -3.887  1.00  0.00     0.002 A 
HETATM   33  C   UNL     1       4.180  -1.789  -2.784  1.00  0.00     0.010 A 
ENDBRANCH   9  24
TORSDOF 4
