REMARK  9 active torsions:
REMARK  status: ('A' for Active; 'I' for Inactive)
REMARK    1  A    between atoms: C_2  and  N_3 
REMARK    2  A    between atoms: N_3  and  C_5 
REMARK    3  A    between atoms: N_3  and  C_29 
REMARK    4  A    between atoms: C_5  and  C_6 
REMARK    5  A    between atoms: C_6  and  O_7 
REMARK    6  A    between atoms: O_7  and  C_8 
REMARK    7  A    between atoms: C_9  and  C_10 
REMARK    8  A    between atoms: C_10  and  N_11 
REMARK       I    between atoms: N_11  and  C_12 
REMARK    9  A    between atoms: C_12  and  C_13 
ROOT
HETATM    1  N   UNL     1      -1.185   0.655  -0.024  1.00  0.00    -0.352 N 
HETATM    2  C   UNL     1      -2.115   0.383   0.968  1.00  0.00     0.254 C 
HETATM    3  O   UNL     1      -3.271   0.783   0.955  1.00  0.00    -0.268 OA
HETATM    4  H   UNL     1      -0.462  -0.045  -0.121  1.00  0.00     0.163 HD
ENDROOT
BRANCH   1   5
HETATM    5  C   UNL     1      -1.579   1.303  -1.262  1.00  0.00     0.164 C 
BRANCH   5   6
HETATM    6  C   UNL     1      -1.989   2.749  -1.126  1.00  0.00    -0.007 A 
HETATM    7  C   UNL     1      -1.070   3.799  -0.945  1.00  0.00     0.076 A 
HETATM    8  C   UNL     1      -1.543   5.119  -0.872  1.00  0.00     0.037 A 
HETATM    9  C   UNL     1      -2.909   5.398  -0.956  1.00  0.00     0.003 A 
HETATM   10  C   UNL     1      -3.821   4.364  -1.111  1.00  0.00     0.001 A 
HETATM   11  C   UNL     1      -3.363   3.052  -1.197  1.00  0.00     0.011 A 
BRANCH   7  12
HETATM   12  O   UNL     1       0.262   3.458  -0.875  1.00  0.00    -0.349 OA
BRANCH  12  13
HETATM   13  C   UNL     1       1.144   4.475  -0.390  1.00  0.00     0.203 C 
BRANCH  13  14
HETATM   14  C   UNL     1       2.548   3.898  -0.171  1.00  0.00     0.261 C 
BRANCH  14  15
HETATM   15  N   UNL     1       3.328   3.605  -1.456  1.00  0.00    -0.070 N 
HETATM   16  H   UNL     1       4.245   3.263  -1.137  1.00  0.00     0.279 HD
BRANCH  15  17
HETATM   17  C   UNL     1       3.625   4.815  -2.327  1.00  0.00     0.230 C 
HETATM   18  C   UNL     1       4.393   5.882  -1.569  1.00  0.00     0.034 C 
ENDBRANCH  15  17
BRANCH  15  19
HETATM   19  C   UNL     1       2.761   2.482  -2.311  1.00  0.00     0.230 C 
HETATM   20  C   UNL     1       2.711   1.169  -1.552  1.00  0.00     0.034 C 
ENDBRANCH  15  19
ENDBRANCH  14  15
ENDBRANCH  13  14
ENDBRANCH  12  13
ENDBRANCH   7  12
ENDBRANCH   5   6
ENDBRANCH   1   5
BRANCH   2  21
HETATM   21  C   UNL     1      -1.662  -0.515   2.060  1.00  0.00     0.064 A 
HETATM   22  C   UNL     1      -0.335  -0.708   2.393  1.00  0.00     0.077 A 
HETATM   23  C   UNL     1       0.055  -1.628   3.371  1.00  0.00     0.065 A 
HETATM   24  N   UNL     1       0.825  -0.090   1.914  1.00  0.00    -0.330 N 
HETATM   25  N   UNL     1       1.448  -1.599   3.464  1.00  0.00    -0.331 N 
HETATM   26  C   UNL     1      -0.854  -2.372   4.083  1.00  0.00     0.074 A 
HETATM   27  C   UNL     1       1.929  -0.632   2.576  1.00  0.00     0.176 A 
HETATM   28  H   UNL     1       2.015  -2.149   4.096  1.00  0.00     0.168 HD
HETATM   29  S   UNL     1       3.495  -0.179   2.338  1.00  0.00    -0.041 SA
HETATM   30  C   UNL     1      -2.199  -2.154   3.784  1.00  0.00     0.119 A 
HETATM   31  F   UNL     1      -3.131  -2.838   4.460  1.00  0.00    -0.206 F 
HETATM   32  C   UNL     1      -2.609  -1.245   2.793  1.00  0.00     0.061 A 
HETATM   33  H   UNL     1       0.847   0.697   1.284  1.00  0.00     0.168 HD
ENDBRANCH   2  21
TORSDOF 9
