REMARK  3 active torsions:
REMARK  status: ('A' for Active; 'I' for Inactive)
REMARK    1  A    between atoms: N_12  and  C_13 
REMARK    2  A    between atoms: C_13  and  C_14 
REMARK       I    between atoms: C_14  and  N_15 
REMARK    3  A    between atoms: N_15  and  C_16 
ROOT
HETATM    1  C   UNL     1       3.204  -2.684   1.026  1.00  0.00     0.048 C 
HETATM    2  C   UNL     1       3.907  -1.652   0.193  1.00  0.00    -0.061 A 
HETATM    3  C   UNL     1       4.814  -0.756   0.782  1.00  0.00     0.021 A 
HETATM    4  C   UNL     1       5.470   0.204  -0.016  1.00  0.00     0.005 A 
HETATM    5  C   UNL     1       5.199   0.239  -1.388  1.00  0.00     0.044 A 
HETATM    6  N   UNL     1       5.963   1.251  -1.936  1.00  0.00    -0.350 N 
HETATM    7  H   UNL     1       5.984   1.509  -2.915  1.00  0.00     0.166 HD
HETATM    8  C   UNL     1       6.701   1.848  -0.955  1.00  0.00     0.116 A 
HETATM    9  C   UNL     1       6.419   1.225   0.234  1.00  0.00     0.028 A 
HETATM   10  C   UNL     1       7.636   2.929  -1.075  1.00  0.00     0.291 A 
HETATM   11  O   UNL     1       7.901   3.465  -2.146  1.00  0.00    -0.264 OA
HETATM   12  N   UNL     1       8.194   3.307   0.162  1.00  0.00    -0.224 N 
HETATM   13  N   UNL     1       7.936   2.652   1.385  1.00  0.00    -0.180 NA
HETATM   14  C   UNL     1       7.087   1.666   1.424  1.00  0.00     0.153 A 
HETATM   15  C   UNL     1       4.300  -0.642  -1.998  1.00  0.00     0.031 A 
HETATM   16  C   UNL     1       3.662  -1.585  -1.183  1.00  0.00     0.009 A 
ENDROOT
BRANCH  12  17
HETATM   17  C   UNL     1       9.266   4.290   0.176  1.00  0.00     0.258 C 
BRANCH  17  18
HETATM   18  C   UNL     1       8.977   5.781  -0.070  1.00  0.00     0.244 C 
HETATM   19  N   UNL     1       7.774   6.359   0.340  1.00  0.00    -0.320 N 
HETATM   20  C   UNL     1       6.713   5.644   1.041  1.00  0.00     0.159 C 
HETATM   21  O   UNL     1       9.908   6.462  -0.528  1.00  0.00    -0.271 OA
BRANCH  19  22
HETATM   22  C   UNL     1       7.633   7.783   0.323  1.00  0.00     0.043 A 
HETATM   23  C   UNL     1       6.538   8.408  -0.303  1.00  0.00    -0.035 A 
HETATM   24  C   UNL     1       5.535   7.650  -1.127  1.00  0.00     0.050 C 
HETATM   25  C   UNL     1       6.383   9.798  -0.168  1.00  0.00     0.009 A 
HETATM   26  C   UNL     1       7.308  10.559   0.550  1.00  0.00     0.007 A 
HETATM   27  C   UNL     1       8.418   9.951   1.137  1.00  0.00    -0.060 A 
HETATM   28  C   UNL     1       9.401  10.748   1.941  1.00  0.00     0.048 C 
HETATM   29  C   UNL     1       8.571   8.564   1.019  1.00  0.00     0.037 A 
ENDBRANCH  19  22
ENDBRANCH  17  18
ENDBRANCH  12  17
TORSDOF 3
