REMARK  6 active torsions:
REMARK  status: ('A' for Active; 'I' for Inactive)
REMARK    1  A    between atoms: O_2  and  C_3 
REMARK    2  A    between atoms: C_6  and  C_7 
REMARK    3  A    between atoms: C_13  and  C_14 
REMARK       I    between atoms: C_14  and  N_15 
REMARK    4  A    between atoms: N_15  and  C_16 
REMARK    5  A    between atoms: C_18  and  O_19 
REMARK    6  A    between atoms: C_24  and  C_25 
ROOT
HETATM    1  C   UNL     1       4.766   0.321  -5.658  1.00  0.00     0.118 C 
HETATM    2  N   UNL     1       4.346  -0.940  -6.302  1.00  0.00    -0.365 N 
HETATM    3  C   UNL     1       4.316  -1.012  -7.667  1.00  0.00     0.138 A 
HETATM    4  N   UNL     1       4.466   0.118  -8.442  1.00  0.00    -0.240 N 
HETATM    5  N   UNL     1       4.479  -0.129  -9.758  1.00  0.00    -0.181 NA
HETATM    6  C   UNL     1       4.238  -1.440  -9.829  1.00  0.00     0.160 A 
HETATM    7  C   UNL     1       4.127  -2.055  -8.557  1.00  0.00     0.096 A 
HETATM    8  C   UNL     1       4.604   1.463  -7.913  1.00  0.00     0.221 C 
HETATM    9  C   UNL     1       4.144   1.488  -6.441  1.00  0.00     0.066 C 
HETATM   10  H   UNL     1       3.580  -1.391  -5.795  1.00  0.00     0.161 HD
ENDROOT
BRANCH   7  11
HETATM   11  C   UNL     1       3.888  -3.470  -8.316  1.00  0.00     0.261 C 
HETATM   12  N   UNL     1       4.090  -3.856  -7.005  1.00  0.00    -0.323 N 
HETATM   13  H   UNL     1       4.481  -3.142  -6.400  1.00  0.00     0.169 HD
HETATM   14  O   UNL     1       3.544  -4.204  -9.235  1.00  0.00    -0.267 OA
BRANCH  12  15
HETATM   15  C   UNL     1       3.835  -5.115  -6.425  1.00  0.00     0.037 A 
HETATM   16  C   UNL     1       3.330  -6.211  -7.131  1.00  0.00     0.066 A 
HETATM   17  C   UNL     1       3.084  -7.412  -6.466  1.00  0.00     0.067 A 
HETATM   18  C   UNL     1       3.326  -7.542  -5.106  1.00  0.00     0.036 A 
HETATM   19  C   UNL     1       3.831  -6.457  -4.395  1.00  0.00     0.005 A 
HETATM   20  C   UNL     1       4.088  -5.250  -5.052  1.00  0.00     0.029 A 
BRANCH  17  21
HETATM   21  O   UNL     1       2.595  -8.500  -7.131  1.00  0.00    -0.361 OA
HETATM   22  H   UNL     1       2.501  -8.269  -8.071  1.00  0.00     0.217 HD
ENDBRANCH  17  21
ENDBRANCH  12  15
ENDBRANCH   7  11
BRANCH   1  23
HETATM   23  C   UNL     1       6.282   0.445  -5.517  1.00  0.00    -0.035 A 
HETATM   24  C   UNL     1       7.169  -0.569  -5.910  1.00  0.00     0.012 A 
HETATM   25  C   UNL     1       8.553  -0.388  -5.827  1.00  0.00     0.037 A 
HETATM   26  C   UNL     1       9.086   0.810  -5.355  1.00  0.00     0.068 A 
HETATM   27  C   UNL     1       8.224   1.804  -4.900  1.00  0.00     0.037 A 
HETATM   28  C   UNL     1       6.838   1.619  -4.973  1.00  0.00     0.012 A 
BRANCH  26  29
HETATM   29  O   UNL     1      10.450   0.886  -5.353  1.00  0.00    -0.356 OA
HETATM   30  C   UNL     1      10.992   2.200  -5.442  1.00  0.00     0.210 C 
ENDBRANCH  26  29
ENDBRANCH   1  23
BRANCH   8  31
HETATM   31  C   UNL     1       3.803   2.478  -8.701  1.00  0.00     0.409 C 
HETATM   32  F   UNL     1       2.485   2.177  -8.741  1.00  0.00    -0.169 F 
HETATM   33  F   UNL     1       3.897   3.694  -8.092  1.00  0.00    -0.169 F 
HETATM   34  F   UNL     1       4.241   2.660  -9.962  1.00  0.00    -0.169 F 
ENDBRANCH   8  31
TORSDOF 6
