REMARK  6 active torsions:
REMARK  status: ('A' for Active; 'I' for Inactive)
REMARK    1  A    between atoms: N_4  and  C_5 
REMARK    2  A    between atoms: C_13  and  C_14 
REMARK       I    between atoms: C_14  and  N_15 
REMARK    3  A    between atoms: N_15  and  C_16 
REMARK    4  A    between atoms: C_16  and  C_17 
REMARK    5  A    between atoms: C_17  and  O_18 
REMARK    6  A    between atoms: C_17  and  C_19 
ROOT
HETATM    1  C   UNL     1       2.914  -2.481  -0.289  1.00  0.00     0.257 C 
HETATM    2  N   UNL     1       3.639  -3.619  -0.028  1.00  0.00    -0.354 N 
HETATM    3  O   UNL     1       1.724  -2.554  -0.589  1.00  0.00    -0.267 OA
HETATM    4  H   UNL     1       4.620  -3.532   0.208  1.00  0.00     0.162 HD
ENDROOT
BRANCH   1   5
HETATM    5  C   UNL     1       3.604  -1.208  -0.174  1.00  0.00     0.098 C 
HETATM    6  C   UNL     1       3.091   0.058  -0.564  1.00  0.00     0.070 C 
HETATM    7  C   UNL     1       1.766   0.365  -1.168  1.00  0.00     0.073 C 
HETATM    8  N   UNL     1       3.971   1.044  -0.377  1.00  0.00    -0.170 NA
HETATM    9  N   UNL     1       5.038   0.469   0.246  1.00  0.00    -0.221 N 
HETATM   10  C   UNL     1       4.873  -0.909   0.283  1.00  0.00     0.145 C 
HETATM   11 CL   UNL     1       6.138  -1.979   0.715  1.00  0.00    -0.061 Cl
BRANCH   9  12
HETATM   12  C   UNL     1       6.069   1.328   0.744  1.00  0.00     0.060 A 
HETATM   13  C   UNL     1       6.976   0.932   1.734  1.00  0.00     0.031 A 
HETATM   14  C   UNL     1       7.952   1.823   2.196  1.00  0.00     0.002 A 
HETATM   15  C   UNL     1       8.026   3.117   1.686  1.00  0.00     0.000 A 
HETATM   16  C   UNL     1       7.116   3.531   0.719  1.00  0.00     0.002 A 
HETATM   17  C   UNL     1       6.139   2.646   0.256  1.00  0.00     0.031 A 
ENDBRANCH   9  12
ENDBRANCH   1   5
BRANCH   2  18
HETATM   18  C   UNL     1       3.077  -4.955  -0.197  1.00  0.00     0.159 C 
BRANCH  18  19
HETATM   19  C   UNL     1       2.114  -5.371   0.941  1.00  0.00     0.169 C 
BRANCH  19  20
HETATM   20  O   UNL     1       0.878  -4.656   0.903  1.00  0.00    -0.389 OA
HETATM   21  H   UNL     1       1.018  -3.828   0.398  1.00  0.00     0.210 HD
ENDBRANCH  19  20
BRANCH  19  22
HETATM   22  C   UNL     1       1.798  -6.852   0.863  1.00  0.00    -0.025 A 
HETATM   23  C   UNL     1       2.573  -7.781   1.574  1.00  0.00     0.053 A 
HETATM   24  C   UNL     1       2.291  -9.144   1.484  1.00  0.00     0.138 A 
HETATM   25  F   UNL     1       3.057 -10.002   2.177  1.00  0.00    -0.204 F 
HETATM   26  C   UNL     1       1.244  -9.606   0.691  1.00  0.00     0.072 A 
HETATM   27 CL   UNL     1       0.898 -11.289   0.581  1.00  0.00    -0.081 Cl
HETATM   28  C   UNL     1       0.469  -8.698  -0.025  1.00  0.00     0.028 A 
HETATM   29  C   UNL     1       0.748  -7.330   0.058  1.00  0.00     0.012 A 
ENDBRANCH  19  22
ENDBRANCH  18  19
ENDBRANCH   2  18
TORSDOF 6
