REMARK  9 active torsions:
REMARK  status: ('A' for Active; 'I' for Inactive)
REMARK    1  A    between atoms: C_2  and  O_3 
REMARK    2  A    between atoms: O_3  and  C_4 
REMARK    3  A    between atoms: C_7  and  N_8 
REMARK       I    between atoms: N_8  and  C_9 
REMARK    4  A    between atoms: C_9  and  C_10 
REMARK    5  A    between atoms: C_11  and  N_12 
REMARK       I    between atoms: N_12  and  C_13 
REMARK    6  A    between atoms: C_13  and  C_14 
REMARK    7  A    between atoms: C_14  and  N_15 
REMARK    8  A    between atoms: N_15  and  C_18 
REMARK    9  A    between atoms: C_18  and  C_19 
ROOT
HETATM    1  C   UNL     1       7.744  -4.832   1.442  1.00  0.00     0.073 A 
HETATM    2  C   UNL     1       6.862  -4.794   0.353  1.00  0.00     0.093 A 
HETATM    3  S   UNL     1       6.693  -6.299  -0.440  1.00  0.00    -0.075 SA
HETATM    4  C   UNL     1       7.797  -6.996   0.592  1.00  0.00    -0.008 A 
HETATM    5  C   UNL     1       8.305  -6.144   1.535  1.00  0.00    -0.026 A 
HETATM    6  C   UNL     1       9.307  -6.859   2.377  1.00  0.00     0.041 C 
HETATM    7  C   UNL     1       9.575  -8.162   1.564  1.00  0.00     0.010 C 
HETATM    8  C   UNL     1       8.336  -8.376   0.650  1.00  0.00     0.047 C 
ENDROOT
BRANCH   2   9
HETATM    9  N   UNL     1       6.184  -3.665  -0.093  1.00  0.00    -0.319 N 
HETATM   10  C   UNL     1       5.231  -3.606  -1.081  1.00  0.00     0.248 C 
HETATM   11  O   UNL     1       4.715  -4.524  -1.718  1.00  0.00    -0.271 OA
HETATM   12  H   UNL     1       6.440  -2.821   0.426  1.00  0.00     0.169 HD
BRANCH  10  13
HETATM   13  C   UNL     1       4.750  -2.190  -1.396  1.00  0.00     0.335 C 
BRANCH  13  14
HETATM   14  N   UNL     1       3.435  -2.271  -2.130  1.00  0.00    -0.059 N 
HETATM   15  H   UNL     1       3.491  -3.138  -2.699  1.00  0.00     0.278 HD
HETATM   16  H   UNL     1       2.678  -2.487  -1.470  1.00  0.00     0.278 HD
BRANCH  14  17
HETATM   17  C   UNL     1       3.057  -1.144  -3.027  1.00  0.00     0.215 C 
HETATM   18  C   UNL     1       2.932   0.149  -2.222  1.00  0.00     0.045 C 
BRANCH  17  19
HETATM   19  C   UNL     1       1.789  -1.496  -3.775  1.00  0.00    -0.028 A 
HETATM   20  C   UNL     1       0.545  -1.579  -3.125  1.00  0.00     0.009 A 
HETATM   21  C   UNL     1      -0.604  -1.941  -3.830  1.00  0.00     0.001 A 
HETATM   22  C   UNL     1      -0.528  -2.228  -5.190  1.00  0.00     0.000 A 
HETATM   23  C   UNL     1       0.696  -2.154  -5.848  1.00  0.00     0.001 A 
HETATM   24  C   UNL     1       1.849  -1.795  -5.147  1.00  0.00     0.009 A 
ENDBRANCH  17  19
ENDBRANCH  14  17
ENDBRANCH  13  14
ENDBRANCH  10  13
ENDBRANCH   2   9
BRANCH   1  25
HETATM   25  C   UNL     1       7.972  -3.639   2.281  1.00  0.00     0.259 C 
HETATM   26  N   UNL     1       8.607  -3.889   3.479  1.00  0.00    -0.323 N 
HETATM   27  H   UNL     1       8.829  -4.851   3.684  1.00  0.00     0.169 HD
HETATM   28  O   UNL     1       7.549  -2.546   1.906  1.00  0.00    -0.267 OA
BRANCH  26  29
HETATM   29  C   UNL     1       8.889  -2.985   4.523  1.00  0.00     0.035 A 
HETATM   30  C   UNL     1       8.625  -1.616   4.477  1.00  0.00     0.032 A 
HETATM   31  C   UNL     1       8.893  -0.800   5.587  1.00  0.00     0.039 A 
HETATM   32  C   UNL     1       9.427  -1.347   6.752  1.00  0.00     0.068 A 
HETATM   33  C   UNL     1       9.730  -2.706   6.786  1.00  0.00     0.039 A 
HETATM   34  C   UNL     1       9.460  -3.521   5.684  1.00  0.00     0.032 A 
BRANCH  32  35
HETATM   35  O   UNL     1       9.710  -0.667   7.902  1.00  0.00    -0.352 OA
BRANCH  35  36
HETATM   36  C   UNL     1       9.092   0.609   8.062  1.00  0.00     0.171 C 
HETATM   37  C   UNL     1       9.280   1.041   9.505  1.00  0.00     0.034 C 
ENDBRANCH  35  36
ENDBRANCH  32  35
ENDBRANCH  26  29
ENDBRANCH   1  25
TORSDOF 9
