REMARK  7 active torsions:
REMARK  status: ('A' for Active; 'I' for Inactive)
REMARK    1  A    between atoms: C_5  and  N_6 
REMARK    2  A    between atoms: N_6  and  C_9 
REMARK    3  A    between atoms: C_9  and  C_10 
REMARK    4  A    between atoms: C_10  and  C_11 
REMARK    5  A    between atoms: C_10  and  C_13 
REMARK    6  A    between atoms: C_11  and  O_12 
REMARK    7  A    between atoms: C_13  and  C_14 
ROOT
HETATM    1  N   UNL     1       6.087   6.236   3.829  1.00  0.00    -0.066 N 
HETATM    2  H   UNL     1       6.935   6.785   3.587  1.00  0.00     0.278 HD
HETATM    3  H   UNL     1       5.966   6.357   4.853  1.00  0.00     0.278 HD
ENDROOT
BRANCH   1   4
HETATM    4  C   UNL     1       4.899   6.796   3.145  1.00  0.00     0.220 C 
HETATM    5  C   UNL     1       4.491   8.105   3.746  1.00  0.00    -0.021 A 
HETATM    6  C   UNL     1       4.954   9.194   2.982  1.00  0.00    -0.040 A 
HETATM    7  C   UNL     1       3.788   8.287   4.930  1.00  0.00     0.010 A 
HETATM    8  C   UNL     1       4.753  10.498   3.431  1.00  0.00    -0.055 A 
HETATM    9  C   UNL     1       5.700   8.688   1.770  1.00  0.00     0.018 C 
HETATM   10  C   UNL     1       5.262  11.705   2.700  1.00  0.00     0.049 C 
HETATM   11  C   UNL     1       4.021  10.677   4.618  1.00  0.00     0.007 A 
HETATM   12  C   UNL     1       3.543   9.587   5.357  1.00  0.00     0.001 A 
HETATM   13  C   UNL     1       5.228   7.216   1.710  1.00  0.00     0.047 C 
HETATM   14  C   UNL     1       5.419   9.386   0.445  1.00  0.00     0.015 C 
ENDBRANCH   1   4
BRANCH   1  15
HETATM   15  C   UNL     1       6.381   4.798   3.592  1.00  0.00     0.240 C 
BRANCH  15  16
HETATM   16  C   UNL     1       7.372   4.261   4.644  1.00  0.00     0.040 C 
BRANCH  16  17
HETATM   17  C   UNL     1       6.674   4.127   6.006  1.00  0.00     0.170 C 
BRANCH  17  18
HETATM   18  O   UNL     1       6.081   5.380   6.357  1.00  0.00    -0.400 OA
HETATM   19  H   UNL     1       5.816   5.303   7.298  1.00  0.00     0.209 HD
ENDBRANCH  17  18
ENDBRANCH  16  17
BRANCH  16  20
HETATM   20  C   UNL     1       8.650   5.112   4.811  1.00  0.00     0.067 C 
BRANCH  20  21
HETATM   21  C   UNL     1       9.296   5.488   3.504  1.00  0.00     0.034 A 
HETATM   22  N   UNL     1       8.720   6.521   2.828  1.00  0.00    -0.266 NA
HETATM   23  C   UNL     1       9.316   6.886   1.664  1.00  0.00     0.117 A 
HETATM   24  C   UNL     1      10.420   6.249   1.125  1.00  0.00     0.019 A 
HETATM   25  C   UNL     1      10.966   5.178   1.820  1.00  0.00     0.003 A 
HETATM   26  C   UNL     1      10.401   4.789   3.030  1.00  0.00     0.027 A 
ENDBRANCH  20  21
ENDBRANCH  16  20
ENDBRANCH  15  16
ENDBRANCH   1  15
TORSDOF 7
