REMARK  6 active torsions:
REMARK  status: ('A' for Active; 'I' for Inactive)
REMARK    1  A    between atoms: C_2  and  N_3 
REMARK    2  A    between atoms: C_11  and  C_12 
REMARK    3  A    between atoms: C_14  and  C_15 
REMARK    4  A    between atoms: C_15  and  O_16 
REMARK    5  A    between atoms: O_16  and  C_17 
REMARK    6  A    between atoms: C_19  and  C_20 
ROOT
HETATM    1  N   UNL     1       3.078  -1.557   0.247  1.00  0.00    -0.067 N 
HETATM    2  H   UNL     1       3.037  -1.617   1.273  1.00  0.00     0.280 HD
HETATM    3  C   UNL     1       2.223  -2.711  -0.276  1.00  0.00     0.281 C 
HETATM    4  C   UNL     1       2.866  -4.016   0.046  1.00  0.00     0.018 A 
HETATM    5  C   UNL     1       4.192  -4.185   0.399  1.00  0.00    -0.023 A 
HETATM    6  C   UNL     1       4.479  -5.558   0.690  1.00  0.00     0.073 A 
HETATM    7  C   UNL     1       3.366  -6.352   0.551  1.00  0.00     0.088 A 
HETATM    8  N   UNL     1       3.354  -7.669   0.834  1.00  0.00    -0.357 N 
HETATM    9  C   UNL     1       4.607  -8.387   0.970  1.00  0.00     0.243 C 
HETATM   10  N   UNL     1       5.672  -7.503   1.378  1.00  0.00    -0.330 N 
HETATM   11  C   UNL     1       5.720  -6.161   1.135  1.00  0.00     0.256 C 
HETATM   12  O   UNL     1       6.745  -5.511   1.311  1.00  0.00    -0.267 OA
HETATM   13  S   UNL     1       2.003  -5.483   0.023  1.00  0.00    -0.074 SA
HETATM   14  C   UNL     1       5.129  -3.020   0.511  1.00  0.00     0.068 C 
HETATM   15  C   UNL     1       4.548  -1.752  -0.141  1.00  0.00     0.240 C 
HETATM   16  H   UNL     1       2.596  -8.248   0.479  1.00  0.00     0.162 HD
HETATM   17  H   UNL     1       6.547  -7.921   1.658  1.00  0.00     0.165 HD
ENDROOT
BRANCH   9  18
HETATM   18  C   UNL     1       5.009  -9.166  -0.241  1.00  0.00     0.095 A 
HETATM   19  O   UNL     1       4.280 -10.301  -0.476  1.00  0.00    -0.313 OA
HETATM   20  C   UNL     1       4.776 -10.882  -1.605  1.00  0.00     0.077 A 
HETATM   21  C   UNL     1       5.822 -10.130  -2.098  1.00  0.00     0.037 A 
HETATM   22  C   UNL     1       5.969  -9.024  -1.225  1.00  0.00     0.039 A 
BRANCH  20  23
HETATM   23  C   UNL     1       4.125 -12.144  -2.049  1.00  0.00     0.240 C 
BRANCH  23  24
HETATM   24  O   UNL     1       3.287 -11.796  -3.150  1.00  0.00    -0.345 OA
BRANCH  24  25
HETATM   25  C   UNL     1       2.553 -12.799  -3.719  1.00  0.00     0.070 A 
HETATM   26  C   UNL     1       2.546 -14.140  -3.331  1.00  0.00     0.052 A 
HETATM   27  C   UNL     1       1.738 -15.077  -4.004  1.00  0.00     0.050 A 
HETATM   28  C   UNL     1       0.939 -14.647  -5.075  1.00  0.00     0.016 A 
HETATM   29  C   UNL     1       0.946 -13.310  -5.465  1.00  0.00     0.004 A 
HETATM   30  C   UNL     1       1.750 -12.394  -4.788  1.00  0.00     0.037 A 
BRANCH  27  31
HETATM   31  C   UNL     1       1.719 -16.529  -3.593  1.00  0.00     0.417 C 
HETATM   32  F   UNL     1       2.536 -16.803  -2.537  1.00  0.00    -0.166 F 
HETATM   33  F   UNL     1       0.478 -16.949  -3.222  1.00  0.00    -0.166 F 
HETATM   34  F   UNL     1       2.114 -17.360  -4.596  1.00  0.00    -0.166 F 
ENDBRANCH  27  31
ENDBRANCH  24  25
ENDBRANCH  23  24
ENDBRANCH  20  23
ENDBRANCH   9  18
BRANCH   1  35
HETATM   35  C   UNL     1       2.568  -0.198  -0.161  1.00  0.00     0.231 C 
HETATM   36  C   UNL     1       1.238   0.109   0.502  1.00  0.00     0.034 C 
ENDBRANCH   1  35
TORSDOF 6
