REMARK  6 active torsions:
REMARK  status: ('A' for Active; 'I' for Inactive)
REMARK    1  A    between atoms: C_2  and  C_3 
REMARK    2  A    between atoms: C_3  and  N_4 
REMARK       I    between atoms: N_4  and  C_5 
REMARK    3  A    between atoms: C_5  and  C_6 
REMARK    4  A    between atoms: C_11  and  C_12 
REMARK    5  A    between atoms: C_15  and  O_16 
REMARK    6  A    between atoms: C_21  and  C_22 
ROOT
HETATM    1  C   UNL     1       4.567  -3.235  -2.885  1.00  0.00     0.170 A 
HETATM    2  N   UNL     1       4.983  -4.494  -2.591  1.00  0.00    -0.163 NA
HETATM    3  N   UNL     1       4.156  -5.274  -3.305  1.00  0.00    -0.238 N 
HETATM    4  C   UNL     1       3.267  -4.589  -4.085  1.00  0.00     0.145 A 
HETATM    5  N   UNL     1       2.417  -5.244  -4.916  1.00  0.00    -0.365 N 
HETATM    6  C   UNL     1       2.275  -6.696  -4.859  1.00  0.00     0.118 C 
HETATM    7  C   UNL     1       3.638  -7.332  -4.529  1.00  0.00     0.066 C 
HETATM    8  C   UNL     1       4.246  -6.722  -3.254  1.00  0.00     0.221 C 
HETATM    9  C   UNL     1       3.493  -3.257  -3.820  1.00  0.00     0.115 A 
HETATM   10 CL   UNL     1       2.667  -1.937  -4.493  1.00  0.00    -0.077 Cl
HETATM   11  H   UNL     1       1.639  -4.742  -5.348  1.00  0.00     0.162 HD
ENDROOT
BRANCH   6  12
HETATM   12  C   UNL     1       1.744  -7.237  -6.173  1.00  0.00    -0.035 A 
HETATM   13  C   UNL     1       2.191  -6.751  -7.410  1.00  0.00     0.012 A 
HETATM   14  C   UNL     1       1.715  -7.301  -8.603  1.00  0.00     0.037 A 
HETATM   15  C   UNL     1       0.796  -8.351  -8.589  1.00  0.00     0.068 A 
HETATM   16  C   UNL     1       0.345  -8.842  -7.365  1.00  0.00     0.037 A 
HETATM   17  C   UNL     1       0.817  -8.291  -6.168  1.00  0.00     0.012 A 
BRANCH  15  18
HETATM   18  O   UNL     1       0.423  -8.803  -9.825  1.00  0.00    -0.356 OA
HETATM   19  C   UNL     1      -0.438  -9.934  -9.863  1.00  0.00     0.210 C 
ENDBRANCH  15  18
ENDBRANCH   6  12
BRANCH   8  20
HETATM   20  C   UNL     1       3.575  -7.234  -1.998  1.00  0.00     0.409 C 
HETATM   21  F   UNL     1       2.275  -6.880  -1.912  1.00  0.00    -0.169 F 
HETATM   22  F   UNL     1       3.610  -8.592  -1.976  1.00  0.00    -0.169 F 
HETATM   23  F   UNL     1       4.191  -6.817  -0.871  1.00  0.00    -0.169 F 
ENDBRANCH   8  20
BRANCH   1  24
HETATM   24  C   UNL     1       5.212  -2.068  -2.262  1.00  0.00     0.273 C 
HETATM   25  N   UNL     1       6.226  -2.415  -1.393  1.00  0.00    -0.356 N 
HETATM   26  H   UNL     1       6.357  -3.414  -1.250  1.00  0.00     0.162 HD
HETATM   27  O   UNL     1       4.883  -0.906  -2.478  1.00  0.00    -0.266 OA
BRANCH  25  28
HETATM   28  C   UNL     1       6.944  -1.455  -0.590  1.00  0.00     0.122 C 
BRANCH  28  29
HETATM   29  C   UNL     1       6.186  -1.117   0.690  1.00  0.00     0.015 C 
HETATM   30  C   UNL     1       6.962  -0.137   1.555  1.00  0.00     0.006 C 
ENDBRANCH  28  29
ENDBRANCH  25  28
ENDBRANCH   1  24
TORSDOF 6
