REMARK  6 active torsions:
REMARK  status: ('A' for Active; 'I' for Inactive)
REMARK    1  A    between atoms: C_8  and  N_9 
REMARK       I    between atoms: N_9  and  C_10 
REMARK    2  A    between atoms: C_10  and  C_11 
REMARK    3  A    between atoms: C_11  and  N_12 
REMARK    4  A    between atoms: N_12  and  C_13 
REMARK    5  A    between atoms: C_13  and  C_14 
REMARK    6  A    between atoms: C_13  and  C_17 
ROOT
HETATM    1  C   UNL     1      -0.465   0.175  -1.959  1.00  0.00     0.372 C 
ENDROOT
BRANCH   1   2
HETATM    2  C   UNL     1      -1.113   0.264  -3.345  1.00  0.00     0.250 C 
HETATM    3  N   UNL     1      -0.705   1.392  -4.027  1.00  0.00    -0.322 N 
HETATM    4  H   UNL     1      -0.165   2.053  -3.478  1.00  0.00     0.169 HD
HETATM    5  O   UNL     1      -1.859  -0.622  -3.747  1.00  0.00    -0.271 OA
BRANCH   3   6
HETATM    6  C   UNL     1      -0.983   1.739  -5.337  1.00  0.00     0.085 A 
HETATM    7  C   UNL     1      -0.493   2.907  -5.894  1.00  0.00     0.052 A 
HETATM    8  C   UNL     1       0.357   3.994  -5.356  1.00  0.00     0.072 C 
HETATM    9  N   UNL     1      -0.947   2.926  -7.181  1.00  0.00    -0.280 N 
HETATM   10  H   UNL     1      -0.785   3.631  -7.893  1.00  0.00     0.189 HD
HETATM   11  N   UNL     1      -1.685   1.865  -7.511  1.00  0.00    -0.177 NA
HETATM   12  C   UNL     1      -1.715   1.120  -6.394  1.00  0.00     0.079 A 
HETATM   13  C   UNL     1      -2.462  -0.162  -6.434  1.00  0.00     0.075 C 
ENDBRANCH   3   6
ENDBRANCH   1   2
BRANCH   1  14
HETATM   14  N   UNL     1      -0.687   1.431  -1.216  1.00  0.00     0.101 N 
HETATM   15  H   UNL     1      -1.692   1.543  -1.077  1.00  0.00     0.317 HD
BRANCH  14  16
HETATM   16  C   UNL     1      -0.004   1.421   0.099  1.00  0.00     0.259 C 
BRANCH  16  17
HETATM   17  C   UNL     1      -0.948   1.154   1.317  1.00  0.00     0.015 C 
HETATM   18  C   UNL     1      -2.058   2.195   1.514  1.00  0.00     0.012 C 
HETATM   19  C   UNL     1      -1.575  -0.244   1.261  1.00  0.00     0.012 C 
ENDBRANCH  16  17
BRANCH  16  20
HETATM   20  C   UNL     1       0.807   2.704   0.302  1.00  0.00    -0.003 A 
HETATM   21  C   UNL     1       2.016   2.717   1.026  1.00  0.00     0.042 A 
HETATM   22 CL   UNL     1       2.701   1.284   1.713  1.00  0.00    -0.084 Cl
HETATM   23  C   UNL     1       2.719   3.911   1.230  1.00  0.00     0.024 A 
HETATM   24  C   UNL     1       2.229   5.113   0.725  1.00  0.00     0.002 A 
HETATM   25  C   UNL     1       1.036   5.126   0.013  1.00  0.00     0.001 A 
HETATM   26  C   UNL     1       0.334   3.936  -0.197  1.00  0.00     0.011 A 
ENDBRANCH  16  20
ENDBRANCH  14  16
ENDBRANCH   1  14
TORSDOF 6
