REMARK  9 active torsions:
REMARK  status: ('A' for Active; 'I' for Inactive)
REMARK    1  A    between atoms: O_2  and  C_3 
REMARK    2  A    between atoms: C_6  and  N_7 
REMARK    3  A    between atoms: N_10  and  C_12 
REMARK    4  A    between atoms: C_12  and  C_13 
REMARK    5  A    between atoms: C_13  and  C_14 
REMARK    6  A    between atoms: C_14  and  N_15 
REMARK       I    between atoms: N_15  and  C_16 
REMARK    7  A    between atoms: C_16  and  C_17 
REMARK    8  A    between atoms: C_17  and  C_18 
REMARK    9  A    between atoms: C_18  and  C_19 
ROOT
HETATM    1  N   UNL     1       4.170  11.733  -3.552  1.00  0.00    -0.361 N 
HETATM    2  C   UNL     1       4.066  12.120  -4.873  1.00  0.00     0.217 C 
HETATM    3  O   UNL     1       4.508  11.442  -5.797  1.00  0.00    -0.274 OA
HETATM    4  H   UNL     1       3.986  12.454  -2.856  1.00  0.00     0.162 HD
ENDROOT
BRANCH   1   5
HETATM    5  C   UNL     1       4.996  10.606  -3.175  1.00  0.00     0.124 C 
BRANCH   5   6
HETATM    6  C   UNL     1       4.443   9.262  -3.663  1.00  0.00     0.047 C 
BRANCH   6   7
HETATM    7  C   UNL     1       5.472   8.158  -3.451  1.00  0.00     0.236 C 
BRANCH   7   8
HETATM    8  N   UNL     1       5.011   6.862  -4.086  1.00  0.00    -0.068 N 
HETATM    9  C   UNL     1       5.232   6.839  -5.612  1.00  0.00     0.254 C 
HETATM   10  C   UNL     1       4.783   5.488  -6.214  1.00  0.00     0.150 C 
HETATM   11  N   UNL     1       5.424   4.350  -5.528  1.00  0.00    -0.378 N 
HETATM   12  C   UNL     1       5.189   4.336  -4.069  1.00  0.00     0.150 C 
HETATM   13  C   UNL     1       5.690   5.649  -3.432  1.00  0.00     0.254 C 
HETATM   14  H   UNL     1       4.001   6.759  -3.927  1.00  0.00     0.280 HD
BRANCH  11  15
HETATM   15  C   UNL     1       6.645   3.837  -5.977  1.00  0.00     0.030 A 
HETATM   16  C   UNL     1       7.451   4.475  -6.933  1.00  0.00     0.032 A 
HETATM   17  C   UNL     1       8.682   3.939  -7.349  1.00  0.00     0.039 A 
HETATM   18  C   UNL     1       9.135   2.731  -6.832  1.00  0.00     0.068 A 
HETATM   19  C   UNL     1       8.335   2.059  -5.916  1.00  0.00     0.039 A 
HETATM   20  C   UNL     1       7.110   2.599  -5.504  1.00  0.00     0.032 A 
BRANCH  18  21
HETATM   21  O   UNL     1      10.307   2.104  -7.142  1.00  0.00    -0.356 OA
HETATM   22  C   UNL     1      11.175   2.764  -8.055  1.00  0.00     0.210 C 
ENDBRANCH  18  21
ENDBRANCH  11  15
ENDBRANCH   7   8
ENDBRANCH   6   7
ENDBRANCH   5   6
ENDBRANCH   1   5
BRANCH   2  23
HETATM   23  C   UNL     1       3.367  13.443  -5.094  1.00  0.00     0.105 C 
BRANCH  23  24
HETATM   24  C   UNL     1       1.852  13.377  -4.902  1.00  0.00     0.046 C 
BRANCH  24  25
HETATM   25  C   UNL     1       1.390  13.208  -3.455  1.00  0.00     0.203 A 
HETATM   26  N   UNL     1       2.011  14.247  -2.595  1.00  0.00    -0.257 NA
HETATM   27  C   UNL     1       1.002  14.943  -2.158  1.00  0.00     0.147 A 
HETATM   28  N   UNL     1      -0.253  14.553  -2.532  1.00  0.00    -0.239 N 
HETATM   29  C   UNL     1       1.139  16.119  -1.291  1.00  0.00     0.037 A 
HETATM   30  C   UNL     1      -1.431  15.201  -2.141  1.00  0.00     0.187 A 
HETATM   31  C   UNL     1      -0.104  13.442  -3.333  1.00  0.00     0.257 A 
HETATM   32  S   UNL     1      -2.999  14.789  -2.551  1.00  0.00    -0.040 SA
HETATM   33  N   UNL     1      -1.269  16.301  -1.327  1.00  0.00    -0.332 N 
HETATM   34  C   UNL     1      -0.026  16.774  -0.898  1.00  0.00     0.048 A 
HETATM   35  H   UNL     1      -2.116  16.783  -1.041  1.00  0.00     0.168 HD
HETATM   36  C   UNL     1       0.046  17.902  -0.082  1.00  0.00     0.030 A 
HETATM   37  C   UNL     1       1.294  18.371   0.335  1.00  0.00     0.002 A 
HETATM   38  C   UNL     1       2.462  17.715  -0.061  1.00  0.00     0.001 A 
HETATM   39  C   UNL     1       2.388  16.585  -0.877  1.00  0.00     0.017 A 
HETATM   40  O   UNL     1      -0.941  12.728  -3.862  1.00  0.00    -0.270 OA
ENDBRANCH  24  25
ENDBRANCH  23  24
ENDBRANCH   2  23
TORSDOF 9
