REMARK  5 active torsions:
REMARK  status: ('A' for Active; 'I' for Inactive)
REMARK    1  A    between atoms: C_2  and  O_3 
REMARK    2  A    between atoms: O_3  and  C_4 
REMARK    3  A    between atoms: C_5  and  C_6 
REMARK    4  A    between atoms: C_7  and  C_8 
REMARK       I    between atoms: C_8  and  N_9 
REMARK    5  A    between atoms: N_9  and  C_10 
ROOT
HETATM    1  C   UNL     1       4.051   4.062  -0.636  1.00  0.00     0.042 C 
HETATM    2  C   UNL     1       4.356   5.178   0.052  1.00  0.00     0.113 C 
HETATM    3  C   UNL     1       5.272   5.192   1.134  1.00  0.00     0.105 C 
HETATM    4  N   UNL     1       6.004   5.272   2.031  1.00  0.00    -0.191 NA
ENDROOT
BRANCH   2   5
HETATM    5  C   UNL     1       3.611   6.426  -0.340  1.00  0.00     0.266 C 
HETATM    6  N   UNL     1       3.749   7.500   0.522  1.00  0.00    -0.321 N 
HETATM    7  H   UNL     1       4.561   7.516   1.127  1.00  0.00     0.169 HD
HETATM    8  O   UNL     1       2.971   6.452  -1.388  1.00  0.00    -0.267 OA
BRANCH   6   9
HETATM    9  C   UNL     1       3.051   8.732   0.413  1.00  0.00     0.047 A 
HETATM   10  C   UNL     1       1.683   8.819   0.068  1.00  0.00    -0.035 A 
HETATM   11  C   UNL     1       0.768   7.634  -0.103  1.00  0.00     0.050 C 
HETATM   12  C   UNL     1       1.090  10.087  -0.080  1.00  0.00     0.009 A 
HETATM   13  C   UNL     1       1.806  11.250   0.176  1.00  0.00     0.001 A 
HETATM   14  C   UNL     1       3.128  11.165   0.595  1.00  0.00     0.009 A 
HETATM   15  C   UNL     1       3.762   9.918   0.725  1.00  0.00    -0.035 A 
HETATM   16  C   UNL     1       5.206   9.904   1.157  1.00  0.00     0.050 C 
ENDBRANCH   6   9
ENDBRANCH   2   5
BRANCH   1  17
HETATM   17  C   UNL     1       4.587   2.713  -0.402  1.00  0.00     0.002 A 
HETATM   18  C   UNL     1       3.751   1.694   0.113  1.00  0.00     0.079 A 
HETATM   19  C   UNL     1       4.187   0.370   0.211  1.00  0.00     0.047 A 
HETATM   20  C   UNL     1       5.488   0.092  -0.160  1.00  0.00    -0.020 A 
HETATM   21  C   UNL     1       6.325   1.094  -0.625  1.00  0.00     0.076 A 
HETATM   22  C   UNL     1       6.186  -1.210  -0.244  1.00  0.00     0.073 C 
HETATM   23  C   UNL     1       5.904   2.403  -0.766  1.00  0.00     0.051 A 
HETATM   24  O   UNL     1       7.573   0.646  -0.974  1.00  0.00    -0.345 OA
HETATM   25  C   UNL     1       7.623  -0.701  -0.432  1.00  0.00     0.129 C 
HETATM   26  C   UNL     1       8.435  -1.581  -1.368  1.00  0.00     0.040 C 
BRANCH  18  27
HETATM   27  O   UNL     1       2.451   1.961   0.463  1.00  0.00    -0.351 OA
BRANCH  27  28
HETATM   28  C   UNL     1       2.370   2.419   1.820  1.00  0.00     0.171 C 
HETATM   29  C   UNL     1       1.523   1.445   2.619  1.00  0.00     0.034 C 
ENDBRANCH  27  28
ENDBRANCH  18  27
ENDBRANCH   1  17
TORSDOF 5
