REMARK  4 active torsions:
REMARK  status: ('A' for Active; 'I' for Inactive)
REMARK    1  A    between atoms: O_2  and  C_3 
REMARK    2  A    between atoms: C_6  and  C_7 
REMARK    3  A    between atoms: C_9  and  N_10 
REMARK       I    between atoms: N_10  and  C_11 
REMARK    4  A    between atoms: C_11  and  C_12 
ROOT
HETATM    1  C   UNL     1       5.242  -5.028  -0.968  1.00  0.00     0.173 A 
HETATM    2  N   UNL     1       6.119  -5.310  -1.916  1.00  0.00    -0.041 NA
HETATM    3  C   UNL     1       6.386  -6.642  -1.740  1.00  0.00     0.748 A 
HETATM    4  N   UNL     1       5.722  -7.203  -0.733  1.00  0.00     0.021 NA
HETATM    5  N   UNL     1       5.012  -6.176  -0.261  1.00  0.00    -0.244 N 
HETATM    6  H   UNL     1       4.381  -6.332   0.515  1.00  0.00     0.191 HD
ENDROOT
BRANCH   3   7
HETATM    7  N   UNL     1       7.270  -7.229  -2.601  1.00  0.00    -0.150 N 
HETATM    8  C   UNL     1       7.627  -8.556  -2.580  1.00  0.00     0.270 C 
HETATM    9  O   UNL     1       7.246  -9.402  -1.778  1.00  0.00    -0.267 OA
HETATM   10  H   UNL     1       7.669  -6.574  -3.252  1.00  0.00     0.188 HD
BRANCH   8  11
HETATM   11  C   UNL     1       8.597  -8.991  -3.635  1.00  0.00     0.035 A 
HETATM   12  C   UNL     1       8.773  -8.300  -4.841  1.00  0.00     0.056 A 
HETATM   13  C   UNL     1       9.696  -8.766  -5.780  1.00  0.00     0.103 A 
HETATM   14  C   UNL     1      10.414  -9.944  -5.547  1.00  0.00     0.102 A 
HETATM   15  O   UNL     1       9.836  -8.018  -6.923  1.00  0.00    -0.346 OA
HETATM   16  O   UNL     1      11.302 -10.475  -6.446  1.00  0.00    -0.346 OA
HETATM   17  C   UNL     1      10.243 -10.636  -4.353  1.00  0.00     0.040 A 
HETATM   18  C   UNL     1      11.137  -9.897  -7.746  1.00  0.00     0.202 C 
HETATM   19  C   UNL     1      11.018  -8.385  -7.646  1.00  0.00     0.202 C 
HETATM   20  C   UNL     1       9.336 -10.163  -3.402  1.00  0.00     0.020 A 
ENDBRANCH   8  11
ENDBRANCH   3   7
BRANCH   1  21
HETATM   21  C   UNL     1       4.577  -3.749  -0.722  1.00  0.00     0.012 A 
HETATM   22  C   UNL     1       4.569  -2.772  -1.725  1.00  0.00     0.018 A 
HETATM   23  C   UNL     1       3.907  -1.554  -1.533  1.00  0.00     0.037 A 
HETATM   24  C   UNL     1       3.243  -1.287  -0.336  1.00  0.00     0.068 A 
HETATM   25  C   UNL     1       3.267  -2.241   0.680  1.00  0.00     0.037 A 
HETATM   26  C   UNL     1       3.929  -3.462   0.488  1.00  0.00     0.018 A 
BRANCH  24  27
HETATM   27  O   UNL     1       2.623  -0.070  -0.281  1.00  0.00    -0.356 OA
HETATM   28  C   UNL     1       1.795   0.179   0.848  1.00  0.00     0.210 C 
ENDBRANCH  24  27
ENDBRANCH   1  21
TORSDOF 4
