REMARK  2 active torsions:
REMARK  status: ('A' for Active; 'I' for Inactive)
REMARK    1  A    between atoms: C_2  and  N_3 
REMARK       I    between atoms: N_3  and  C_4 
REMARK    2  A    between atoms: C_4  and  C_5 
ROOT
HETATM    1  C   UNL     1      -3.513   0.561   0.530  1.00  0.00     0.032 A 
HETATM    2  C   UNL     1      -3.307  -0.805   0.678  1.00  0.00     0.036 A 
HETATM    3  C   UNL     1      -2.057  -1.333   0.344  1.00  0.00     0.049 A 
HETATM    4  C   UNL     1      -0.991  -0.506  -0.068  1.00  0.00     0.061 A 
HETATM    5  C   UNL     1      -1.191   0.877  -0.163  1.00  0.00     0.050 A 
HETATM    6  N   UNL     1      -0.228   1.840  -0.505  1.00  0.00    -0.324 N 
HETATM    7  C   UNL     1       1.123   1.814  -0.289  1.00  0.00     0.245 C 
HETATM    8  O   UNL     1       1.764   2.844  -0.509  1.00  0.00    -0.271 OA
HETATM    9  C   UNL     1       1.721   0.598   0.411  1.00  0.00     0.180 C 
HETATM   10  N   UNL     1       1.462  -0.620  -0.341  1.00  0.00    -0.334 N 
HETATM   11  C   UNL     1       0.239  -1.223  -0.495  1.00  0.00     0.256 C 
HETATM   12  O   UNL     1       0.124  -2.355  -0.963  1.00  0.00    -0.267 OA
HETATM   13  C   UNL     1       3.251   0.673   0.502  1.00  0.00     0.037 C 
HETATM   14  C   UNL     1       3.685  -0.780   0.377  1.00  0.00     0.022 C 
HETATM   15  C   UNL     1       2.693  -1.336  -0.630  1.00  0.00     0.127 C 
HETATM   16  C   UNL     1      -2.472   1.389   0.096  1.00  0.00     0.033 A 
HETATM   17  H   UNL     1      -0.548   2.766  -0.765  1.00  0.00     0.169 HD
ENDROOT
BRANCH   2  18
HETATM   18  N   UNL     1      -4.279  -1.696   1.154  1.00  0.00    -0.322 N 
HETATM   19  C   UNL     1      -5.512  -1.404   1.707  1.00  0.00     0.277 C 
HETATM   20  O   UNL     1      -6.010  -0.290   1.833  1.00  0.00    -0.266 OA
HETATM   21  H   UNL     1      -4.056  -2.690   1.186  1.00  0.00     0.169 HD
BRANCH  19  22
HETATM   22  C   UNL     1      -6.189  -2.617   2.195  1.00  0.00     0.153 A 
HETATM   23  N   UNL     1      -5.671  -3.862   1.999  1.00  0.00    -0.169 NA
HETATM   24  N   UNL     1      -6.556  -4.704   2.597  1.00  0.00    -0.281 N 
HETATM   25  H   UNL     1      -6.376  -5.703   2.572  1.00  0.00     0.189 HD
HETATM   26  C   UNL     1      -7.573  -4.030   3.166  1.00  0.00     0.036 A 
HETATM   27  C   UNL     1      -7.378  -2.705   2.930  1.00  0.00     0.002 A 
HETATM   28  C   UNL     1      -8.765  -4.358   3.957  1.00  0.00     0.059 C 
HETATM   29  C   UNL     1      -8.433  -1.878   3.535  1.00  0.00     0.043 C 
HETATM   30  C   UNL     1      -9.157  -2.922   4.463  1.00  0.00     0.011 C 
ENDBRANCH  19  22
ENDBRANCH   2  18
TORSDOF 2
