REMARK  8 active torsions:
REMARK  status: ('A' for Active; 'I' for Inactive)
REMARK    1  A    between atoms: C_2  and  C_3 
REMARK    2  A    between atoms: C_3  and  O_4 
REMARK    3  A    between atoms: O_4  and  C_5 
REMARK    4  A    between atoms: C_6  and  C_7 
REMARK    5  A    between atoms: C_11  and  C_12 
REMARK       I    between atoms: C_12  and  N_13 
REMARK    6  A    between atoms: N_13  and  N_14 
REMARK    7  A    between atoms: C_15  and  C_16 
REMARK    8  A    between atoms: C_18  and  O_19 
ROOT
HETATM    1  C   UNL     1       7.178  -1.656  -0.585  1.00  0.00     0.092 A 
HETATM    2  N   UNL     1       6.668  -0.417  -0.573  1.00  0.00    -0.174 NA
HETATM    3  N   UNL     1       7.701   0.373  -0.901  1.00  0.00    -0.272 N 
HETATM    4  H   UNL     1       7.560   1.379  -0.939  1.00  0.00     0.189 HD
HETATM    5  C   UNL     1       8.854  -0.301  -1.200  1.00  0.00     0.121 A 
HETATM    6  C   UNL     1       8.547  -1.628  -0.975  1.00  0.00     0.071 A 
ENDROOT
BRANCH   5   7
HETATM    7  C   UNL     1      10.035   0.395  -1.650  1.00  0.00     0.289 C 
HETATM    8  N   UNL     1      11.085  -0.434  -2.022  1.00  0.00    -0.242 N 
HETATM    9  H   UNL     1      10.984  -1.438  -1.970  1.00  0.00     0.192 HD
HETATM   10  O   UNL     1      10.065   1.621  -1.714  1.00  0.00    -0.264 OA
BRANCH   8  11
HETATM   11  N   UNL     1      12.220   0.096  -2.565  1.00  0.00    -0.184 NA
HETATM   12  C   UNL     1      13.112  -0.762  -2.944  1.00  0.00     0.150 C 
BRANCH  12  13
HETATM   13  C   UNL     1      14.378  -0.336  -3.574  1.00  0.00    -0.014 A 
HETATM   14  C   UNL     1      14.651   1.020  -3.775  1.00  0.00     0.049 A 
HETATM   15  C   UNL     1      15.846   1.385  -4.385  1.00  0.00     0.066 A 
HETATM   16  C   UNL     1      16.765   0.423  -4.793  1.00  0.00     0.036 A 
HETATM   17  C   UNL     1      16.489  -0.930  -4.589  1.00  0.00     0.004 A 
HETATM   18  C   UNL     1      15.294  -1.314  -3.978  1.00  0.00     0.013 A 
BRANCH  15  19
HETATM   19  O   UNL     1      16.159   2.694  -4.606  1.00  0.00    -0.361 OA
HETATM   20  H   UNL     1      15.431   3.247  -4.275  1.00  0.00     0.217 HD
ENDBRANCH  15  19
ENDBRANCH  12  13
ENDBRANCH   8  11
ENDBRANCH   5   7
BRANCH   1  21
HETATM   21  C   UNL     1       6.370  -2.845  -0.312  1.00  0.00     0.028 A 
HETATM   22  C   UNL     1       5.609  -2.993   0.863  1.00  0.00     0.081 A 
HETATM   23  C   UNL     1       4.869  -4.169   1.057  1.00  0.00     0.038 A 
HETATM   24  C   UNL     1       4.868  -5.180   0.092  1.00  0.00     0.003 A 
HETATM   25  C   UNL     1       5.613  -5.033  -1.073  1.00  0.00     0.001 A 
HETATM   26  C   UNL     1       6.361  -3.873  -1.273  1.00  0.00     0.017 A 
BRANCH  22  27
HETATM   27  O   UNL     1       5.684  -1.997   1.805  1.00  0.00    -0.350 OA
BRANCH  27  28
HETATM   28  C   UNL     1       4.568  -1.872   2.687  1.00  0.00     0.175 C 
BRANCH  28  29
HETATM   29  C   UNL     1       4.654  -0.512   3.374  1.00  0.00     0.022 C 
HETATM   30  C   UNL     1       3.529  -0.317   4.376  1.00  0.00     0.007 C 
ENDBRANCH  28  29
ENDBRANCH  27  28
ENDBRANCH  22  27
ENDBRANCH   1  21
TORSDOF 8
