REMARK  9 active torsions:
REMARK  status: ('A' for Active; 'I' for Inactive)
REMARK    1  A    between atoms: C_4  and  C_5 
REMARK    2  A    between atoms: C_7  and  O_8 
REMARK    3  A    between atoms: C_10  and  O_11 
REMARK    4  A    between atoms: C_16  and  C_17 
REMARK    5  A    between atoms: C_20  and  C_21 
REMARK    6  A    between atoms: C_21  and  N_22 
REMARK    7  A    between atoms: N_22  and  C_23 
REMARK    8  A    between atoms: C_23  and  N_24 
REMARK    9  A    between atoms: N_24  and  C_25 
ROOT
HETATM    1  C   UNL     1      -2.858  -3.895  -3.365  1.00  0.00     0.034 A 
HETATM    2  C   UNL     1      -1.494  -4.136  -3.556  1.00  0.00     0.031 A 
HETATM    3  C   UNL     1      -1.050  -4.875  -4.658  1.00  0.00     0.025 A 
HETATM    4  C   UNL     1      -1.966  -5.373  -5.588  1.00  0.00     0.044 A 
HETATM    5  C   UNL     1      -1.506  -6.134  -6.712  1.00  0.00     0.099 C 
HETATM    6  N   UNL     1      -1.113  -6.757  -7.608  1.00  0.00    -0.191 NA
HETATM    7  C   UNL     1      -3.327  -5.112  -5.418  1.00  0.00     0.025 A 
HETATM    8  C   UNL     1      -3.767  -4.366  -4.318  1.00  0.00     0.031 A 
ENDROOT
BRANCH   1   9
HETATM    9  N   UNL     1      -3.374  -3.131  -2.299  1.00  0.00    -0.333 N 
HETATM   10  H   UNL     1      -4.287  -2.711  -2.464  1.00  0.00     0.168 HD
BRANCH   9  11
HETATM   11  C   UNL     1      -2.808  -2.735  -1.120  1.00  0.00     0.172 C 
HETATM   12  S   UNL     1      -3.460  -1.417  -0.331  1.00  0.00    -0.041 SA
BRANCH  11  13
HETATM   13  N   UNL     1      -1.772  -3.503  -0.653  1.00  0.00    -0.365 N 
HETATM   14  H   UNL     1      -1.860  -4.467  -0.963  1.00  0.00     0.161 HD
BRANCH  13  15
HETATM   15  C   UNL     1      -1.045  -3.258   0.590  1.00  0.00     0.155 C 
BRANCH  15  16
HETATM   16  C   UNL     1       0.288  -4.034   0.670  1.00  0.00     0.206 C 
HETATM   17  C   UNL     1       1.235  -3.762  -0.511  1.00  0.00     0.040 C 
HETATM   18  C   UNL     1       2.685  -3.514  -0.040  1.00  0.00     0.001 C 
HETATM   19  C   UNL     1       2.806  -2.285   0.886  1.00  0.00     0.067 C 
HETATM   20  C   UNL     1       3.044  -4.744   0.840  1.00  0.00     0.033 C 
HETATM   21  C   UNL     1       1.668  -2.316   1.927  1.00  0.00     0.246 C 
HETATM   22  N   UNL     1       1.067  -3.726   1.945  1.00  0.00    -0.065 N 
HETATM   23  C   UNL     1       2.179  -4.759   2.112  1.00  0.00     0.236 C 
HETATM   24  H   UNL     1       0.437  -3.795   2.757  1.00  0.00     0.280 HD
BRANCH  19  25
HETATM   25  C   UNL     1       3.042  -0.906   0.335  1.00  0.00     0.038 C 
HETATM   26  N   UNL     1       2.560  -0.280  -0.791  1.00  0.00    -0.277 N 
HETATM   27  C   UNL     1       1.804  -0.785  -1.911  1.00  0.00     0.179 C 
HETATM   28  N   UNL     1       2.833   1.032  -0.823  1.00  0.00    -0.172 NA
HETATM   29  C   UNL     1       3.654   1.262   0.204  1.00  0.00     0.089 C 
HETATM   30  C   UNL     1       3.821   0.071   0.947  1.00  0.00     0.061 C 
BRANCH  29  31
HETATM   31  C   UNL     1       4.201   2.590   0.475  1.00  0.00    -0.003 A 
HETATM   32  C   UNL     1       3.495   3.736   0.075  1.00  0.00     0.053 A 
HETATM   33  C   UNL     1       3.985   5.017   0.354  1.00  0.00     0.102 A 
HETATM   34  C   UNL     1       5.212   5.161   1.031  1.00  0.00     0.101 A 
HETATM   35  C   UNL     1       5.921   4.021   1.421  1.00  0.00     0.040 A 
HETATM   36  C   UNL     1       5.419   2.745   1.147  1.00  0.00     0.017 A 
BRANCH  33  37
HETATM   37  O   UNL     1       3.343   6.182   0.013  1.00  0.00    -0.353 OA
HETATM   38  C   UNL     1       2.115   6.080  -0.692  1.00  0.00     0.210 C 
ENDBRANCH  33  37
BRANCH  34  39
HETATM   39  O   UNL     1       5.620   6.448   1.273  1.00  0.00    -0.353 OA
HETATM   40  C   UNL     1       6.931   6.640   1.784  1.00  0.00     0.210 C 
ENDBRANCH  34  39
ENDBRANCH  29  31
ENDBRANCH  19  25
ENDBRANCH  15  16
ENDBRANCH  13  15
ENDBRANCH  11  13
ENDBRANCH   9  11
ENDBRANCH   1   9
TORSDOF 9
