REMARK  5 active torsions:
REMARK  status: ('A' for Active; 'I' for Inactive)
REMARK    1  A    between atoms: C_6  and  N_7 
REMARK       I    between atoms: N_7  and  C_8 
REMARK    2  A    between atoms: C_8  and  C_9 
REMARK    3  A    between atoms: C_10  and  O_11 
REMARK    4  A    between atoms: C_14  and  O_15 
REMARK    5  A    between atoms: C_20  and  C_21 
ROOT
HETATM    1  C   UNL     1       1.535   1.016   0.514  1.00  0.00     0.073 C 
HETATM    2  C   UNL     1       2.631   0.174  -0.029  1.00  0.00     0.065 A 
HETATM    3  N   UNL     1       2.464  -0.471  -1.191  1.00  0.00    -0.177 NA
HETATM    4  N   UNL     1       3.599  -1.169  -1.330  1.00  0.00    -0.262 N 
HETATM    5  H   UNL     1       3.701  -1.737  -2.161  1.00  0.00     0.191 HD
HETATM    6  C   UNL     1       4.527  -0.951  -0.346  1.00  0.00     0.137 A 
HETATM    7  C   UNL     1       3.900  -0.108   0.558  1.00  0.00     0.046 A 
ENDROOT
BRANCH   6   8
HETATM    8  N   UNL     1       5.773  -1.557  -0.409  1.00  0.00    -0.307 N 
HETATM    9  C   UNL     1       6.918  -0.954   0.099  1.00  0.00     0.260 C 
HETATM   10  O   UNL     1       6.995   0.195   0.517  1.00  0.00    -0.267 OA
HETATM   11  H   UNL     1       5.874  -2.381  -0.985  1.00  0.00     0.170 HD
BRANCH   9  12
HETATM   12  C   UNL     1       8.161  -1.777   0.013  1.00  0.00     0.065 A 
HETATM   13  C   UNL     1       9.105  -1.755   1.050  1.00  0.00     0.086 A 
HETATM   14  C   UNL     1      10.273  -2.528   0.976  1.00  0.00     0.074 A 
HETATM   15  C   UNL     1      10.528  -3.300  -0.155  1.00  0.00     0.070 A 
HETATM   16  C   UNL     1       9.601  -3.309  -1.200  1.00  0.00     0.038 A 
HETATM   17  C   UNL     1       8.430  -2.549  -1.126  1.00  0.00     0.022 A 
BRANCH  13  18
HETATM   18  O   UNL     1       8.875  -1.060   2.209  1.00  0.00    -0.355 OA
HETATM   19  C   UNL     1       9.575   0.188   2.186  1.00  0.00     0.210 C 
ENDBRANCH  13  18
BRANCH  15  20
HETATM   20  O   UNL     1      11.627  -4.087  -0.359  1.00  0.00    -0.356 OA
HETATM   21  C   UNL     1      12.697  -3.946   0.569  1.00  0.00     0.210 C 
ENDBRANCH  15  20
ENDBRANCH   9  12
ENDBRANCH   6   8
BRANCH   7  22
HETATM   22  C   UNL     1       4.376   0.234   1.887  1.00  0.00    -0.020 A 
HETATM   23  C   UNL     1       4.471   1.571   2.290  1.00  0.00     0.014 A 
HETATM   24  C   UNL     1       4.878   1.888   3.589  1.00  0.00     0.020 A 
HETATM   25  C   UNL     1       5.187   0.868   4.487  1.00  0.00     0.011 A 
HETATM   26 BR   UNL     1       5.731   1.298   6.246  1.00  0.00    -0.051 Br
HETATM   27  C   UNL     1       5.094  -0.467   4.101  1.00  0.00     0.020 A 
HETATM   28  C   UNL     1       4.686  -0.783   2.804  1.00  0.00     0.014 A 
ENDBRANCH   7  22
TORSDOF 5
