REMARK  5 active torsions:
REMARK  status: ('A' for Active; 'I' for Inactive)
REMARK    1  A    between atoms: C_4  and  N_5 
REMARK       I    between atoms: N_5  and  C_6 
REMARK    2  A    between atoms: C_6  and  C_7 
REMARK    3  A    between atoms: N_9  and  C_10 
REMARK    4  A    between atoms: C_10  and  C_11 
REMARK    5  A    between atoms: C_14  and  O_15 
ROOT
HETATM    1  C   UNL     1       2.932   3.697   0.030  1.00  0.00     0.105 C 
HETATM    2  C   UNL     1       2.012   2.632   0.604  1.00  0.00     0.140 C 
HETATM    3  N   UNL     1       0.828   3.395   0.922  1.00  0.00    -0.347 N 
HETATM    4  C   UNL     1       1.121   4.724   1.165  1.00  0.00     0.221 C 
HETATM    5  O   UNL     1       0.353   5.585   1.560  1.00  0.00    -0.273 OA
HETATM    6  C   UNL     1       2.582   4.937   0.855  1.00  0.00     0.118 C 
ENDROOT
BRANCH   1   7
HETATM    7  C   UNL     1       4.403   3.342   0.095  1.00  0.00     0.228 C 
HETATM    8  N   UNL     1       5.176   4.297  -0.533  1.00  0.00    -0.325 N 
HETATM    9  H   UNL     1       4.715   5.090  -0.979  1.00  0.00     0.169 HD
HETATM   10  O   UNL     1       4.802   2.305   0.611  1.00  0.00    -0.273 OA
BRANCH   8  11
HETATM   11  C   UNL     1       6.574   4.313  -0.756  1.00  0.00     0.065 A 
HETATM   12  C   UNL     1       7.451   3.347  -0.253  1.00  0.00     0.038 A 
HETATM   13  C   UNL     1       8.820   3.420  -0.534  1.00  0.00    -0.059 A 
HETATM   14  C   UNL     1       9.769   2.404   0.032  1.00  0.00     0.048 C 
HETATM   15  C   UNL     1       9.302   4.485  -1.302  1.00  0.00     0.020 A 
HETATM   16  C   UNL     1       8.426   5.459  -1.808  1.00  0.00    -0.005 A 
HETATM   17  C   UNL     1       7.045   5.382  -1.537  1.00  0.00     0.093 A 
HETATM   18  C   UNL     1       8.888   6.525  -2.592  1.00  0.00     0.015 A 
HETATM   19  N   UNL     1       6.170   6.303  -2.013  1.00  0.00    -0.258 NA
HETATM   20  C   UNL     1       6.656   7.315  -2.765  1.00  0.00     0.117 A 
HETATM   21  C   UNL     1       7.991   7.468  -3.079  1.00  0.00     0.020 A 
ENDBRANCH   8  11
ENDBRANCH   1   7
BRANCH   3  22
HETATM   22  C   UNL     1      -0.481   2.801   1.096  1.00  0.00     0.164 C 
BRANCH  22  23
HETATM   23  C   UNL     1      -0.647   2.040   2.386  1.00  0.00    -0.040 A 
HETATM   24  C   UNL     1      -0.686   2.717   3.612  1.00  0.00     0.011 A 
HETATM   25  C   UNL     1      -0.940   2.021   4.796  1.00  0.00     0.037 A 
HETATM   26  C   UNL     1      -1.176   0.646   4.773  1.00  0.00     0.068 A 
HETATM   27  C   UNL     1      -1.094  -0.043   3.563  1.00  0.00     0.037 A 
HETATM   28  C   UNL     1      -0.832   0.651   2.377  1.00  0.00     0.011 A 
BRANCH  26  29
HETATM   29  O   UNL     1      -1.458   0.079   5.986  1.00  0.00    -0.356 OA
HETATM   30  C   UNL     1      -2.221  -1.122   5.939  1.00  0.00     0.210 C 
ENDBRANCH  26  29
ENDBRANCH  22  23
ENDBRANCH   3  22
TORSDOF 5
