REMARK  8 active torsions:
REMARK  status: ('A' for Active; 'I' for Inactive)
REMARK    1  A    between atoms: C_4  and  O_5 
REMARK    2  A    between atoms: O_5  and  C_6 
REMARK    3  A    between atoms: C_9  and  N_10 
REMARK    4  A    between atoms: N_10  and  C_11 
REMARK    5  A    between atoms: C_13  and  N_14 
REMARK    6  A    between atoms: C_16  and  C_17 
REMARK    7  A    between atoms: C_17  and  N_18 
REMARK    8  A    between atoms: N_22  and  C_23 
ROOT
HETATM    1  C   UNL     1       5.145  -5.725  -0.597  1.00  0.00     0.731 A 
HETATM    2  N   UNL     1       5.914  -6.735  -0.983  1.00  0.00    -0.031 NA
HETATM    3  C   UNL     1       5.373  -7.941  -0.959  1.00  0.00     0.219 A 
HETATM    4  N   UNL     1       4.126  -8.199  -0.597  1.00  0.00    -0.200 NA
HETATM    5  C   UNL     1       3.428  -7.136  -0.210  1.00  0.00     0.174 A 
HETATM    6  N   UNL     1       3.872  -5.882  -0.241  1.00  0.00    -0.045 NA
ENDROOT
BRANCH   1   7
HETATM    7  N   UNL     1       5.727  -4.464  -0.663  1.00  0.00    -0.188 N 
HETATM    8  H   UNL     1       6.701  -4.552  -0.931  1.00  0.00     0.184 HD
BRANCH   7   9
HETATM    9  C   UNL     1       5.356  -3.200  -0.182  1.00  0.00     0.049 A 
HETATM   10  C   UNL     1       4.193  -2.956   0.558  1.00  0.00     0.033 A 
HETATM   11  C   UNL     1       3.860  -1.662   0.976  1.00  0.00     0.039 A 
HETATM   12  C   UNL     1       4.691  -0.592   0.661  1.00  0.00     0.076 A 
HETATM   13  C   UNL     1       5.829  -0.800  -0.113  1.00  0.00     0.039 A 
HETATM   14  C   UNL     1       6.156  -2.096  -0.526  1.00  0.00     0.033 A 
BRANCH  12  15
HETATM   15  O   UNL     1       4.298   0.657   1.072  1.00  0.00    -0.311 OA
BRANCH  15  16
HETATM   16  C   UNL     1       5.200   1.412   1.789  1.00  0.00     0.076 A 
HETATM   17  C   UNL     1       5.131   2.795   1.603  1.00  0.00     0.037 A 
HETATM   18  C   UNL     1       5.980   3.640   2.319  1.00  0.00     0.003 A 
HETATM   19  C   UNL     1       6.891   3.106   3.229  1.00  0.00     0.000 A 
HETATM   20  C   UNL     1       6.948   1.727   3.432  1.00  0.00     0.003 A 
HETATM   21  C   UNL     1       6.097   0.879   2.720  1.00  0.00     0.037 A 
ENDBRANCH  15  16
ENDBRANCH  12  15
ENDBRANCH   7   9
ENDBRANCH   1   7
BRANCH   3  22
HETATM   22  N   UNL     1       6.145  -8.999  -1.382  1.00  0.00    -0.270 NA
HETATM   23  H   UNL     1       7.131  -8.765  -1.340  1.00  0.00     0.127 HD
HETATM   24  H   UNL     1       5.893  -9.865  -0.925  1.00  0.00     0.127 HD
ENDBRANCH   3  22
BRANCH   5  25
HETATM   25  C   UNL     1       1.951  -7.337   0.060  1.00  0.00     0.316 C 
BRANCH  25  26
HETATM   26  N   UNL     1       1.024  -7.211  -1.165  1.00  0.00    -0.061 N 
HETATM   27  H   UNL     1       0.081  -7.405  -0.802  1.00  0.00     0.280 HD
HETATM   28  C   UNL     1       1.013  -5.798  -1.742  1.00  0.00     0.255 C 
HETATM   29  C   UNL     1      -0.005  -5.710  -2.905  1.00  0.00     0.152 C 
HETATM   30  N   UNL     1       0.196  -6.769  -3.928  1.00  0.00    -0.364 N 
HETATM   31  C   UNL     1       0.306  -8.148  -3.392  1.00  0.00     0.152 C 
HETATM   32  C   UNL     1       1.338  -8.245  -2.239  1.00  0.00     0.255 C 
BRANCH  30  33
HETATM   33  C   UNL     1       0.870  -6.479  -5.100  1.00  0.00     0.102 A 
HETATM   34  N   UNL     1       0.508  -7.149  -6.210  1.00  0.00    -0.352 N 
HETATM   35  H   UNL     1      -0.272  -7.797  -6.129  1.00  0.00     0.166 HD
HETATM   36  C   UNL     1       1.058  -6.955  -7.418  1.00  0.00     0.089 A 
HETATM   37  C   UNL     1       2.061  -6.014  -7.579  1.00  0.00     0.017 A 
HETATM   38  C   UNL     1       2.463  -5.275  -6.476  1.00  0.00     0.005 A 
HETATM   39  C   UNL     1       1.863  -5.500  -5.236  1.00  0.00     0.048 A 
ENDBRANCH  30  33
ENDBRANCH  25  26
ENDBRANCH   5  25
TORSDOF 8
