REMARK  3 active torsions:
REMARK  status: ('A' for Active; 'I' for Inactive)
REMARK    1  A    between atoms: C_2  and  C_3 
REMARK    2  A    between atoms: C_4  and  N_5 
REMARK    3  A    between atoms: C_18  and  C_19 
ROOT
HETATM    1  N   UNL     1       2.915  -2.457  -0.522  1.00  0.00    -0.320 N 
HETATM    2  C   UNL     1       3.934  -3.302  -1.073  1.00  0.00     0.141 C 
HETATM    3  N   UNL     1       5.034  -3.581  -0.434  1.00  0.00    -0.380 N 
HETATM    4  H   UNL     1       5.180  -3.186   0.485  1.00  0.00     0.158 HD
HETATM    5  H   UNL     1       5.724  -4.182  -0.862  1.00  0.00     0.158 HD
HETATM    6  S   UNL     1       3.546  -3.901  -2.648  1.00  0.00    -0.086 SA
HETATM    7  C   UNL     1       2.159  -2.725  -2.763  1.00  0.00     0.093 C 
HETATM    8  C   UNL     1       1.675  -2.594  -1.302  1.00  0.00     0.121 C 
HETATM    9  C   UNL     1       0.913  -3.023  -3.560  1.00  0.00     0.158 C 
HETATM   10  S   UNL     1      -0.264  -1.866  -2.827  1.00  0.00     0.147 S 
HETATM   11  O   UNL     1      -0.337  -0.690  -3.666  1.00  0.00    -0.228 OA
HETATM   12  O   UNL     1      -1.435  -2.611  -2.419  1.00  0.00    -0.228 OA
HETATM   13  C   UNL     1       0.688  -1.453  -1.354  1.00  0.00     0.167 C 
ENDROOT
BRANCH   1  14
HETATM   14  C   UNL     1       2.786  -2.138   0.843  1.00  0.00     0.049 A 
HETATM   15  C   UNL     1       3.097  -0.820   1.267  1.00  0.00    -0.031 A 
HETATM   16  C   UNL     1       3.072  -0.507   2.638  1.00  0.00     0.009 A 
HETATM   17  C   UNL     1       2.733  -1.465   3.584  1.00  0.00     0.001 A 
HETATM   18  C   UNL     1       2.418  -2.754   3.174  1.00  0.00     0.009 A 
HETATM   19  C   UNL     1       2.441  -3.113   1.813  1.00  0.00    -0.031 A 
BRANCH  15  20
HETATM   20  C   UNL     1       3.499   0.281   0.302  1.00  0.00     0.036 C 
HETATM   21  C   UNL     1       2.539   1.465   0.318  1.00  0.00     0.010 C 
ENDBRANCH  15  20
BRANCH  19  22
HETATM   22  C   UNL     1       2.081  -4.548   1.485  1.00  0.00     0.036 C 
HETATM   23  C   UNL     1       0.586  -4.812   1.620  1.00  0.00     0.010 C 
ENDBRANCH  19  22
ENDBRANCH   1  14
TORSDOF 3
