REMARK  7 active torsions:
REMARK  status: ('A' for Active; 'I' for Inactive)
REMARK    1  A    between atoms: O_2  and  C_3 
REMARK    2  A    between atoms: C_4  and  N_5 
REMARK    3  A    between atoms: N_5  and  C_6 
REMARK    4  A    between atoms: C_6  and  C_7 
REMARK       I    between atoms: C_7  and  N_8 
REMARK    5  A    between atoms: N_8  and  N_9 
REMARK       I    between atoms: N_9  and  C_10 
REMARK    6  A    between atoms: C_10  and  C_11 
REMARK    7  A    between atoms: N_13  and  C_14 
ROOT
HETATM    1  N   UNL     1       2.358   3.173   0.161  1.00  0.00    -0.263 N 
HETATM    2  C   UNL     1       3.228   2.640   1.102  1.00  0.00     0.273 C 
HETATM    3  O   UNL     1       4.319   3.112   1.401  1.00  0.00    -0.266 OA
HETATM    4  H   UNL     1       1.677   2.550  -0.262  1.00  0.00     0.190 HD
ENDROOT
BRANCH   1   5
HETATM    5  N   UNL     1       2.805   4.219  -0.661  1.00  0.00    -0.266 N 
HETATM    6  C   UNL     1       3.622   3.912  -1.745  1.00  0.00     0.249 C 
HETATM    7  O   UNL     1       4.165   2.826  -1.927  1.00  0.00    -0.270 OA
HETATM    8  H   UNL     1       2.163   4.999  -0.812  1.00  0.00     0.190 HD
BRANCH   6   9
HETATM    9  C   UNL     1       3.744   5.093  -2.712  1.00  0.00     0.197 C 
BRANCH   9  10
HETATM   10  N   UNL     1       2.420   5.693  -2.937  1.00  0.00    -0.282 NA
HETATM   11  H   UNL     1       2.433   6.707  -3.069  1.00  0.00     0.128 HD
BRANCH  10  12
HETATM   12  C   UNL     1       1.534   5.127  -3.875  1.00  0.00     0.042 A 
HETATM   13  C   UNL     1       0.379   5.861  -4.241  1.00  0.00     0.089 A 
HETATM   14  C   UNL     1      -0.560   5.317  -5.125  1.00  0.00     0.038 A 
HETATM   15  C   UNL     1      -0.389   4.026  -5.623  1.00  0.00     0.003 A 
HETATM   16  C   UNL     1       0.715   3.276  -5.236  1.00  0.00     0.002 A 
HETATM   17  C   UNL     1       1.660   3.817  -4.361  1.00  0.00     0.026 A 
BRANCH  13  18
HETATM   18  O   UNL     1       0.286   7.125  -3.701  1.00  0.00    -0.354 OA
HETATM   19  C   UNL     1      -1.021   7.687  -3.657  1.00  0.00     0.210 C 
ENDBRANCH  13  18
ENDBRANCH  10  12
ENDBRANCH   9  10
ENDBRANCH   6   9
ENDBRANCH   1   5
BRANCH   2  20
HETATM   20  C   UNL     1       2.714   1.428   1.712  1.00  0.00     0.070 A 
HETATM   21  C   UNL     1       3.439   0.310   2.073  1.00  0.00     0.137 A 
HETATM   22  N   UNL     1       2.552  -0.606   2.595  1.00  0.00    -0.244 N 
HETATM   23  N   UNL     1       1.292  -0.096   2.640  1.00  0.00    -0.179 NA
HETATM   24  C   UNL     1       1.399   1.116   2.100  1.00  0.00     0.157 A 
BRANCH  22  25
HETATM   25  C   UNL     1       2.809  -1.935   3.031  1.00  0.00     0.059 A 
HETATM   26  C   UNL     1       4.060  -2.535   2.834  1.00  0.00     0.055 A 
HETATM   27  C   UNL     1       4.266  -3.851   3.253  1.00  0.00     0.036 A 
HETATM   28 CL   UNL     1       5.794  -4.600   2.987  1.00  0.00    -0.084 Cl
HETATM   29  C   UNL     1       3.248  -4.572   3.877  1.00  0.00     0.024 A 
HETATM   30  C   UNL     1       2.005  -3.977   4.080  1.00  0.00     0.004 A 
HETATM   31  C   UNL     1       1.783  -2.666   3.654  1.00  0.00     0.031 A 
ENDBRANCH  22  25
ENDBRANCH   2  20
TORSDOF 7
