REMARK  7 active torsions:
REMARK  status: ('A' for Active; 'I' for Inactive)
REMARK    1  A    between atoms: C_6  and  N_7 
REMARK    2  A    between atoms: C_10  and  C_11 
REMARK       I    between atoms: C_11  and  N_12 
REMARK    3  A    between atoms: N_12  and  C_13 
REMARK    4  A    between atoms: C_16  and  C_17 
REMARK    5  A    between atoms: C_17  and  N_18 
REMARK    6  A    between atoms: C_21  and  C_22 
REMARK       I    between atoms: C_22  and  N_23 
REMARK    7  A    between atoms: C_31  and  C_32 
ROOT
HETATM    1  C   UNL     1      -3.938  -4.432  -0.481  1.00  0.00     0.278 C 
HETATM    2  N   UNL     1      -4.223  -5.729  -0.869  1.00  0.00    -0.322 N 
HETATM    3  O   UNL     1      -2.872  -4.027  -0.037  1.00  0.00    -0.265 OA
HETATM    4  H   UNL     1      -5.151  -5.867  -1.260  1.00  0.00     0.169 HD
ENDROOT
BRANCH   2   5
HETATM    5  C   UNL     1      -3.369  -6.847  -0.816  1.00  0.00     0.035 A 
HETATM    6  C   UNL     1      -2.076  -6.812  -0.296  1.00  0.00     0.030 A 
HETATM    7  C   UNL     1      -1.278  -7.961  -0.284  1.00  0.00     0.011 A 
HETATM    8  C   UNL     1      -1.761  -9.174  -0.789  1.00  0.00    -0.032 A 
HETATM    9  C   UNL     1      -3.061  -9.213  -1.308  1.00  0.00     0.011 A 
HETATM   10  C   UNL     1      -3.856  -8.060  -1.317  1.00  0.00     0.030 A 
BRANCH   8  11
HETATM   11  C   UNL     1      -0.888 -10.401  -0.770  1.00  0.00     0.273 C 
BRANCH  11  12
HETATM   12  N   UNL     1      -0.611 -10.921   0.622  1.00  0.00    -0.066 N 
HETATM   13  H   UNL     1      -0.407 -10.082   1.203  1.00  0.00     0.280 HD
HETATM   14  C   UNL     1      -1.823 -11.551   1.274  1.00  0.00     0.249 C 
HETATM   15  C   UNL     1      -1.526 -11.915   2.730  1.00  0.00     0.103 C 
HETATM   16  C   UNL     1      -0.277 -12.794   2.836  1.00  0.00     0.017 C 
HETATM   17  C   UNL     1       0.922 -12.186   2.104  1.00  0.00     0.029 C 
HETATM   18  C   UNL     1       0.598 -11.812   0.664  1.00  0.00     0.235 C 
BRANCH  15  19
HETATM   19  C   UNL     1      -1.345 -10.640   3.533  1.00  0.00     0.221 C 
HETATM   20  N   UNL     1      -1.501 -10.747   4.877  1.00  0.00    -0.370 N 
HETATM   21  H   UNL     1      -1.840 -11.577   5.349  1.00  0.00     0.159 HD
HETATM   22  H   UNL     1      -1.391  -9.911   5.442  1.00  0.00     0.159 HD
HETATM   23  O   UNL     1      -0.989  -9.592   2.999  1.00  0.00    -0.273 OA
ENDBRANCH  15  19
ENDBRANCH  11  12
ENDBRANCH   8  11
ENDBRANCH   2   5
BRANCH   1  24
HETATM   24  C   UNL     1      -5.060  -3.523  -0.687  1.00  0.00     0.175 C 
HETATM   25  N   UNL     1      -6.213  -3.899  -1.318  1.00  0.00    -0.152 NA
HETATM   26  N   UNL     1      -7.015  -2.848  -1.355  1.00  0.00     0.011 NA
HETATM   27  N   UNL     1      -6.345  -1.766  -0.865  1.00  0.00    -0.231 N 
HETATM   28  C   UNL     1      -5.177  -2.206  -0.282  1.00  0.00     0.174 C 
BRANCH  27  29
HETATM   29  C   UNL     1      -6.881  -0.463  -1.067  1.00  0.00     0.058 A 
HETATM   30  C   UNL     1      -8.247  -0.332  -1.368  1.00  0.00     0.073 A 
HETATM   31  C   UNL     1      -8.791   0.931  -1.580  1.00  0.00     0.118 A 
HETATM   32  C   UNL     1      -8.003   2.073  -1.520  1.00  0.00     0.042 A 
HETATM   33  F   UNL     1     -10.098   1.047  -1.846  1.00  0.00    -0.206 F 
HETATM   34  C   UNL     1      -6.643   1.950  -1.251  1.00  0.00     0.005 A 
HETATM   35  C   UNL     1      -6.079   0.687  -1.031  1.00  0.00     0.031 A 
ENDBRANCH  27  29
BRANCH  28  36
HETATM   36  C   UNL     1      -4.331  -1.425   0.614  1.00  0.00     0.436 C 
HETATM   37  F   UNL     1      -5.023  -0.460   1.270  1.00  0.00    -0.165 F 
HETATM   38  F   UNL     1      -3.772  -2.184   1.588  1.00  0.00    -0.165 F 
HETATM   39  F   UNL     1      -3.326  -0.809  -0.052  1.00  0.00    -0.165 F 
ENDBRANCH  28  36
ENDBRANCH   1  24
TORSDOF 7
