REMARK  6 active torsions:
REMARK  status: ('A' for Active; 'I' for Inactive)
REMARK    1  A    between atoms: C_7  and  C_8 
REMARK    2  A    between atoms: C_8  and  O_9 
REMARK    3  A    between atoms: O_9  and  C_10 
REMARK    4  A    between atoms: C_10  and  C_11 
REMARK       I    between atoms: C_11  and  N_12 
REMARK    5  A    between atoms: N_12  and  N_13 
REMARK    6  A    between atoms: C_17  and  C_18 
ROOT
HETATM    1  C   UNL     1       0.231  -5.618   0.014  1.00  0.00     0.261 C 
HETATM    2  N   UNL     1       0.477  -6.810   0.665  1.00  0.00    -0.255 N 
HETATM    3  O   UNL     1      -0.882  -5.267  -0.376  1.00  0.00    -0.269 OA
HETATM    4  H   UNL     1       1.435  -7.164   0.710  1.00  0.00     0.191 HD
ENDROOT
BRANCH   1   5
HETATM    5  C   UNL     1       1.472  -4.735  -0.143  1.00  0.00     0.283 C 
BRANCH   5   6
HETATM    6  O   UNL     1       2.374  -5.137  -1.176  1.00  0.00    -0.308 OA
BRANCH   6   7
HETATM    7  C   UNL     1       3.150  -6.210  -0.889  1.00  0.00     0.293 C 
HETATM    8  O   UNL     1       3.084  -6.861   0.145  1.00  0.00    -0.259 OA
BRANCH   7   9
HETATM    9  C   UNL     1       4.092  -6.515  -1.998  1.00  0.00     0.040 A 
HETATM   10  C   UNL     1       4.908  -7.645  -1.871  1.00  0.00     0.020 A 
HETATM   11  C   UNL     1       5.819  -7.999  -2.871  1.00  0.00     0.031 A 
HETATM   12  C   UNL     1       5.884  -7.180  -4.003  1.00  0.00     0.043 A 
HETATM   13  C   UNL     1       5.094  -6.043  -4.165  1.00  0.00    -0.001 A 
HETATM   14  N   UNL     1       6.668  -7.291  -5.127  1.00  0.00    -0.359 N 
HETATM   15  C   UNL     1       5.435  -5.460  -5.429  1.00  0.00    -0.027 A 
HETATM   16  C   UNL     1       4.180  -5.706  -3.144  1.00  0.00     0.032 A 
HETATM   17  C   UNL     1       4.849  -4.230  -6.028  1.00  0.00     0.051 C 
HETATM   18  C   UNL     1       6.405  -6.268  -6.002  1.00  0.00     0.012 A 
HETATM   19  C   UNL     1       7.107  -6.161  -7.307  1.00  0.00     0.068 C 
HETATM   20  H   UNL     1       7.336  -8.033  -5.283  1.00  0.00     0.166 HD
ENDBRANCH   7   9
ENDBRANCH   6   7
ENDBRANCH   5   6
ENDBRANCH   1   5
BRANCH   2  21
HETATM   21  N   UNL     1      -0.527  -7.758   0.672  1.00  0.00    -0.167 N 
HETATM   22  C   UNL     1      -0.795  -8.595  -0.376  1.00  0.00     0.345 A 
HETATM   23  O   UNL     1      -0.193  -8.697  -1.433  1.00  0.00    -0.245 OA
HETATM   24  N   UNL     1      -1.871  -9.382  -0.019  1.00  0.00    -0.319 N 
HETATM   25  C   UNL     1      -2.263  -9.187   1.370  1.00  0.00     0.141 A 
HETATM   26  H   UNL     1      -2.148 -10.160  -0.602  1.00  0.00     0.166 HD
HETATM   27  C   UNL     1      -3.705  -8.681   1.466  1.00  0.00     0.055 C 
HETATM   28  C   UNL     1      -1.321  -8.018   1.760  1.00  0.00     0.279 A 
HETATM   29  O   UNL     1      -1.279  -7.459   2.851  1.00  0.00    -0.268 OA
BRANCH  25  30
HETATM   30  C   UNL     1      -2.037 -10.486   2.142  1.00  0.00    -0.021 A 
HETATM   31  C   UNL     1      -1.047 -10.620   3.131  1.00  0.00     0.010 A 
HETATM   32  C   UNL     1      -0.850 -11.835   3.795  1.00  0.00     0.001 A 
HETATM   33  C   UNL     1      -1.636 -12.941   3.483  1.00  0.00     0.000 A 
HETATM   34  C   UNL     1      -2.620 -12.834   2.507  1.00  0.00     0.001 A 
HETATM   35  C   UNL     1      -2.818 -11.622   1.842  1.00  0.00     0.010 A 
ENDBRANCH  25  30
ENDBRANCH   2  21
TORSDOF 6
