REMARK  4 active torsions:
REMARK  status: ('A' for Active; 'I' for Inactive)
REMARK    1  A    between atoms: C_4  and  N_5 
REMARK       I    between atoms: N_5  and  C_6 
REMARK    2  A    between atoms: C_6  and  C_7 
REMARK    3  A    between atoms: C_7  and  C_8 
REMARK    4  A    between atoms: C_11  and  O_12 
ROOT
HETATM    1  N   UNL     1       4.827   2.495   0.088  1.00  0.00    -0.325 N 
HETATM    2  C   UNL     1       4.269   3.755   0.136  1.00  0.00     0.226 C 
HETATM    3  O   UNL     1       3.095   4.025   0.372  1.00  0.00    -0.273 OA
HETATM    4  H   UNL     1       5.815   2.409  -0.147  1.00  0.00     0.169 HD
ENDROOT
BRANCH   1   5
HETATM    5  C   UNL     1       4.205   1.238   0.280  1.00  0.00     0.065 A 
HETATM    6  C   UNL     1       2.843   1.088   0.562  1.00  0.00     0.038 A 
HETATM    7  C   UNL     1       2.289  -0.184   0.738  1.00  0.00    -0.059 A 
HETATM    8  C   UNL     1       0.823  -0.352   1.010  1.00  0.00     0.048 C 
HETATM    9  C   UNL     1       3.114  -1.306   0.615  1.00  0.00     0.020 A 
HETATM   10  C   UNL     1       4.483  -1.162   0.333  1.00  0.00    -0.005 A 
HETATM   11  C   UNL     1       5.046   0.120   0.163  1.00  0.00     0.093 A 
HETATM   12  C   UNL     1       5.323  -2.277   0.212  1.00  0.00     0.015 A 
HETATM   13  N   UNL     1       6.365   0.289  -0.108  1.00  0.00    -0.258 NA
HETATM   14  C   UNL     1       7.141  -0.812  -0.217  1.00  0.00     0.117 A 
HETATM   15  C   UNL     1       6.672  -2.102  -0.068  1.00  0.00     0.020 A 
ENDBRANCH   1   5
BRANCH   2  16
HETATM   16  C   UNL     1       5.282   4.855  -0.145  1.00  0.00     0.141 C 
BRANCH  16  17
HETATM   17  C   UNL     1       5.554   5.027  -1.619  1.00  0.00    -0.049 A 
HETATM   18  C   UNL     1       4.553   5.524  -2.468  1.00  0.00     0.010 A 
HETATM   19  C   UNL     1       4.789   5.672  -3.836  1.00  0.00     0.037 A 
HETATM   20  C   UNL     1       6.030   5.323  -4.356  1.00  0.00     0.065 A 
HETATM   21  C   UNL     1       7.035   4.830  -3.532  1.00  0.00     0.037 A 
HETATM   22  C   UNL     1       6.799   4.681  -2.164  1.00  0.00     0.010 A 
BRANCH  20  23
HETATM   23  O   UNL     1       6.304   5.449  -5.686  1.00  0.00    -0.361 OA
HETATM   24  H   UNL     1       5.509   5.786  -6.131  1.00  0.00     0.217 HD
ENDBRANCH  20  23
ENDBRANCH  16  17
ENDBRANCH   2  16
TORSDOF 4
