REMARK  4 active torsions:
REMARK  status: ('A' for Active; 'I' for Inactive)
REMARK    1  A    between atoms: C_4  and  C_5 
REMARK       I    between atoms: C_5  and  N_6 
REMARK    2  A    between atoms: N_6  and  C_7 
REMARK    3  A    between atoms: C_7  and  N_8 
REMARK    4  A    between atoms: N_8  and  C_9 
ROOT
HETATM    1  C   UNL     1       5.332   1.857  -0.700  1.00  0.00     0.257 C 
HETATM    2  N   UNL     1       6.689   1.567  -0.783  1.00  0.00    -0.299 N 
HETATM    3  O   UNL     1       4.823   2.608  -1.529  1.00  0.00    -0.267 OA
HETATM    4  H   UNL     1       7.094   2.210  -1.452  1.00  0.00     0.171 HD
ENDROOT
BRANCH   2   5
HETATM    5  C   UNL     1       7.343   0.315  -0.869  1.00  0.00     0.180 C 
HETATM    6  S   UNL     1       6.562  -1.158  -0.788  1.00  0.00    -0.040 SA
BRANCH   5   7
HETATM    7  N   UNL     1       8.703   0.547  -1.031  1.00  0.00    -0.318 N 
HETATM    8  H   UNL     1       9.025   1.487  -0.837  1.00  0.00     0.170 HD
BRANCH   7   9
HETATM    9  C   UNL     1       9.812  -0.254  -1.324  1.00  0.00     0.129 A 
HETATM   10  N   UNL     1      10.963   0.454  -1.270  1.00  0.00    -0.243 NA
HETATM   11  C   UNL     1      12.114  -0.191  -1.560  1.00  0.00     0.119 A 
HETATM   12  C   UNL     1      12.181  -1.527  -1.907  1.00  0.00     0.026 A 
HETATM   13  C   UNL     1      10.993  -2.251  -1.965  1.00  0.00    -0.057 A 
HETATM   14  C   UNL     1      11.013  -3.702  -2.342  1.00  0.00     0.048 C 
HETATM   15  C   UNL     1       9.789  -1.595  -1.677  1.00  0.00     0.057 A 
ENDBRANCH   7   9
ENDBRANCH   5   7
ENDBRANCH   2   5
BRANCH   1  16
HETATM   16  C   UNL     1       4.517   1.292   0.406  1.00  0.00     0.032 A 
HETATM   17  C   UNL     1       5.070   1.003   1.661  1.00  0.00     0.023 A 
HETATM   18  C   UNL     1       4.265   0.485   2.686  1.00  0.00    -0.061 A 
HETATM   19  C   UNL     1       4.848   0.190   4.036  1.00  0.00     0.048 C 
HETATM   20  C   UNL     1       2.896   0.299   2.452  1.00  0.00     0.007 A 
HETATM   21  C   UNL     1       2.340   0.606   1.210  1.00  0.00     0.002 A 
HETATM   22  C   UNL     1       3.147   1.105   0.189  1.00  0.00     0.017 A 
ENDBRANCH   1  16
TORSDOF 4
