REMARK  6 active torsions:
REMARK  status: ('A' for Active; 'I' for Inactive)
REMARK    1  A    between atoms: C_3  and  C_4 
REMARK    2  A    between atoms: C_5  and  C_6 
REMARK    3  A    between atoms: C_8  and  N_9 
REMARK       I    between atoms: N_9  and  C_10 
REMARK    4  A    between atoms: C_10  and  C_11 
REMARK    5  A    between atoms: C_11  and  C_12 
REMARK    6  A    between atoms: C_15  and  O_16 
ROOT
HETATM    1  C   UNL     1       2.197   4.901  -1.463  1.00  0.00     0.020 A 
HETATM    2  C   UNL     1       1.468   6.030  -1.068  1.00  0.00     0.050 A 
HETATM    3  C   UNL     1       2.028   7.304  -1.173  1.00  0.00     0.036 A 
HETATM    4  C   UNL     1       3.324   7.436  -1.688  1.00  0.00     0.029 A 
HETATM    5  C   UNL     1       4.046   6.312  -2.100  1.00  0.00     0.004 A 
HETATM    6  C   UNL     1       3.482   5.042  -1.984  1.00  0.00     0.021 A 
ENDROOT
BRANCH   3   7
HETATM    7  N   UNL     1       1.380   8.480  -0.742  1.00  0.00    -0.327 N 
HETATM    8  C   UNL     1       0.077   8.602  -0.285  1.00  0.00     0.226 C 
HETATM    9  O   UNL     1      -0.790   7.733  -0.312  1.00  0.00    -0.273 OA
HETATM   10  H   UNL     1       1.944   9.321  -0.746  1.00  0.00     0.169 HD
BRANCH   8  11
HETATM   11  C   UNL     1      -0.212   9.971   0.313  1.00  0.00     0.141 C 
BRANCH  11  12
HETATM   12  C   UNL     1       0.173  10.031   1.771  1.00  0.00    -0.049 A 
HETATM   13  C   UNL     1       1.293  10.761   2.191  1.00  0.00     0.010 A 
HETATM   14  C   UNL     1       1.665  10.766   3.537  1.00  0.00     0.037 A 
HETATM   15  C   UNL     1       0.922  10.043   4.462  1.00  0.00     0.065 A 
HETATM   16  C   UNL     1      -0.196   9.317   4.067  1.00  0.00     0.037 A 
HETATM   17  C   UNL     1      -0.568   9.312   2.722  1.00  0.00     0.010 A 
BRANCH  15  18
HETATM   18  O   UNL     1       1.329  10.068   5.763  1.00  0.00    -0.361 OA
HETATM   19  H   UNL     1       0.740   9.493   6.280  1.00  0.00     0.217 HD
ENDBRANCH  15  18
ENDBRANCH  11  12
ENDBRANCH   8  11
ENDBRANCH   3   7
BRANCH   1  20
HETATM   20  C   UNL     1       1.629   3.600  -1.288  1.00  0.00    -0.060 C 
HETATM   21  C   UNL     1       1.136   2.523  -1.090  1.00  0.00    -0.041 C 
BRANCH  21  22
HETATM   22  C   UNL     1       0.528   1.264  -0.807  1.00  0.00     0.110 A 
HETATM   23  C   UNL     1      -0.832   1.171  -0.546  1.00  0.00     0.041 A 
HETATM   24  C   UNL     1      -1.360  -0.082  -0.249  1.00  0.00     0.004 A 
HETATM   25  C   UNL     1      -0.514  -1.186  -0.222  1.00  0.00     0.019 A 
HETATM   26  C   UNL     1       0.831  -0.991  -0.498  1.00  0.00     0.118 A 
HETATM   27  N   UNL     1       1.373   0.211  -0.791  1.00  0.00    -0.252 NA
ENDBRANCH  21  22
ENDBRANCH   1  20
TORSDOF 6
