REMARK  10 active torsions:
REMARK  status: ('A' for Active; 'I' for Inactive)
REMARK       I    between atoms: C_2  and  N_3 
REMARK    1  A    between atoms: N_3  and  C_4 
REMARK    2  A    between atoms: C_4  and  C_5 
REMARK    3  A    between atoms: C_5  and  N_6 
REMARK       I    between atoms: N_6  and  C_7 
REMARK    4  A    between atoms: C_7  and  C_8 
REMARK    5  A    between atoms: C_8  and  C_9 
REMARK    6  A    between atoms: C_9  and  C_10 
REMARK    7  A    between atoms: C_10  and  C_11 
REMARK    8  A    between atoms: C_11  and  C_12 
REMARK    9  A    between atoms: C_12  and  N_13 
REMARK   10  A    between atoms: N_13  and  C_14 
ROOT
HETATM    1  C   UNL     1       7.487  -3.036   1.430  1.00  0.00     0.020 C 
ENDROOT
BRANCH   1   2
HETATM    2  C   UNL     1       6.910  -4.369   1.920  1.00  0.00     0.002 C 
BRANCH   2   3
HETATM    3  C   UNL     1       5.383  -4.424   1.856  1.00  0.00     0.009 C 
BRANCH   3   4
HETATM    4  C   UNL     1       4.850  -5.804   2.233  1.00  0.00     0.103 C 
BRANCH   4   5
HETATM    5  C   UNL     1       3.341  -5.776   2.341  1.00  0.00     0.217 C 
HETATM    6  N   UNL     1       2.690  -5.739   1.131  1.00  0.00    -0.360 N 
HETATM    7  H   UNL     1       3.220  -5.633   0.277  1.00  0.00     0.162 HD
HETATM    8  O   UNL     1       2.761  -5.751   3.422  1.00  0.00    -0.274 OA
BRANCH   6   9
HETATM    9  C   UNL     1       1.246  -5.590   1.048  1.00  0.00     0.142 C 
BRANCH   9  10
HETATM   10  C   UNL     1       0.791  -4.143   1.282  1.00  0.00     0.142 C 
BRANCH  10  11
HETATM   11  N   UNL     1       1.379  -3.193   0.348  1.00  0.00    -0.360 N 
HETATM   12  C   UNL     1       1.006  -3.156  -0.973  1.00  0.00     0.213 C 
HETATM   13  C   UNL     1       1.642  -2.046  -1.768  1.00  0.00     0.117 C 
HETATM   14  O   UNL     1       0.222  -3.951  -1.480  1.00  0.00    -0.274 OA
HETATM   15  H   UNL     1       1.950  -2.451   0.732  1.00  0.00     0.162 HD
ENDBRANCH  10  11
ENDBRANCH   9  10
ENDBRANCH   6   9
ENDBRANCH   4   5
ENDBRANCH   3   4
ENDBRANCH   2   3
ENDBRANCH   1   2
BRANCH   1  16
HETATM   16  C   UNL     1       7.049  -1.839   2.273  1.00  0.00     0.121 C 
BRANCH  16  17
HETATM   17  N   UNL     1       7.676  -0.620   1.779  1.00  0.00    -0.374 N 
HETATM   18  H   UNL     1       7.819  -0.611   0.777  1.00  0.00     0.161 HD
BRANCH  17  19
HETATM   19  C   UNL     1       7.401   0.602   2.370  1.00  0.00     0.139 A 
HETATM   20  N   UNL     1       6.716   0.635   3.478  1.00  0.00    -0.202 NA
HETATM   21  C   UNL     1       6.381   1.817   4.082  1.00  0.00     0.200 A 
HETATM   22  S   UNL     1       5.512   1.903   5.515  1.00  0.00    -0.039 SA
HETATM   23  N   UNL     1       6.744   3.000   3.496  1.00  0.00    -0.331 N 
HETATM   24  C   UNL     1       7.492   3.049   2.324  1.00  0.00     0.048 A 
HETATM   25  H   UNL     1       6.468   3.847   3.973  1.00  0.00     0.168 HD
HETATM   26  C   UNL     1       7.876   1.856   1.717  1.00  0.00     0.036 A 
HETATM   27  C   UNL     1       7.863   4.278   1.780  1.00  0.00     0.030 A 
HETATM   28  C   UNL     1       8.669   1.886   0.567  1.00  0.00     0.017 A 
HETATM   29  C   UNL     1       9.046   3.115   0.019  1.00  0.00     0.001 A 
HETATM   30  C   UNL     1       8.638   4.308   0.620  1.00  0.00     0.002 A 
ENDBRANCH  17  19
ENDBRANCH  16  17
ENDBRANCH   1  16
TORSDOF 10
