REMARK  2 active torsions:
REMARK  status: ('A' for Active; 'I' for Inactive)
REMARK    1  A    between atoms: O_2  and  C_3 
REMARK    2  A    between atoms: C_5  and  N_6 
ROOT
HETATM    1  N   UNL     1       4.083   0.807   0.662  1.00  0.00    -0.252 N 
HETATM    2  C   UNL     1       3.214  -0.225   0.385  1.00  0.00     0.239 C 
HETATM    3  O   UNL     1       3.323  -1.431   0.536  1.00  0.00    -0.272 OA
HETATM    4  C   UNL     1       1.993   0.334  -0.265  1.00  0.00     0.145 C 
HETATM    5  C   UNL     1       2.024   1.802   0.112  1.00  0.00     0.126 C 
HETATM    6  C   UNL     1       3.494   2.024   0.380  1.00  0.00     0.238 C 
HETATM    7  O   UNL     1       4.001   3.130   0.290  1.00  0.00    -0.272 OA
HETATM    8  C   UNL     1       2.052   0.250  -1.799  1.00  0.00     0.250 A 
HETATM    9  C   UNL     1       3.351  -0.406  -2.405  1.00  0.00     0.264 A 
HETATM   10  O   UNL     1       4.485   0.030  -2.301  1.00  0.00    -0.270 OA
HETATM   11  N   UNL     1       2.969  -1.517  -3.131  1.00  0.00    -0.324 N 
HETATM   12  C   UNL     1       1.596  -1.685  -3.112  1.00  0.00     0.044 A 
HETATM   13  C   UNL     1       0.987  -0.676  -2.359  1.00  0.00     0.015 A 
HETATM   14  C   UNL     1       0.882  -2.682  -3.740  1.00  0.00     0.030 A 
HETATM   15  C   UNL     1      -0.506  -2.655  -3.606  1.00  0.00     0.002 A 
HETATM   16  C   UNL     1      -1.138  -1.645  -2.858  1.00  0.00     0.001 A 
HETATM   17  C   UNL     1      -0.393  -0.644  -2.225  1.00  0.00     0.012 A 
HETATM   18  N   UNL     1       1.815   1.700  -2.277  1.00  0.00    -0.043 N 
HETATM   19  H   UNL     1       1.062   1.688  -2.981  1.00  0.00     0.282 HD
HETATM   20  C   UNL     1       1.396   2.514  -1.076  1.00  0.00     0.204 C 
HETATM   21  C   UNL     1       2.966   2.469  -2.891  1.00  0.00     0.237 C 
HETATM   22  C   UNL     1       2.500   3.904  -2.748  1.00  0.00     0.030 C 
HETATM   23  C   UNL     1       1.756   3.954  -1.417  1.00  0.00     0.036 C 
HETATM   24  H   UNL     1       3.627  -2.125  -3.606  1.00  0.00     0.169 HD
ENDROOT
BRANCH   1  25
HETATM   25  C   UNL     1       5.456   0.634   1.039  1.00  0.00     0.048 A 
HETATM   26  C   UNL     1       6.070  -0.629   1.023  1.00  0.00     0.066 A 
HETATM   27  C   UNL     1       7.429  -0.804   1.319  1.00  0.00     0.070 A 
HETATM   28  C   UNL     1       8.201   0.295   1.676  1.00  0.00     0.037 A 
HETATM   29  C   UNL     1       7.614   1.556   1.727  1.00  0.00     0.005 A 
HETATM   30  C   UNL     1       6.259   1.722   1.412  1.00  0.00     0.030 A 
BRANCH  27  31
HETATM   31  O   UNL     1       7.869  -2.096   1.225  1.00  0.00    -0.356 OA
HETATM   32  C   UNL     1       9.278  -2.292   1.205  1.00  0.00     0.210 C 
ENDBRANCH  27  31
ENDBRANCH   1  25
TORSDOF 2
