REMARK  5 active torsions:
REMARK  status: ('A' for Active; 'I' for Inactive)
REMARK    1  A    between atoms: C_2  and  O_3 
REMARK    2  A    between atoms: O_3  and  C_4 
REMARK    3  A    between atoms: C_5  and  C_6 
REMARK    4  A    between atoms: C_6  and  C_9 
REMARK       I    between atoms: C_9  and  N_10 
REMARK    5  A    between atoms: N_10  and  C_11 
ROOT
HETATM    1  C   UNL     1       4.005   5.135  -0.025  1.00  0.00     0.300 C 
HETATM    2  N   UNL     1       4.175   5.590  -1.335  1.00  0.00    -0.320 N 
HETATM    3  O   UNL     1       4.477   5.688   0.966  1.00  0.00    -0.266 OA
HETATM    4  H   UNL     1       3.758   5.004  -2.055  1.00  0.00     0.169 HD
ENDROOT
BRANCH   1   5
HETATM    5  C   UNL     1       3.131   3.841   0.029  1.00  0.00     0.352 C 
HETATM    6  F   UNL     1       2.769   3.511  -1.265  1.00  0.00    -0.190 F 
HETATM    7  F   UNL     1       1.930   4.107   0.631  1.00  0.00    -0.190 F 
BRANCH   5   8
HETATM    8  C   UNL     1       3.890   2.696   0.671  1.00  0.00     0.056 A 
HETATM    9  C   UNL     1       3.926   2.513   2.059  1.00  0.00     0.081 A 
HETATM   10  C   UNL     1       4.599   1.421   2.617  1.00  0.00     0.037 A 
HETATM   11  C   UNL     1       5.285   0.527   1.798  1.00  0.00     0.003 A 
HETATM   12  C   UNL     1       5.291   0.714   0.419  1.00  0.00     0.001 A 
HETATM   13  C   UNL     1       4.597   1.788  -0.141  1.00  0.00     0.017 A 
BRANCH   9  14
HETATM   14  O   UNL     1       3.221   3.356   2.872  1.00  0.00    -0.351 OA
BRANCH  14  15
HETATM   15  C   UNL     1       4.071   4.179   3.684  1.00  0.00     0.171 C 
HETATM   16  C   UNL     1       3.823   3.876   5.150  1.00  0.00     0.034 C 
ENDBRANCH  14  15
ENDBRANCH   9  14
ENDBRANCH   5   8
ENDBRANCH   1   5
BRANCH   2  17
HETATM   17  C   UNL     1       4.831   6.762  -1.762  1.00  0.00     0.053 A 
HETATM   18  C   UNL     1       5.362   7.739  -0.913  1.00  0.00     0.148 A 
HETATM   19  N   UNL     1       5.974   8.892  -1.301  1.00  0.00    -0.239 NA
HETATM   20  C   UNL     1       6.037   9.019  -2.638  1.00  0.00     0.156 A 
HETATM   21  C   UNL     1       5.567   8.136  -3.594  1.00  0.00     0.039 A 
HETATM   22  N   UNL     1       6.583  10.061  -3.327  1.00  0.00    -0.260 N 
HETATM   23  C   UNL     1       4.935   6.964  -3.145  1.00  0.00     0.048 A 
HETATM   24  C   UNL     1       5.903   8.741  -4.834  1.00  0.00     0.065 A 
HETATM   25  N   UNL     1       6.524   9.919  -4.668  1.00  0.00    -0.177 NA
HETATM   26  C   UNL     1       5.655   8.212  -6.198  1.00  0.00     0.073 C 
HETATM   27  H   UNL     1       7.011  10.889  -2.934  1.00  0.00     0.191 HD
ENDBRANCH   2  17
TORSDOF 5
