REMARK  11 active torsions:
REMARK  status: ('A' for Active; 'I' for Inactive)
REMARK    1  A    between atoms: O_2  and  C_3 
REMARK    2  A    between atoms: C_6  and  C_7 
REMARK    3  A    between atoms: C_7  and  N_8 
REMARK    4  A    between atoms: C_7  and  C_29 
REMARK       I    between atoms: N_8  and  C_9 
REMARK    5  A    between atoms: N_8  and  C_20 
REMARK    6  A    between atoms: C_9  and  C_10 
REMARK    7  A    between atoms: C_13  and  C_14 
REMARK       I    between atoms: C_14  and  N_15 
REMARK    8  A    between atoms: C_17  and  N_18 
REMARK    9  A    between atoms: C_20  and  C_21 
REMARK   10  A    between atoms: C_21  and  N_22 
REMARK       I    between atoms: C_29  and  N_30 
REMARK   11  A    between atoms: N_30  and  C_31 
ROOT
HETATM    1  N   UNL     1       5.404   3.842  -4.987  1.00  0.00    -0.328 N 
HETATM    2  C   UNL     1       6.656   3.695  -5.643  1.00  0.00     0.265 C 
HETATM    3  O   UNL     1       6.832   2.745  -6.409  1.00  0.00    -0.267 OA
ENDROOT
BRANCH   1   4
HETATM    4  C   UNL     1       4.415   2.756  -5.212  1.00  0.00     0.213 C 
BRANCH   4   5
HETATM    5  C   UNL     1       3.911   2.586  -6.643  1.00  0.00    -0.026 A 
HETATM    6  C   UNL     1       3.229   1.417  -7.022  1.00  0.00     0.012 A 
HETATM    7  C   UNL     1       2.689   1.274  -8.306  1.00  0.00     0.037 A 
HETATM    8  C   UNL     1       2.805   2.304  -9.235  1.00  0.00     0.068 A 
HETATM    9  C   UNL     1       3.461   3.478  -8.866  1.00  0.00     0.037 A 
HETATM   10  C   UNL     1       4.002   3.624  -7.586  1.00  0.00     0.012 A 
BRANCH   8  11
HETATM   11  O   UNL     1       2.321   2.299 -10.512  1.00  0.00    -0.356 OA
HETATM   12  C   UNL     1       1.761   1.079 -10.984  1.00  0.00     0.210 C 
ENDBRANCH   8  11
ENDBRANCH   4   5
BRANCH   4  13
HETATM   13  C   UNL     1       4.770   1.464  -4.440  1.00  0.00     0.245 C 
HETATM   14  N   UNL     1       5.891   0.791  -4.855  1.00  0.00    -0.354 N 
HETATM   15  H   UNL     1       6.333   1.103  -5.723  1.00  0.00     0.162 HD
HETATM   16  O   UNL     1       4.081   1.115  -3.480  1.00  0.00    -0.271 OA
BRANCH  14  17
HETATM   17  C   UNL     1       6.291  -0.481  -4.296  1.00  0.00     0.084 C 
HETATM   18  C   UNL     1       5.662  -1.656  -5.041  1.00  0.00     0.025 C 
HETATM   19  C   UNL     1       6.594  -2.807  -4.706  1.00  0.00     0.002 C 
HETATM   20  C   UNL     1       7.979  -2.182  -4.797  1.00  0.00     0.002 C 
HETATM   21  C   UNL     1       7.802  -0.719  -4.389  1.00  0.00     0.025 C 
ENDBRANCH  14  17
ENDBRANCH   4  13
ENDBRANCH   1   4
BRANCH   1  22
HETATM   22  C   UNL     1       5.239   4.627  -3.742  1.00  0.00     0.155 C 
BRANCH  22  23
HETATM   23  C   UNL     1       4.412   5.927  -3.902  1.00  0.00     0.255 C 
BRANCH  23  24
HETATM   24  N   UNL     1       3.014   5.693  -4.441  1.00  0.00    -0.066 N 
HETATM   25  H   UNL     1       3.080   5.037  -5.229  1.00  0.00     0.280 HD
HETATM   26  C   UNL     1       2.046   5.117  -3.401  1.00  0.00     0.261 C 
HETATM   27  C   UNL     1       0.676   4.891  -4.052  1.00  0.00     0.195 C 
HETATM   28  O   UNL     1       0.162   6.114  -4.588  1.00  0.00    -0.388 OA
HETATM   29  C   UNL     1       1.016   6.655  -5.601  1.00  0.00     0.195 C 
HETATM   30  C   UNL     1       2.406   6.969  -5.033  1.00  0.00     0.261 C 
ENDBRANCH  23  24
ENDBRANCH  22  23
ENDBRANCH   1  22
BRANCH   2  31
HETATM   31  C   UNL     1       7.728   4.627  -5.387  1.00  0.00     0.120 A 
HETATM   32  S   UNL     1       7.575   6.296  -5.676  1.00  0.00     0.020 SA
HETATM   33  N   UNL     1       9.101   6.715  -5.205  1.00  0.00    -0.203 NA
HETATM   34  C   UNL     1       9.808   5.597  -4.964  1.00  0.00     0.160 A 
HETATM   35  C   UNL     1       9.048   4.370  -5.070  1.00  0.00     0.085 A 
BRANCH  34  36
HETATM   36  C   UNL     1      11.244   5.680  -4.644  1.00  0.00     0.271 C 
HETATM   37  N   UNL     1      11.754   6.947  -4.558  1.00  0.00    -0.365 N 
HETATM   38  H   UNL     1      11.172   7.747  -4.772  1.00  0.00     0.159 HD
HETATM   39  H   UNL     1      12.745   7.065  -4.406  1.00  0.00     0.159 HD
HETATM   40  O   UNL     1      11.961   4.697  -4.476  1.00  0.00    -0.266 OA
ENDBRANCH  34  36
BRANCH  35  41
HETATM   41  N   UNL     1       9.551   3.125  -4.876  1.00  0.00    -0.396 N 
HETATM   42  H   UNL     1      10.570   3.015  -4.796  1.00  0.00     0.156 HD
HETATM   43  H   UNL     1       9.129   2.316  -5.334  1.00  0.00     0.156 HD
ENDBRANCH  35  41
ENDBRANCH   2  31
TORSDOF 11
