REMARK  7 active torsions:
REMARK  status: ('A' for Active; 'I' for Inactive)
REMARK    1  A    between atoms: C_7  and  C_8 
REMARK    2  A    between atoms: C_8  and  C_9 
REMARK       I    between atoms: C_9  and  N_10 
REMARK    3  A    between atoms: N_10  and  N_11 
REMARK       I    between atoms: N_11  and  C_12 
REMARK    4  A    between atoms: C_12  and  C_13 
REMARK    5  A    between atoms: C_23  and  O_24 
REMARK    6  A    between atoms: O_24  and  C_25 
REMARK    7  A    between atoms: C_25  and  C_26 
ROOT
HETATM    1  C   UNL     1       1.315   0.148  -0.279  1.00  0.00     0.068 C 
HETATM    2  C   UNL     1       2.781   0.135  -0.033  1.00  0.00     0.013 A 
HETATM    3  N   UNL     1       3.533   1.279  -0.124  1.00  0.00    -0.359 N 
HETATM    4  H   UNL     1       3.175   2.195  -0.358  1.00  0.00     0.166 HD
HETATM    5  C   UNL     1       4.852   1.014   0.158  1.00  0.00     0.043 A 
HETATM    6  C   UNL     1       4.948  -0.348   0.430  1.00  0.00     0.002 A 
HETATM    7  C   UNL     1       3.635  -0.907   0.297  1.00  0.00    -0.015 A 
HETATM    8  C   UNL     1       5.956   1.872   0.193  1.00  0.00     0.033 A 
HETATM    9  C   UNL     1       7.201   1.323   0.527  1.00  0.00     0.039 A 
HETATM   10  C   UNL     1       7.336  -0.034   0.815  1.00  0.00     0.070 A 
HETATM   11  C   UNL     1       6.215  -0.875   0.759  1.00  0.00     0.051 A 
ENDROOT
BRANCH   7  12
HETATM   12  C   UNL     1       3.258  -2.345   0.489  1.00  0.00     0.146 C 
BRANCH  12  13
HETATM   13  C   UNL     1       2.864  -3.054  -0.794  1.00  0.00     0.240 C 
HETATM   14  N   UNL     1       3.645  -2.785  -1.902  1.00  0.00    -0.267 N 
HETATM   15  H   UNL     1       4.196  -1.926  -1.968  1.00  0.00     0.190 HD
HETATM   16  O   UNL     1       1.957  -3.890  -0.831  1.00  0.00    -0.272 OA
BRANCH  14  17
HETATM   17  N   UNL     1       3.237  -3.348  -3.123  1.00  0.00    -0.263 N 
HETATM   18  C   UNL     1       3.469  -2.627  -4.278  1.00  0.00     0.270 C 
HETATM   19  O   UNL     1       4.106  -1.577  -4.289  1.00  0.00    -0.266 OA
HETATM   20  H   UNL     1       2.495  -4.041  -3.046  1.00  0.00     0.190 HD
BRANCH  18  21
HETATM   21  C   UNL     1       2.883  -3.170  -5.534  1.00  0.00     0.036 A 
HETATM   22  C   UNL     1       2.756  -2.309  -6.626  1.00  0.00     0.036 A 
HETATM   23  C   UNL     1       2.217  -2.811  -7.795  1.00  0.00     0.117 A 
HETATM   24  N   UNL     1       1.812  -4.090  -7.943  1.00  0.00    -0.273 NA
HETATM   25  C   UNL     1       1.961  -4.907  -6.879  1.00  0.00     0.117 A 
HETATM   26  C   UNL     1       2.489  -4.503  -5.665  1.00  0.00     0.036 A 
ENDBRANCH  18  21
ENDBRANCH  14  17
ENDBRANCH  12  13
ENDBRANCH   7  12
BRANCH  10  27
HETATM   27  O   UNL     1       8.497  -0.670   1.166  1.00  0.00    -0.347 OA
BRANCH  27  28
HETATM   28  C   UNL     1       9.662   0.141   1.327  1.00  0.00     0.214 C 
BRANCH  28  29
HETATM   29  C   UNL     1      10.842  -0.688   1.791  1.00  0.00    -0.034 A 
HETATM   30  C   UNL     1      10.911  -2.072   1.574  1.00  0.00     0.009 A 
HETATM   31  C   UNL     1      12.028  -2.802   1.988  1.00  0.00     0.001 A 
HETATM   32  C   UNL     1      13.093  -2.157   2.611  1.00  0.00     0.000 A 
HETATM   33  C   UNL     1      13.046  -0.781   2.820  1.00  0.00     0.001 A 
HETATM   34  C   UNL     1      11.929  -0.050   2.409  1.00  0.00     0.009 A 
ENDBRANCH  28  29
ENDBRANCH  27  28
ENDBRANCH  10  27
TORSDOF 7
