REMARK  7 active torsions:
REMARK  status: ('A' for Active; 'I' for Inactive)
REMARK    1  A    between atoms: C_5  and  C_6 
REMARK    2  A    between atoms: C_6  and  C_7 
REMARK    3  A    between atoms: C_7  and  S_8 
REMARK    4  A    between atoms: S_8  and  C_9 
REMARK    5  A    between atoms: C_15  and  C_16 
REMARK    6  A    between atoms: C_16  and  C_17 
REMARK    7  A    between atoms: C_25  and  N_26 
ROOT
HETATM    1  C   UNL     1       7.321   4.552  -1.237  1.00  0.00     0.116 A 
HETATM    2  N   UNL     1       8.609   4.275  -1.494  1.00  0.00    -0.203 NA
HETATM    3  S   UNL     1       9.484   5.712  -1.425  1.00  0.00     0.020 SA
HETATM    4  C   UNL     1       8.158   6.666  -1.080  1.00  0.00     0.080 A 
HETATM    5  C   UNL     1       7.049   5.916  -1.010  1.00  0.00     0.053 A 
HETATM    6  S   UNL     1       7.911   8.283  -0.799  1.00  0.00    -0.074 SA
HETATM    7  C   UNL     1       6.198   8.001  -0.593  1.00  0.00     0.084 A 
HETATM    8  C   UNL     1       5.884   6.646  -0.712  1.00  0.00     0.062 A 
ENDROOT
BRANCH   1   9
HETATM    9  S   UNL     1       6.135   3.255  -1.238  1.00  0.00    -0.101 SA
BRANCH   9  10
HETATM   10  C   UNL     1       7.163   1.863  -0.694  1.00  0.00     0.164 C 
BRANCH  10  11
HETATM   11  C   UNL     1       6.298   0.632  -0.537  1.00  0.00     0.169 C 
HETATM   12  O   UNL     1       5.630   0.444   0.480  1.00  0.00    -0.291 OA
BRANCH  11  13
HETATM   13  C   UNL     1       6.265  -0.389  -1.628  1.00  0.00     0.011 A 
HETATM   14  C   UNL     1       6.664  -0.107  -2.939  1.00  0.00     0.016 A 
HETATM   15  C   UNL     1       6.617  -1.105  -3.918  1.00  0.00     0.007 A 
HETATM   16  C   UNL     1       6.177  -2.395  -3.601  1.00  0.00    -0.062 A 
HETATM   17  C   UNL     1       6.101  -3.462  -4.654  1.00  0.00     0.048 C 
HETATM   18  C   UNL     1       5.757  -2.669  -2.295  1.00  0.00     0.007 A 
HETATM   19  C   UNL     1       5.801  -1.674  -1.316  1.00  0.00     0.016 A 
ENDBRANCH  11  13
ENDBRANCH  10  11
ENDBRANCH   9  10
ENDBRANCH   1   9
BRANCH   8  20
HETATM   20  N   UNL     1       4.652   6.116  -0.551  1.00  0.00    -0.397 N 
HETATM   21  H   UNL     1       3.873   6.623  -0.138  1.00  0.00     0.156 HD
HETATM   22  H   UNL     1       4.516   5.104  -0.520  1.00  0.00     0.156 HD
ENDBRANCH   8  20
BRANCH   7  23
HETATM   23  C   UNL     1       5.369   9.163  -0.311  1.00  0.00     0.201 C 
HETATM   24  O   UNL     1       5.718  10.066   0.450  1.00  0.00    -0.286 OA
BRANCH  23  25
HETATM   25  C   UNL     1       4.035   9.305  -0.967  1.00  0.00     0.015 A 
HETATM   26  C   UNL     1       3.759   8.758  -2.226  1.00  0.00     0.016 A 
HETATM   27  C   UNL     1       2.503   8.938  -2.812  1.00  0.00     0.007 A 
HETATM   28  C   UNL     1       1.514   9.683  -2.160  1.00  0.00    -0.062 A 
HETATM   29  C   UNL     1       0.162   9.882  -2.781  1.00  0.00     0.048 C 
HETATM   30  C   UNL     1       1.794  10.239  -0.906  1.00  0.00     0.007 A 
HETATM   31  C   UNL     1       3.047  10.057  -0.316  1.00  0.00     0.016 A 
ENDBRANCH  23  25
ENDBRANCH   7  23
TORSDOF 7
