REMARK  2 active torsions:
REMARK  status: ('A' for Active; 'I' for Inactive)
REMARK    1  A    between atoms: C_4  and  C_5 
REMARK       I    between atoms: N_12  and  C_13 
REMARK    2  A    between atoms: C_13  and  C_14 
ROOT
HETATM    1  C   UNL     1       2.047 -10.091  -2.196  1.00  0.00     0.097 A 
HETATM    2  N   UNL     1       1.168 -10.785  -2.945  1.00  0.00    -0.173 NA
HETATM    3  N   UNL     1       0.552  -9.867  -3.706  1.00  0.00    -0.281 N 
HETATM    4  H   UNL     1      -0.178 -10.178  -4.340  1.00  0.00     0.189 HD
HETATM    5  C   UNL     1       0.996  -8.609  -3.472  1.00  0.00     0.039 A 
HETATM    6  C   UNL     1       1.983  -8.704  -2.517  1.00  0.00     0.015 A 
HETATM    7  C   UNL     1       2.703  -7.520  -1.976  1.00  0.00     0.168 C 
HETATM    8  N   UNL     1       1.945  -6.289  -2.298  1.00  0.00    -0.347 N 
HETATM    9  C   UNL     1       2.033  -5.108  -1.561  1.00  0.00     0.226 C 
HETATM   10  O   UNL     1       1.678  -4.033  -2.048  1.00  0.00    -0.273 OA
HETATM   11  C   UNL     1       1.422  -6.195  -3.682  1.00  0.00     0.132 C 
HETATM   12  C   UNL     1       0.466  -7.352  -4.045  1.00  0.00     0.079 C 
ENDROOT
BRANCH   9  13
HETATM   13  C   UNL     1       2.618  -5.177  -0.146  1.00  0.00     0.106 C 
HETATM   14  C   UNL     1       2.850  -3.782   0.436  1.00  0.00     0.190 C 
HETATM   15  O   UNL     1       1.662  -3.070   0.787  1.00  0.00    -0.350 OA
HETATM   16  C   UNL     1       0.729  -3.793   1.472  1.00  0.00     0.075 A 
HETATM   17  C   UNL     1       0.720  -5.185   1.526  1.00  0.00    -0.024 A 
HETATM   18  C   UNL     1      -0.269  -3.058   2.111  1.00  0.00     0.037 A 
HETATM   19  C   UNL     1       1.762  -5.998   0.818  1.00  0.00     0.057 C 
HETATM   20  C   UNL     1      -0.276  -5.835   2.271  1.00  0.00     0.010 A 
HETATM   21  C   UNL     1      -1.264  -5.099   2.925  1.00  0.00     0.001 A 
HETATM   22  C   UNL     1      -1.264  -3.709   2.840  1.00  0.00     0.003 A 
ENDBRANCH   9  13
BRANCH   1  23
HETATM   23  C   UNL     1       2.860 -10.766  -1.181  1.00  0.00    -0.005 A 
HETATM   24  C   UNL     1       4.165 -10.351  -0.888  1.00  0.00     0.014 A 
HETATM   25  C   UNL     1       4.904 -10.988   0.114  1.00  0.00     0.001 A 
HETATM   26  C   UNL     1       4.350 -12.051   0.825  1.00  0.00     0.000 A 
HETATM   27  C   UNL     1       3.060 -12.485   0.531  1.00  0.00     0.001 A 
HETATM   28  C   UNL     1       2.321 -11.847  -0.467  1.00  0.00     0.014 A 
ENDBRANCH   1  23
TORSDOF 2
