REMARK  5 active torsions:
REMARK  status: ('A' for Active; 'I' for Inactive)
REMARK    1  A    between atoms: C_2  and  O_3 
REMARK    2  A    between atoms: O_3  and  C_4 
REMARK    3  A    between atoms: C_7  and  C_8 
REMARK    4  A    between atoms: C_12  and  C_13 
REMARK       I    between atoms: C_13  and  N_14 
REMARK    5  A    between atoms: N_14  and  C_15 
ROOT
HETATM    1  C   UNL     1       8.748   1.748   0.943  1.00  0.00     0.068 A 
HETATM    2  N   UNL     1       9.054   3.069   0.880  1.00  0.00    -0.248 NA
HETATM    3  C   UNL     1      10.331   3.473   1.000  1.00  0.00     0.068 A 
HETATM    4  C   UNL     1      11.403   2.584   1.185  1.00  0.00     0.008 A 
HETATM    5  C   UNL     1      11.067   1.214   1.189  1.00  0.00     0.047 A 
HETATM    6  C   UNL     1       9.740   0.793   1.085  1.00  0.00     0.050 A 
HETATM    7  C   UNL     1      10.594   4.836   0.957  1.00  0.00     0.032 A 
HETATM    8  C   UNL     1      11.886   5.347   1.105  1.00  0.00     0.002 A 
HETATM    9  C   UNL     1      12.947   4.480   1.311  1.00  0.00     0.001 A 
HETATM   10  C   UNL     1      12.710   3.107   1.356  1.00  0.00     0.015 A 
ENDROOT
BRANCH   5  11
HETATM   11  C   UNL     1      12.070   0.155   1.412  1.00  0.00     0.271 C 
HETATM   12  N   UNL     1      13.040  -0.128   0.491  1.00  0.00    -0.150 N 
HETATM   13  H   UNL     1      13.722  -0.821   0.760  1.00  0.00     0.188 HD
HETATM   14  O   UNL     1      12.009  -0.478   2.467  1.00  0.00    -0.267 OA
BRANCH  12  15
HETATM   15  C   UNL     1      13.187   0.337  -0.780  1.00  0.00     0.747 A 
HETATM   16  N   UNL     1      14.231  -0.025  -1.530  1.00  0.00     0.020 NA
HETATM   17  N   UNL     1      14.001   0.651  -2.666  1.00  0.00    -0.255 N 
HETATM   18  H   UNL     1      14.657   0.576  -3.436  1.00  0.00     0.190 HD
HETATM   19  C   UNL     1      12.852   1.367  -2.581  1.00  0.00     0.246 A 
HETATM   20  N   UNL     1      12.312   1.178  -1.401  1.00  0.00    -0.055 NA
ENDBRANCH  12  15
ENDBRANCH   5  11
BRANCH   1  21
HETATM   21  C   UNL     1       7.303   1.423   0.860  1.00  0.00    -0.007 A 
HETATM   22  C   UNL     1       6.395   2.324   0.275  1.00  0.00     0.016 A 
HETATM   23  C   UNL     1       5.027   2.039   0.190  1.00  0.00     0.037 A 
HETATM   24  C   UNL     1       4.520   0.839   0.683  1.00  0.00     0.068 A 
HETATM   25  C   UNL     1       5.392  -0.063   1.286  1.00  0.00     0.037 A 
HETATM   26  C   UNL     1       6.763   0.229   1.374  1.00  0.00     0.016 A 
BRANCH  24  27
HETATM   27  O   UNL     1       3.172   0.676   0.532  1.00  0.00    -0.352 OA
BRANCH  27  28
HETATM   28  C   UNL     1       2.648  -0.626   0.786  1.00  0.00     0.171 C 
HETATM   29  C   UNL     1       1.184  -0.628   0.385  1.00  0.00     0.034 C 
ENDBRANCH  27  28
ENDBRANCH  24  27
ENDBRANCH   1  21
TORSDOF 5
