REMARK  6 active torsions:
REMARK  status: ('A' for Active; 'I' for Inactive)
REMARK    1  A    between atoms: O_2  and  C_3 
REMARK    2  A    between atoms: C_5  and  C_6 
REMARK    3  A    between atoms: N_8  and  C_9 
REMARK    4  A    between atoms: C_16  and  C_17 
REMARK       I    between atoms: C_17  and  N_18 
REMARK    5  A    between atoms: N_18  and  N_19 
REMARK       I    between atoms: N_19  and  C_20 
REMARK    6  A    between atoms: C_20  and  C_21 
ROOT
HETATM    1  C   UNL     1       4.408  -0.877  -4.397  1.00  0.00     0.105 A 
HETATM    2  N   UNL     1       4.405   0.388  -4.847  1.00  0.00    -0.166 NA
HETATM    3  N   UNL     1       5.098   0.377  -6.005  1.00  0.00    -0.244 N 
HETATM    4  C   UNL     1       5.559  -0.885  -6.294  1.00  0.00     0.138 A 
HETATM    5  C   UNL     1       5.148  -1.727  -5.273  1.00  0.00     0.082 A 
ENDROOT
BRANCH   5   6
HETATM    6  C   UNL     1       5.466  -3.141  -5.147  1.00  0.00     0.274 C 
HETATM    7  N   UNL     1       5.817  -3.761  -6.332  1.00  0.00    -0.263 N 
HETATM    8  H   UNL     1       5.677  -3.326  -7.241  1.00  0.00     0.190 HD
HETATM    9  O   UNL     1       5.430  -3.757  -4.084  1.00  0.00    -0.266 OA
BRANCH   7  10
HETATM   10  N   UNL     1       5.994  -5.151  -6.339  1.00  0.00    -0.262 N 
HETATM   11  C   UNL     1       5.948  -5.812  -7.549  1.00  0.00     0.286 C 
HETATM   12  O   UNL     1       5.833  -5.199  -8.611  1.00  0.00    -0.264 OA
HETATM   13  H   UNL     1       5.977  -5.623  -5.439  1.00  0.00     0.190 HD
BRANCH  11  14
HETATM   14  C   UNL     1       6.037  -7.252  -7.485  1.00  0.00     0.102 A 
HETATM   15  N   UNL     1       5.987  -8.025  -8.628  1.00  0.00    -0.361 N 
HETATM   16  H   UNL     1       5.887  -7.641  -9.560  1.00  0.00     0.165 HD
HETATM   17  C   UNL     1       6.094  -9.351  -8.311  1.00  0.00     0.088 A 
HETATM   18  C   UNL     1       6.215  -9.449  -6.945  1.00  0.00     0.019 A 
HETATM   19  C   UNL     1       6.179  -8.132  -6.423  1.00  0.00     0.036 A 
ENDBRANCH  11  14
ENDBRANCH   7  10
ENDBRANCH   5   6
BRANCH   1  20
HETATM   20  C   UNL     1       3.690  -1.194  -3.158  1.00  0.00    -0.002 A 
HETATM   21  C   UNL     1       2.929  -2.363  -3.029  1.00  0.00     0.050 A 
HETATM   22  C   UNL     1       2.235  -2.647  -1.846  1.00  0.00     0.069 A 
HETATM   23  C   UNL     1       2.281  -1.740  -0.787  1.00  0.00     0.037 A 
HETATM   24  C   UNL     1       3.020  -0.562  -0.908  1.00  0.00     0.004 A 
HETATM   25  C   UNL     1       3.719  -0.291  -2.085  1.00  0.00     0.014 A 
BRANCH  22  26
HETATM   26  O   UNL     1       1.545  -3.829  -1.859  1.00  0.00    -0.356 OA
HETATM   27  C   UNL     1       0.963  -4.243  -0.629  1.00  0.00     0.210 C 
ENDBRANCH  22  26
ENDBRANCH   1  20
BRANCH   3  28
HETATM   28  C   UNL     1       5.283   1.571  -6.759  1.00  0.00     0.058 A 
HETATM   29  C   UNL     1       4.759   2.779  -6.273  1.00  0.00     0.031 A 
HETATM   30  C   UNL     1       4.930   3.963  -6.995  1.00  0.00     0.002 A 
HETATM   31  C   UNL     1       5.619   3.949  -8.206  1.00  0.00     0.000 A 
HETATM   32  C   UNL     1       6.140   2.753  -8.697  1.00  0.00     0.002 A 
HETATM   33  C   UNL     1       5.975   1.564  -7.978  1.00  0.00     0.031 A 
ENDBRANCH   3  28
TORSDOF 6
