REMARK  5 active torsions:
REMARK  status: ('A' for Active; 'I' for Inactive)
REMARK    1  A    between atoms: O_2  and  C_3 
REMARK    2  A    between atoms: C_6  and  C_7 
REMARK    3  A    between atoms: C_7  and  C_8 
REMARK       I    between atoms: C_8  and  N_9 
REMARK    4  A    between atoms: N_9  and  C_10 
REMARK    5  A    between atoms: C_13  and  C_14 
ROOT
HETATM    1  C   UNL     1       6.398   2.030   1.212  1.00  0.00     0.034 A 
HETATM    2  C   UNL     1       6.877   0.861   0.621  1.00  0.00     0.030 A 
HETATM    3  C   UNL     1       6.029  -0.236   0.422  1.00  0.00     0.017 A 
HETATM    4  C   UNL     1       4.685  -0.179   0.805  1.00  0.00     0.010 A 
HETATM    5  C   UNL     1       4.209   0.976   1.435  1.00  0.00     0.017 A 
HETATM    6  C   UNL     1       5.062   2.072   1.632  1.00  0.00     0.030 A 
ENDROOT
BRANCH   1   7
HETATM    7  N   UNL     1       7.170   3.200   1.377  1.00  0.00    -0.327 N 
HETATM    8  C   UNL     1       8.502   3.380   1.039  1.00  0.00     0.226 C 
HETATM    9  O   UNL     1       9.283   2.508   0.669  1.00  0.00    -0.273 OA
HETATM   10  H   UNL     1       6.700   3.995   1.793  1.00  0.00     0.169 HD
BRANCH   8  11
HETATM   11  C   UNL     1       8.950   4.830   1.138  1.00  0.00     0.141 C 
BRANCH  11  12
HETATM   12  C   UNL     1       9.174   5.329   2.544  1.00  0.00    -0.049 A 
HETATM   13  C   UNL     1       9.825   4.546   3.506  1.00  0.00     0.010 A 
HETATM   14  C   UNL     1      10.082   5.049   4.787  1.00  0.00     0.037 A 
HETATM   15  C   UNL     1       9.708   6.350   5.119  1.00  0.00     0.068 A 
HETATM   16  C   UNL     1       9.073   7.140   4.159  1.00  0.00     0.037 A 
HETATM   17  C   UNL     1       8.811   6.640   2.882  1.00  0.00     0.010 A 
BRANCH  15  18
HETATM   18  O   UNL     1       9.911   6.966   6.323  1.00  0.00    -0.356 OA
HETATM   19  C   UNL     1      10.577   6.211   7.327  1.00  0.00     0.210 C 
ENDBRANCH  15  18
ENDBRANCH  11  12
ENDBRANCH   8  11
ENDBRANCH   1   7
BRANCH   4  20
HETATM   20  C   UNL     1       3.812  -1.349   0.499  1.00  0.00     0.141 A 
HETATM   21  N   UNL     1       4.325  -2.526   0.322  1.00  0.00    -0.230 NA
HETATM   22  C   UNL     1       3.470  -3.590  -0.011  1.00  0.00     0.074 A 
HETATM   23  C   UNL     1       2.092  -3.427  -0.167  1.00  0.00     0.061 A 
HETATM   24  C   UNL     1       4.018  -4.858  -0.216  1.00  0.00     0.032 A 
HETATM   25  C   UNL     1       1.546  -2.077   0.039  1.00  0.00     0.259 A 
HETATM   26  C   UNL     1       1.266  -4.498  -0.524  1.00  0.00     0.019 A 
HETATM   27  O   UNL     1       0.355  -1.823  -0.094  1.00  0.00    -0.267 OA
HETATM   28  N   UNL     1       2.460  -1.111   0.377  1.00  0.00    -0.307 N 
HETATM   29  H   UNL     1       2.075  -0.183   0.453  1.00  0.00     0.170 HD
HETATM   30  C   UNL     1       1.828  -5.757  -0.728  1.00  0.00     0.001 A 
HETATM   31  C   UNL     1       3.203  -5.937  -0.573  1.00  0.00     0.002 A 
ENDBRANCH   4  20
TORSDOF 5
