REMARK  6 active torsions:
REMARK  status: ('A' for Active; 'I' for Inactive)
REMARK    1  A    between atoms: C_2  and  N_3 
REMARK       I    between atoms: N_3  and  C_4 
REMARK    2  A    between atoms: C_4  and  C_5 
REMARK    3  A    between atoms: C_6  and  N_7 
REMARK       I    between atoms: N_7  and  C_8 
REMARK    4  A    between atoms: C_8  and  C_9 
REMARK    5  A    between atoms: C_11  and  O_12 
REMARK    6  A    between atoms: O_12  and  C_13 
ROOT
HETATM    1  N   UNL     1       3.983   1.264   1.272  1.00  0.00    -0.322 N 
HETATM    2  C   UNL     1       3.780   2.575   1.668  1.00  0.00     0.256 C 
HETATM    3  O   UNL     1       3.150   2.936   2.656  1.00  0.00    -0.267 OA
HETATM    4  H   UNL     1       4.378   1.105   0.351  1.00  0.00     0.169 HD
ENDROOT
BRANCH   1   5
HETATM    5  C   UNL     1       3.666   0.085   2.002  1.00  0.00     0.050 A 
HETATM    6  C   UNL     1       3.866  -1.181   1.410  1.00  0.00     0.058 A 
HETATM    7  C   UNL     1       3.651  -2.360   2.141  1.00  0.00     0.019 A 
HETATM    8  C   UNL     1       3.202  -2.297   3.457  1.00  0.00     0.001 A 
HETATM    9  C   UNL     1       2.977  -1.057   4.045  1.00  0.00     0.002 A 
HETATM   10  C   UNL     1       3.212   0.122   3.326  1.00  0.00     0.030 A 
BRANCH   6  11
HETATM   11  C   UNL     1       4.305  -1.355   0.002  1.00  0.00     0.253 C 
HETATM   12  N   UNL     1       3.666  -0.551  -0.924  1.00  0.00    -0.357 N 
HETATM   13  H   UNL     1       2.798  -0.113  -0.629  1.00  0.00     0.162 HD
HETATM   14  O   UNL     1       5.151  -2.192  -0.286  1.00  0.00    -0.268 OA
BRANCH  12  15
HETATM   15  C   UNL     1       3.849  -0.771  -2.346  1.00  0.00     0.118 C 
HETATM   16  C   UNL     1       5.175  -0.228  -2.848  1.00  0.00     0.026 C 
ENDBRANCH  12  15
ENDBRANCH   6  11
ENDBRANCH   1   5
BRANCH   2  17
HETATM   17  C   UNL     1       4.352   3.632   0.783  1.00  0.00     0.037 A 
HETATM   18  C   UNL     1       3.819   4.919   0.880  1.00  0.00     0.075 A 
HETATM   19  C   UNL     1       4.371   5.916   0.101  1.00  0.00     0.165 A 
HETATM   20  N   UNL     1       5.391   5.720  -0.759  1.00  0.00    -0.237 NA
HETATM   21  C   UNL     1       5.898   4.471  -0.826  1.00  0.00     0.120 A 
HETATM   22  C   UNL     1       5.425   3.403  -0.081  1.00  0.00     0.036 A 
BRANCH  19  23
HETATM   23  O   UNL     1       3.836   7.181   0.247  1.00  0.00    -0.329 OA
BRANCH  23  24
HETATM   24  C   UNL     1       4.479   8.240  -0.492  1.00  0.00     0.130 C 
HETATM   25  C   UNL     1       4.107   8.375  -1.992  1.00  0.00     0.032 C 
HETATM   26  C   UNL     1       4.110   9.901  -1.794  1.00  0.00     0.005 C 
HETATM   27  C   UNL     1       3.836   9.640  -0.302  1.00  0.00     0.032 C 
ENDBRANCH  23  24
ENDBRANCH  19  23
ENDBRANCH   2  17
TORSDOF 6
