REMARK  3 active torsions:
REMARK  status: ('A' for Active; 'I' for Inactive)
REMARK    1  A    between atoms: C_6  and  N_7 
REMARK       I    between atoms: N_7  and  C_8 
REMARK    2  A    between atoms: C_8  and  C_9 
REMARK    3  A    between atoms: C_9  and  C_10 
ROOT
HETATM    1  C   UNL     1       5.498   1.904  -0.169  1.00  0.00     0.286 C 
HETATM    2  N   UNL     1       5.642   1.675   1.342  1.00  0.00    -0.056 N 
HETATM    3  H   UNL     1       4.735   1.279   1.672  1.00  0.00     0.278 HD
HETATM    4  H   UNL     1       6.333   0.939   1.531  1.00  0.00     0.278 HD
HETATM    5  C   UNL     1       5.894   2.890   2.185  1.00  0.00     0.209 C 
HETATM    6  C   UNL     1       4.900   4.008   1.797  1.00  0.00     0.115 C 
HETATM    7  N   UNL     1       4.909   4.275   0.363  1.00  0.00    -0.353 N 
HETATM    8  C   UNL     1       4.950   3.286  -0.581  1.00  0.00     0.249 C 
HETATM    9  O   UNL     1       4.607   3.524  -1.736  1.00  0.00    -0.271 OA
HETATM   10  C   UNL     1       7.354   3.322   2.061  1.00  0.00     0.035 C 
HETATM   11  C   UNL     1       7.608   4.590   2.876  1.00  0.00     0.002 C 
HETATM   12  C   UNL     1       6.653   5.717   2.485  1.00  0.00     0.002 C 
HETATM   13  C   UNL     1       5.189   5.287   2.588  1.00  0.00     0.027 C 
HETATM   14  H   UNL     1       4.457   5.123   0.025  1.00  0.00     0.163 HD
ENDROOT
BRANCH   1  15
HETATM   15  C   UNL     1       4.605   0.814  -0.787  1.00  0.00     0.146 C 
BRANCH  15  16
HETATM   16  C   UNL     1       3.254   0.939  -0.122  1.00  0.00     0.224 C 
HETATM   17  N   UNL     1       2.224   1.306  -0.947  1.00  0.00    -0.327 N 
HETATM   18  H   UNL     1       2.359   1.240  -1.952  1.00  0.00     0.169 HD
HETATM   19  O   UNL     1       3.226   0.824   1.106  1.00  0.00    -0.273 OA
BRANCH  17  20
HETATM   20  C   UNL     1       0.975   1.834  -0.546  1.00  0.00     0.035 A 
HETATM   21  C   UNL     1       0.651   2.147   0.777  1.00  0.00     0.037 A 
HETATM   22  C   UNL     1      -0.576   2.752   1.108  1.00  0.00    -0.054 A 
HETATM   23  C   UNL     1      -1.517   3.004   0.094  1.00  0.00    -0.056 A 
HETATM   24  C   UNL     1      -0.859   3.091   2.547  1.00  0.00     0.049 C 
HETATM   25  C   UNL     1      -2.843   3.650   0.389  1.00  0.00     0.049 C 
HETATM   26  C   UNL     1      -1.190   2.686  -1.231  1.00  0.00     0.009 A 
HETATM   27  C   UNL     1       0.044   2.112  -1.549  1.00  0.00     0.030 A 
ENDBRANCH  17  20
ENDBRANCH  15  16
ENDBRANCH   1  15
TORSDOF 3
