REMARK  5 active torsions:
REMARK  status: ('A' for Active; 'I' for Inactive)
REMARK    1  A    between atoms: C_3  and  O_4 
REMARK    2  A    between atoms: C_6  and  N_7 
REMARK       I    between atoms: N_7  and  C_8 
REMARK    3  A    between atoms: C_8  and  C_9 
REMARK    4  A    between atoms: C_12  and  C_13 
REMARK    5  A    between atoms: C_18  and  C_19 
ROOT
HETATM    1  C   UNL     1      -3.587  -1.339  -0.079  1.00  0.00     0.096 A 
HETATM    2  C   UNL     1      -3.170  -0.072  -0.446  1.00  0.00     0.138 A 
HETATM    3  N   UNL     1      -4.251   0.750  -0.245  1.00  0.00    -0.240 N 
HETATM    4  C   UNL     1      -4.269   2.176  -0.503  1.00  0.00     0.221 C 
HETATM    5  C   UNL     1      -2.834   2.712  -0.652  1.00  0.00     0.066 C 
HETATM    6  C   UNL     1      -1.884   1.782  -1.427  1.00  0.00     0.118 C 
HETATM    7  N   UNL     1      -1.994   0.408  -0.932  1.00  0.00    -0.365 N 
HETATM    8  N   UNL     1      -5.326   0.120   0.254  1.00  0.00    -0.181 NA
HETATM    9  C   UNL     1      -4.937  -1.158   0.306  1.00  0.00     0.160 A 
HETATM   10  H   UNL     1      -1.355  -0.234  -1.408  1.00  0.00     0.161 HD
ENDROOT
BRANCH   1  11
HETATM   11  C   UNL     1      -2.841  -2.587  -0.084  1.00  0.00     0.261 C 
HETATM   12  N   UNL     1      -1.480  -2.399   0.071  1.00  0.00    -0.323 N 
HETATM   13  H   UNL     1      -1.202  -1.456   0.319  1.00  0.00     0.169 HD
HETATM   14  O   UNL     1      -3.419  -3.662  -0.174  1.00  0.00    -0.267 OA
BRANCH  12  15
HETATM   15  C   UNL     1      -0.459  -3.366   0.012  1.00  0.00     0.037 A 
HETATM   16  C   UNL     1      -0.659  -4.685  -0.394  1.00  0.00     0.066 A 
HETATM   17  C   UNL     1       0.422  -5.565  -0.450  1.00  0.00     0.067 A 
HETATM   18  C   UNL     1       1.704  -5.156  -0.101  1.00  0.00     0.036 A 
HETATM   19  C   UNL     1       1.909  -3.840   0.306  1.00  0.00     0.005 A 
HETATM   20  C   UNL     1       0.834  -2.948   0.357  1.00  0.00     0.029 A 
BRANCH  17  21
HETATM   21  O   UNL     1       0.180  -6.842  -0.868  1.00  0.00    -0.361 OA
HETATM   22  H   UNL     1       1.012  -7.340  -0.856  1.00  0.00     0.217 HD
ENDBRANCH  17  21
ENDBRANCH  12  15
ENDBRANCH   1  11
BRANCH   4  23
HETATM   23  C   UNL     1      -5.167   2.494  -1.679  1.00  0.00     0.409 C 
HETATM   24  F   UNL     1      -4.901   1.764  -2.779  1.00  0.00    -0.169 F 
HETATM   25  F   UNL     1      -6.476   2.326  -1.385  1.00  0.00    -0.169 F 
HETATM   26  F   UNL     1      -5.025   3.801  -2.028  1.00  0.00    -0.169 F 
ENDBRANCH   4  23
BRANCH   6  27
HETATM   27  C   UNL     1      -1.966   1.881  -2.942  1.00  0.00    -0.035 A 
HETATM   28  C   UNL     1      -1.533   3.067  -3.569  1.00  0.00     0.012 A 
HETATM   29  C   UNL     1      -1.568   3.200  -4.959  1.00  0.00     0.043 A 
HETATM   30  C   UNL     1      -2.034   2.150  -5.737  1.00  0.00     0.116 A 
HETATM   31  F   UNL     1      -2.066   2.278  -7.070  1.00  0.00    -0.206 F 
HETATM   32  C   UNL     1      -2.465   0.969  -5.151  1.00  0.00     0.043 A 
HETATM   33  C   UNL     1      -2.427   0.833  -3.761  1.00  0.00     0.012 A 
ENDBRANCH   6  27
TORSDOF 5
