REMARK  7 active torsions:
REMARK  status: ('A' for Active; 'I' for Inactive)
REMARK    1  A    between atoms: C_2  and  C_3 
REMARK    2  A    between atoms: C_3  and  N_4 
REMARK    3  A    between atoms: N_4  and  C_7 
REMARK    4  A    between atoms: C_12  and  N_13 
REMARK       I    between atoms: N_13  and  C_14 
REMARK    5  A    between atoms: C_14  and  C_16 
REMARK    6  A    between atoms: C_20  and  C_22 
REMARK       I    between atoms: N_26  and  C_27 
REMARK       I    between atoms: C_27  and  N_29 
REMARK    7  A    between atoms: N_29  and  C_30 
ROOT
HETATM    1  C   UNL     1       9.728  -5.581  -0.500  1.00  0.00     0.037 A 
HETATM    2  C   UNL     1       9.165  -5.863   0.744  1.00  0.00     0.029 A 
HETATM    3  C   UNL     1       9.247  -4.929   1.782  1.00  0.00     0.004 A 
HETATM    4  C   UNL     1       9.885  -3.704   1.579  1.00  0.00     0.023 A 
HETATM    5  C   UNL     1      10.440  -3.410   0.333  1.00  0.00     0.046 A 
HETATM    6  C   UNL     1      10.363  -4.350  -0.701  1.00  0.00     0.052 A 
HETATM    7  C   UNL     1      11.055  -2.140   0.086  1.00  0.00     0.099 C 
HETATM    8  N   UNL     1      11.519  -1.105  -0.161  1.00  0.00    -0.191 NA
ENDROOT
BRANCH   1   9
HETATM    9  N   UNL     1       9.659  -6.444  -1.604  1.00  0.00    -0.309 N 
HETATM   10  C   UNL     1       9.326  -7.776  -1.634  1.00  0.00     0.323 C 
HETATM   11  N   UNL     1       9.187  -8.278  -2.929  1.00  0.00    -0.325 N 
HETATM   12  O   UNL     1       9.223  -8.487  -0.640  1.00  0.00    -0.247 OA
HETATM   13  C   UNL     1       8.510  -7.578  -4.034  1.00  0.00     0.122 C 
HETATM   14  C   UNL     1       9.047  -9.721  -3.101  1.00  0.00     0.128 C 
HETATM   15  C   UNL     1       8.415  -8.641  -5.134  1.00  0.00     0.032 C 
HETATM   16  C   UNL     1       8.169  -9.910  -4.332  1.00  0.00     0.022 C 
HETATM   17  H   UNL     1      10.140  -6.138  -2.433  1.00  0.00     0.170 HD
BRANCH  13  18
HETATM   18  C   UNL     1       9.146  -6.292  -4.512  1.00  0.00    -0.034 A 
HETATM   19  C   UNL     1      10.475  -6.220  -4.955  1.00  0.00     0.009 A 
HETATM   20  C   UNL     1      11.044  -4.989  -5.303  1.00  0.00     0.002 A 
HETATM   21  C   UNL     1      10.298  -3.811  -5.211  1.00  0.00     0.017 A 
HETATM   22  C   UNL     1       8.972  -3.869  -4.780  1.00  0.00     0.033 A 
HETATM   23  C   UNL     1       8.400  -5.104  -4.448  1.00  0.00     0.026 A 
BRANCH  22  24
HETATM   24  C   UNL     1       8.115  -2.662  -4.659  1.00  0.00     0.257 C 
HETATM   25  N   UNL     1       8.721  -1.568  -4.080  1.00  0.00    -0.301 N 
HETATM   26  H   UNL     1       9.668  -1.607  -3.736  1.00  0.00     0.171 HD
HETATM   27  O   UNL     1       6.948  -2.760  -5.016  1.00  0.00    -0.267 OA
BRANCH  25  28
HETATM   28  C   UNL     1       8.003  -0.438  -3.798  1.00  0.00     0.174 A 
HETATM   29  N   UNL     1       6.758  -0.158  -4.093  1.00  0.00    -0.228 NA
HETATM   30  C   UNL     1       6.424   1.066  -3.583  1.00  0.00     0.050 A 
HETATM   31  C   UNL     1       5.049   1.608  -3.746  1.00  0.00     0.062 C 
HETATM   32  C   UNL     1       7.426   1.706  -2.886  1.00  0.00     0.013 A 
HETATM   33  C   UNL     1       4.999   3.102  -3.384  1.00  0.00     0.039 C 
HETATM   34  C   UNL     1       5.786   3.395  -2.089  1.00  0.00     0.191 C 
HETATM   35  C   UNL     1       7.294   3.037  -2.235  1.00  0.00     0.081 C 
HETATM   36  S   UNL     1       8.846   0.760  -2.906  1.00  0.00    -0.055 SA
BRANCH  34  37
HETATM   37  N   UNL     1       5.661   4.862  -1.734  1.00  0.00    -0.071 N 
HETATM   38  H   UNL     1       5.911   5.438  -2.551  1.00  0.00     0.277 HD
HETATM   39  H   UNL     1       6.358   5.089  -1.011  1.00  0.00     0.277 HD
BRANCH  37  40
HETATM   40  C   UNL     1       4.317   5.290  -1.219  1.00  0.00     0.232 C 
BRANCH  40  41
HETATM   41  C   UNL     1       4.377   6.764  -0.843  1.00  0.00     0.023 C 
HETATM   42  C   UNL     1       3.023   7.259  -0.356  1.00  0.00     0.007 C 
ENDBRANCH  40  41
ENDBRANCH  37  40
ENDBRANCH  34  37
ENDBRANCH  25  28
ENDBRANCH  22  24
ENDBRANCH  13  18
ENDBRANCH   1   9
TORSDOF 7
