REMARK  7 active torsions:
REMARK  status: ('A' for Active; 'I' for Inactive)
REMARK    1  A    between atoms: C_5  and  O_6 
REMARK    2  A    between atoms: O_6  and  C_7 
REMARK    3  A    between atoms: C_7  and  C_8 
REMARK    4  A    between atoms: C_9  and  C_10 
REMARK    5  A    between atoms: C_10  and  N_11 
REMARK       I    between atoms: N_11  and  C_12 
REMARK    6  A    between atoms: C_12  and  C_13 
REMARK    7  A    between atoms: C_17  and  C_18 
ROOT
HETATM    1  N   UNL     1       2.922  -8.396  -0.771  1.00  0.00    -0.345 N 
HETATM    2  C   UNL     1       3.986  -8.961  -0.113  1.00  0.00     0.270 C 
HETATM    3  O   UNL     1       4.167  -8.836   1.094  1.00  0.00    -0.266 OA
HETATM    4  H   UNL     1       2.895  -8.406  -1.778  1.00  0.00     0.163 HD
ENDROOT
BRANCH   1   5
HETATM    5  C   UNL     1       1.931  -7.610  -0.079  1.00  0.00     0.217 C 
BRANCH   5   6
HETATM    6  C   UNL     1       2.236  -6.181  -0.188  1.00  0.00    -0.085 C 
HETATM    7  C   UNL     1       2.454  -5.000  -0.234  1.00  0.00    -0.078 C 
BRANCH   7   8
HETATM    8  C   UNL     1       2.697  -3.550  -0.245  1.00  0.00     0.269 C 
BRANCH   8   9
HETATM    9  O   UNL     1       1.442  -2.878  -0.175  1.00  0.00    -0.339 OA
BRANCH   9  10
HETATM   10  C   UNL     1       1.446  -1.506  -0.083  1.00  0.00     0.081 A 
HETATM   11  C   UNL     1       0.175  -0.889   0.057  1.00  0.00     0.007 A 
HETATM   12  C   UNL     1       0.099   0.522   0.157  1.00  0.00    -0.023 A 
HETATM   13  C   UNL     1      -1.033  -1.620   0.105  1.00  0.00     0.015 A 
HETATM   14  C   UNL     1      -1.151   1.148   0.296  1.00  0.00     0.012 A 
HETATM   15  C   UNL     1       1.275   1.283   0.115  1.00  0.00     0.012 A 
HETATM   16  C   UNL     1      -2.327   0.400   0.339  1.00  0.00     0.001 A 
HETATM   17  C   UNL     1      -2.269  -0.985   0.244  1.00  0.00     0.001 A 
HETATM   18  C   UNL     1       2.517   0.667  -0.025  1.00  0.00     0.004 A 
HETATM   19  C   UNL     1       2.603  -0.721  -0.125  1.00  0.00     0.038 A 
ENDBRANCH   9  10
ENDBRANCH   8   9
ENDBRANCH   7   8
ENDBRANCH   5   6
ENDBRANCH   1   5
BRANCH   2  20
HETATM   20  C   UNL     1       4.884  -9.725  -0.937  1.00  0.00     0.120 A 
HETATM   21  N   UNL     1       6.043 -10.243  -0.432  1.00  0.00    -0.272 N 
HETATM   22  H   UNL     1       6.387 -10.147   0.519  1.00  0.00     0.189 HD
HETATM   23  N   UNL     1       6.766 -10.943  -1.318  1.00  0.00    -0.174 NA
HETATM   24  C   UNL     1       6.040 -10.918  -2.446  1.00  0.00     0.089 A 
HETATM   25  C   UNL     1       4.859 -10.143  -2.253  1.00  0.00     0.071 A 
BRANCH  24  26
HETATM   26  C   UNL     1       6.478 -11.627  -3.655  1.00  0.00    -0.005 A 
HETATM   27  C   UNL     1       5.580 -11.916  -4.695  1.00  0.00     0.017 A 
HETATM   28  C   UNL     1       6.009 -12.604  -5.835  1.00  0.00     0.043 A 
HETATM   29  C   UNL     1       7.335 -13.003  -5.938  1.00  0.00     0.116 A 
HETATM   30  F   UNL     1       7.742 -13.664  -7.030  1.00  0.00    -0.206 F 
HETATM   31  C   UNL     1       8.243 -12.731  -4.924  1.00  0.00     0.043 A 
HETATM   32  C   UNL     1       7.814 -12.046  -3.784  1.00  0.00     0.017 A 
ENDBRANCH  24  26
ENDBRANCH   2  20
TORSDOF 7
