REMARK  8 active torsions:
REMARK  status: ('A' for Active; 'I' for Inactive)
REMARK    1  A    between atoms: O_2  and  C_3 
REMARK    2  A    between atoms: C_4  and  O_5 
REMARK    3  A    between atoms: C_6  and  C_7 
REMARK    4  A    between atoms: C_7  and  C_8 
REMARK    5  A    between atoms: C_11  and  C_12 
REMARK    6  A    between atoms: C_12  and  N_13 
REMARK    7  A    between atoms: C_16  and  N_17 
REMARK       I    between atoms: N_17  and  C_18 
REMARK       I    between atoms: C_18  and  N_19 
REMARK    8  A    between atoms: N_19  and  C_20 
ROOT
HETATM    1  N   UNL     1       1.230  -4.881   0.312  1.00  0.00    -0.065 N 
HETATM    2  H   UNL     1       1.255  -4.905   1.342  1.00  0.00     0.280 HD
HETATM    3  C   UNL     1       0.626  -6.213  -0.114  1.00  0.00     0.260 C 
HETATM    4  C   UNL     1      -0.585  -5.835  -0.981  1.00  0.00     0.113 C 
HETATM    5  C   UNL     1      -1.047  -4.518  -0.374  1.00  0.00     0.054 C 
HETATM    6  C   UNL     1       0.258  -3.797  -0.099  1.00  0.00     0.237 C 
ENDROOT
BRANCH   1   7
HETATM    7  C   UNL     1       2.635  -4.627  -0.159  1.00  0.00     0.273 C 
BRANCH   7   8
HETATM    8  C   UNL     1       3.645  -5.575   0.430  1.00  0.00    -0.029 A 
HETATM    9  C   UNL     1       4.042  -5.438   1.770  1.00  0.00     0.019 A 
HETATM   10  C   UNL     1       4.962  -6.328   2.347  1.00  0.00    -0.018 A 
HETATM   11  C   UNL     1       5.460  -7.367   1.558  1.00  0.00     0.105 A 
HETATM   12  C   UNL     1       5.092  -7.518   0.214  1.00  0.00     0.102 A 
HETATM   13  C   UNL     1       4.186  -6.618  -0.346  1.00  0.00     0.048 A 
BRANCH  10  14
HETATM   14  C   UNL     1       5.366  -6.160   3.794  1.00  0.00     0.068 C 
BRANCH  14  15
HETATM   15  C   UNL     1       4.318  -6.684   4.736  1.00  0.00    -0.032 C 
HETATM   16  C   UNL     1       3.669  -5.941   5.641  1.00  0.00     0.007 C 
ENDBRANCH  14  15
ENDBRANCH  10  14
BRANCH  11  17
HETATM   17  O   UNL     1       6.337  -8.263   2.110  1.00  0.00    -0.357 OA
HETATM   18  H   UNL     1       6.567  -8.890   1.396  1.00  0.00     0.218 HD
ENDBRANCH  11  17
BRANCH  12  19
HETATM   19  O   UNL     1       5.672  -8.582  -0.426  1.00  0.00    -0.353 OA
HETATM   20  C   UNL     1       5.434  -8.715  -1.822  1.00  0.00     0.210 C 
ENDBRANCH  12  19
ENDBRANCH   7   8
ENDBRANCH   1   7
BRANCH   4  21
HETATM   21  N   UNL     1      -1.619  -6.845  -1.107  1.00  0.00    -0.337 N 
HETATM   22  C   UNL     1      -2.267  -7.379  -0.010  1.00  0.00     0.321 C 
HETATM   23  N   UNL     1      -3.219  -8.290  -0.396  1.00  0.00    -0.309 N 
HETATM   24  O   UNL     1      -1.963  -7.051   1.129  1.00  0.00    -0.247 OA
HETATM   25  H   UNL     1      -3.129  -8.658  -1.332  1.00  0.00     0.170 HD
HETATM   26  H   UNL     1      -2.174  -6.836  -1.955  1.00  0.00     0.164 HD
BRANCH  23  27
HETATM   27  C   UNL     1      -4.181  -8.919   0.420  1.00  0.00     0.036 A 
HETATM   28  C   UNL     1      -4.457  -8.528   1.733  1.00  0.00     0.032 A 
HETATM   29  C   UNL     1      -5.450  -9.183   2.469  1.00  0.00     0.044 A 
HETATM   30  C   UNL     1      -6.162 -10.226   1.892  1.00  0.00     0.116 A 
HETATM   31  F   UNL     1      -7.113 -10.849   2.598  1.00  0.00    -0.206 F 
HETATM   32  C   UNL     1      -5.903 -10.627   0.589  1.00  0.00     0.044 A 
HETATM   33  C   UNL     1      -4.915  -9.970  -0.149  1.00  0.00     0.032 A 
ENDBRANCH  23  27
ENDBRANCH   4  21
TORSDOF 8
