REMARK  7 active torsions:
REMARK  status: ('A' for Active; 'I' for Inactive)
REMARK    1  A    between atoms: O_2  and  C_3 
REMARK    2  A    between atoms: C_6  and  C_7 
REMARK       I    between atoms: C_7  and  N_8 
REMARK    3  A    between atoms: N_8  and  C_9 
REMARK    4  A    between atoms: C_9  and  N_10 
REMARK    5  A    between atoms: N_10  and  C_11 
REMARK    6  A    between atoms: C_14  and  N_15 
REMARK       I    between atoms: N_18  and  C_19 
REMARK    7  A    between atoms: C_19  and  C_20 
ROOT
HETATM    1  C   UNL     1       3.728   4.182  -2.220  1.00  0.00     0.034 C 
HETATM    2  C   UNL     1       4.999   3.616  -2.176  1.00  0.00     0.032 C 
HETATM    3  C   UNL     1       5.156   2.229  -2.268  1.00  0.00     0.031 C 
HETATM    4  C   UNL     1       4.058   1.367  -2.404  1.00  0.00     0.030 C 
HETATM    5  C   UNL     1       2.788   1.949  -2.254  1.00  0.00     0.031 C 
HETATM    6  C   UNL     1       2.618   3.343  -2.149  1.00  0.00     0.032 C 
ENDROOT
BRANCH   1   7
HETATM    7  N   UNL     1       3.551   5.576  -2.460  1.00  0.00    -0.333 N 
HETATM    8  H   UNL     1       2.640   5.925  -2.196  1.00  0.00     0.168 HD
BRANCH   7   9
HETATM    9  C   UNL     1       4.046   6.184  -3.598  1.00  0.00     0.179 C 
HETATM   10  S   UNL     1       4.925   5.490  -4.856  1.00  0.00    -0.040 SA
BRANCH   9  11
HETATM   11  N   UNL     1       3.746   7.522  -3.809  1.00  0.00    -0.299 N 
HETATM   12  C   UNL     1       3.233   8.667  -3.212  1.00  0.00     0.257 C 
HETATM   13  O   UNL     1       3.139   9.695  -3.884  1.00  0.00    -0.267 OA
HETATM   14  H   UNL     1       4.056   7.784  -4.740  1.00  0.00     0.171 HD
BRANCH  12  15
HETATM   15  C   UNL     1       2.878   8.753  -1.794  1.00  0.00     0.032 A 
HETATM   16  C   UNL     1       3.607   9.665  -1.017  1.00  0.00     0.020 A 
HETATM   17  C   UNL     1       3.131  10.059   0.233  1.00  0.00     0.038 A 
HETATM   18  C   UNL     1       1.915   9.557   0.694  1.00  0.00     0.068 A 
HETATM   19  C   UNL     1       1.218   8.602  -0.054  1.00  0.00     0.038 A 
HETATM   20  C   UNL     1       1.681   8.218  -1.317  1.00  0.00     0.020 A 
BRANCH  18  21
HETATM   21  O   UNL     1       1.337   9.959   1.867  1.00  0.00    -0.356 OA
HETATM   22  C   UNL     1       1.301  11.382   2.008  1.00  0.00     0.210 C 
ENDBRANCH  18  21
ENDBRANCH  12  15
ENDBRANCH   9  11
ENDBRANCH   7   9
ENDBRANCH   1   7
BRANCH   4  23
HETATM   23  N   UNL     1       4.200   0.045  -2.808  1.00  0.00    -0.378 N 
HETATM   24  C   UNL     1       3.475  -1.045  -2.132  1.00  0.00     0.143 C 
HETATM   25  C   UNL     1       3.225  -2.227  -3.106  1.00  0.00     0.146 C 
HETATM   26  N   UNL     1       4.415  -2.624  -3.879  1.00  0.00    -0.345 N 
HETATM   27  C   UNL     1       4.682  -3.895  -4.383  1.00  0.00     0.253 C 
HETATM   28  C   UNL     1       5.189  -1.516  -4.443  1.00  0.00     0.146 C 
HETATM   29  O   UNL     1       5.709  -4.164  -5.006  1.00  0.00    -0.267 OA
HETATM   30  C   UNL     1       5.462  -0.392  -3.437  1.00  0.00     0.143 C 
BRANCH  27  31
HETATM   31  C   UNL     1       3.718  -5.000  -4.187  1.00  0.00     0.032 A 
HETATM   32  C   UNL     1       2.395  -4.897  -4.629  1.00  0.00     0.017 A 
HETATM   33  C   UNL     1       1.540  -5.995  -4.516  1.00  0.00     0.001 A 
HETATM   34  C   UNL     1       2.011  -7.197  -3.986  1.00  0.00     0.000 A 
HETATM   35  C   UNL     1       3.339  -7.310  -3.574  1.00  0.00     0.001 A 
HETATM   36  C   UNL     1       4.196  -6.214  -3.680  1.00  0.00     0.017 A 
ENDBRANCH  27  31
ENDBRANCH   4  23
TORSDOF 7
