REMARK  6 active torsions:
REMARK  status: ('A' for Active; 'I' for Inactive)
REMARK    1  A    between atoms: C_2  and  N_3 
REMARK    2  A    between atoms: C_11  and  C_12 
REMARK    3  A    between atoms: C_14  and  C_15 
REMARK    4  A    between atoms: C_15  and  O_16 
REMARK    5  A    between atoms: O_16  and  C_17 
REMARK    6  A    between atoms: C_25  and  O_26 
ROOT
HETATM    1  N   UNL     1       2.987   1.528   0.502  1.00  0.00    -0.067 N 
HETATM    2  H   UNL     1       2.594   1.715   1.434  1.00  0.00     0.280 HD
HETATM    3  C   UNL     1       4.502   1.674   0.644  1.00  0.00     0.281 C 
HETATM    4  C   UNL     1       4.887   3.101   0.825  1.00  0.00     0.018 A 
HETATM    5  C   UNL     1       4.067   4.188   0.583  1.00  0.00    -0.023 A 
HETATM    6  C   UNL     1       4.758   5.420   0.820  1.00  0.00     0.073 A 
HETATM    7  C   UNL     1       6.056   5.208   1.219  1.00  0.00     0.088 A 
HETATM    8  N   UNL     1       6.922   6.209   1.479  1.00  0.00    -0.358 N 
HETATM    9  C   UNL     1       6.400   7.537   1.745  1.00  0.00     0.219 C 
HETATM   10  N   UNL     1       5.206   7.758   0.965  1.00  0.00    -0.332 N 
HETATM   11  C   UNL     1       4.290   6.786   0.669  1.00  0.00     0.256 C 
HETATM   12  O   UNL     1       3.157   7.060   0.289  1.00  0.00    -0.267 OA
HETATM   13  S   UNL     1       6.449   3.558   1.324  1.00  0.00    -0.074 SA
HETATM   14  C   UNL     1       2.650   4.010   0.133  1.00  0.00     0.068 C 
HETATM   15  C   UNL     1       2.414   2.600  -0.434  1.00  0.00     0.240 C 
HETATM   16  H   UNL     1       7.797   5.992   1.946  1.00  0.00     0.162 HD
HETATM   17  H   UNL     1       4.860   8.704   0.899  1.00  0.00     0.165 HD
ENDROOT
BRANCH   9  18
HETATM   18  C   UNL     1       6.223   7.759   3.241  1.00  0.00    -0.016 A 
HETATM   19  C   UNL     1       7.361   7.794   4.070  1.00  0.00     0.023 A 
HETATM   20  C   UNL     1       7.264   8.006   5.461  1.00  0.00    -0.000 A 
HETATM   21  C   UNL     1       5.999   8.196   6.037  1.00  0.00     0.076 A 
HETATM   22  C   UNL     1       4.862   8.161   5.226  1.00  0.00     0.038 A 
HETATM   23  C   UNL     1       4.973   7.945   3.847  1.00  0.00     0.014 A 
BRANCH  20  24
HETATM   24  C   UNL     1       8.525   8.000   6.301  1.00  0.00     0.217 C 
BRANCH  24  25
HETATM   25  O   UNL     1       9.445   8.958   5.766  1.00  0.00    -0.347 OA
BRANCH  25  26
HETATM   26  C   UNL     1      10.580   9.197   6.492  1.00  0.00     0.070 A 
HETATM   27  C   UNL     1      11.351  10.270   6.032  1.00  0.00     0.063 A 
HETATM   28  C   UNL     1      12.534  10.618   6.685  1.00  0.00     0.075 A 
HETATM   29 CL   UNL     1      13.465  11.944   6.103  1.00  0.00    -0.081 Cl
HETATM   30  C   UNL     1      12.950   9.892   7.797  1.00  0.00     0.138 A 
HETATM   31  F   UNL     1      14.083  10.206   8.441  1.00  0.00    -0.204 F 
HETATM   32  C   UNL     1      12.194   8.820   8.260  1.00  0.00     0.047 A 
HETATM   33  C   UNL     1      11.008   8.469   7.607  1.00  0.00     0.040 A 
ENDBRANCH  25  26
ENDBRANCH  24  25
ENDBRANCH  20  24
BRANCH  21  34
HETATM   34  O   UNL     1       5.965   8.375   7.394  1.00  0.00    -0.355 OA
HETATM   35  C   UNL     1       4.792   8.967   7.940  1.00  0.00     0.210 C 
ENDBRANCH  21  34
ENDBRANCH   9  18
BRANCH   1  36
HETATM   36  C   UNL     1       2.558   0.145   0.080  1.00  0.00     0.231 C 
HETATM   37  C   UNL     1       2.874  -0.879   1.154  1.00  0.00     0.034 C 
ENDBRANCH   1  36
TORSDOF 6
