REMARK  8 active torsions:
REMARK  status: ('A' for Active; 'I' for Inactive)
REMARK    1  A    between atoms: C_1  and  C_15 
REMARK    2  A    between atoms: C_2  and  C_5 
REMARK    3  A    between atoms: C_5  and  C_13 
REMARK       I    between atoms: C_7  and  N_8 
REMARK    4  A    between atoms: N_8  and  C_9 
REMARK       I    between atoms: C_13  and  N_14 
REMARK    5  A    between atoms: N_14  and  C_15 
REMARK    6  A    between atoms: C_23  and  C_24 
REMARK    7  A    between atoms: C_24  and  O_25 
REMARK    8  A    between atoms: C_27  and  O_28 
ROOT
HETATM    1  C           1      -0.759  -0.066  -0.094  0.00  0.00     0.056 C 
HETATM    2  C           1       0.385  -2.097   1.859  0.00  0.00     0.055 C 
HETATM    3  C           1      -1.036  -2.197   1.256  0.00  0.00     0.012 C 
HETATM    4  C           1       2.248   0.980   1.320  0.00  0.00     0.173 A 
HETATM    5  S           1       2.284  -0.254   2.107  0.00  0.00    -0.055 SA
HETATM    6  C           1       1.016  -0.766   1.569  0.00  0.00     0.012 A 
HETATM    7  C           1       0.501   0.113   0.704  0.00  0.00     0.056 A 
HETATM    8  C           1      -1.103  -1.591  -0.187  0.00  0.00    -0.030 C 
HETATM    9  C           1      -0.107  -2.257  -1.161  0.00  0.00     0.016 C 
HETATM   10  C           1      -1.747  -3.567   1.532  0.00  0.00     0.008 C 
HETATM   11  C           1      -1.948  -3.718   3.067  0.00  0.00     0.020 C 
HETATM   12  C           1      -3.147  -3.538   0.886  0.00  0.00     0.128 C 
HETATM   13  C           1      -3.129  -3.134  -0.583  0.00  0.00     0.033 C 
HETATM   14  C           1      -2.542  -1.729  -0.740  0.00  0.00     0.013 C 
HETATM   15  N           1       1.238   1.124   0.576  0.00  0.00    -0.227 NA
ENDROOT
BRANCH   1  16
HETATM   16  C           1      -0.667   0.710  -1.428  0.00  0.00     0.114 C 
BRANCH  16  17
HETATM   17  C           1      -0.940   2.203  -1.269  0.00  0.00     0.218 C 
HETATM   18  N           1       0.149   3.017  -1.411  0.00  0.00    -0.355 N 
HETATM   19  H           1       1.085   2.615  -1.499  0.00  0.00     0.162 HD
HETATM   20  O           1      -2.046   2.621  -1.033  0.00  0.00    -0.274 OA
BRANCH  18  21
HETATM   21  C           1       0.043   4.476  -1.356  0.00  0.00     0.187 C 
BRANCH  21  22
HETATM   22  C           1       1.284   5.069  -1.958  0.00  0.00     0.070 A 
HETATM   23  C           1       2.163   5.861  -1.326  0.00  0.00     0.036 A 
HETATM   24  C           1       3.104   6.119  -2.241  0.00  0.00     0.027 A 
HETATM   25  C           1       2.687   5.457  -3.327  0.00  0.00     0.142 A 
HETATM   26  O           1       1.628   4.865  -3.124  0.00  0.00    -0.325 OA
ENDBRANCH  21  22
ENDBRANCH  18  21
ENDBRANCH  16  17
ENDBRANCH   1  16
BRANCH  10  27
HETATM   27  C           1      -0.946  -4.794   1.054  0.00  0.00     0.176 C 
BRANCH  27  28
HETATM   28  O           1      -1.504  -6.004   1.535  0.00  0.00    -0.400 OA
HETATM   29  H           1      -2.440  -6.035   1.333  0.00  0.00     0.209 HD
ENDBRANCH  27  28
ENDBRANCH  10  27
BRANCH   4  30
HETATM   30  N           1       3.313   1.805   1.331  0.00  0.00    -0.306 N 
HETATM   31  C           1       3.619   2.796   0.442  0.00  0.00     0.219 C 
HETATM   32  C           1       4.871   3.575   0.791  0.00  0.00     0.117 C 
HETATM   33  O           1       2.958   3.027  -0.539  0.00  0.00    -0.274 OA
HETATM   34  H           1       3.957   1.588   2.077  0.00  0.00     0.171 HD
ENDBRANCH   4  30
BRANCH  12  35
HETATM   35  O           1      -3.777  -4.793   0.984  0.00  0.00    -0.395 OA
HETATM   36  H           1      -4.713  -4.708   0.794  0.00  0.00     0.210 HD
ENDBRANCH  12  35
TORSDOF 8
