REMARK  5 active torsions:
REMARK  status: ('A' for Active; 'I' for Inactive)
REMARK    1  A    between atoms: C_4  and  N_5 
REMARK       I    between atoms: N_5  and  C_6 
REMARK    2  A    between atoms: C_6  and  C_7 
REMARK    3  A    between atoms: C_8  and  N_9 
REMARK    4  A    between atoms: N_10  and  N_11 
REMARK    5  A    between atoms: C_12  and  C_13 
ROOT
HETATM    1  C   UNL     1       6.788  -0.427  -0.174  1.00  0.00     0.105 C 
HETATM    2  C   UNL     1       7.850  -0.380   0.723  1.00  0.00     0.123 C 
HETATM    3  N   UNL     1       8.547  -1.579   0.668  1.00  0.00    -0.202 N 
HETATM    4  C   UNL     1       7.799  -2.477  -0.070  1.00  0.00     0.183 A 
HETATM    5  C   UNL     1       6.719  -1.782  -0.610  1.00  0.00     0.124 A 
HETATM    6  N   UNL     1       5.810  -2.419  -1.394  1.00  0.00    -0.242 NA
HETATM    7  C   UNL     1       5.998  -3.741  -1.532  1.00  0.00     0.086 A 
HETATM    8  C   UNL     1       7.098  -4.423  -0.952  1.00  0.00     0.088 A 
HETATM    9  N   UNL     1       8.041  -3.800  -0.228  1.00  0.00    -0.225 NA
HETATM   10  C   UNL     1       5.065  -4.471  -2.259  1.00  0.00     0.034 A 
HETATM   11  C   UNL     1       5.180  -5.853  -2.417  1.00  0.00     0.002 A 
HETATM   12  C   UNL     1       6.254  -6.520  -1.846  1.00  0.00     0.002 A 
HETATM   13  C   UNL     1       7.205  -5.797  -1.124  1.00  0.00     0.034 A 
ENDROOT
BRANCH   1  14
HETATM   14  C   UNL     1       5.920   0.691  -0.561  1.00  0.00     0.262 C 
HETATM   15  N   UNL     1       6.357   1.903  -0.055  1.00  0.00    -0.323 N 
HETATM   16  H   UNL     1       7.197   1.848   0.517  1.00  0.00     0.169 HD
HETATM   17  O   UNL     1       4.926   0.535  -1.259  1.00  0.00    -0.267 OA
BRANCH  15  18
HETATM   18  C   UNL     1       5.803   3.184  -0.204  1.00  0.00     0.036 A 
HETATM   19  C   UNL     1       4.790   3.503  -1.107  1.00  0.00     0.036 A 
HETATM   20  C   UNL     1       4.310   4.820  -1.201  1.00  0.00    -0.059 A 
HETATM   21  C   UNL     1       3.229   5.154  -2.186  1.00  0.00     0.048 C 
HETATM   22  C   UNL     1       4.820   5.804  -0.343  1.00  0.00     0.013 A 
HETATM   23  C   UNL     1       5.838   5.501   0.565  1.00  0.00    -0.059 A 
HETATM   24  C   UNL     1       6.329   4.191   0.618  1.00  0.00     0.036 A 
HETATM   25  C   UNL     1       6.349   6.537   1.521  1.00  0.00     0.048 C 
ENDBRANCH  15  18
ENDBRANCH   1  14
BRANCH   2  26
HETATM   26  N   UNL     1       8.291   0.624   1.551  1.00  0.00    -0.286 NA
HETATM   27  H   UNL     1       7.630   0.898   2.284  1.00  0.00     0.125 HD
HETATM   28  H   UNL     1       9.165   0.374   2.036  1.00  0.00     0.125 HD
ENDBRANCH   2  26
BRANCH   3  29
HETATM   29  N   UNL     1       9.714  -1.748   1.368  1.00  0.00    -0.176 NA
HETATM   30  C   UNL     1      10.551  -2.584   0.849  1.00  0.00     0.153 C 
BRANCH  30  31
HETATM   31  C   UNL     1      11.816  -2.796   1.523  1.00  0.00     0.011 A 
HETATM   32  C   UNL     1      12.985  -3.435   0.996  1.00  0.00     0.004 A 
HETATM   33  C   UNL     1      13.968  -3.387   1.987  1.00  0.00     0.043 A 
HETATM   34  C   UNL     1      13.310  -4.031  -0.241  1.00  0.00     0.014 A 
HETATM   35  C   UNL     1      15.255  -3.907   1.805  1.00  0.00     0.030 A 
HETATM   36  N   UNL     1      13.416  -2.757   3.077  1.00  0.00    -0.364 N 
HETATM   37  C   UNL     1      15.551  -4.490   0.570  1.00  0.00     0.002 A 
HETATM   38  C   UNL     1      14.594  -4.552  -0.440  1.00  0.00     0.001 A 
HETATM   39  H   UNL     1      13.903  -2.583   3.946  1.00  0.00     0.165 HD
HETATM   40  C   UNL     1      12.128  -2.387   2.807  1.00  0.00     0.102 A 
ENDBRANCH  30  31
ENDBRANCH   3  29
TORSDOF 5
