REMARK  5 active torsions:
REMARK  status: ('A' for Active; 'I' for Inactive)
REMARK    1  A    between atoms: C_4  and  N_5 
REMARK       I    between atoms: N_5  and  C_6 
REMARK       I    between atoms: C_6  and  N_7 
REMARK    2  A    between atoms: N_7  and  C_8 
REMARK    3  A    between atoms: C_10  and  C_11 
REMARK       I    between atoms: C_11  and  N_12 
REMARK    4  A    between atoms: N_12  and  C_13 
REMARK    5  A    between atoms: C_13  and  C_14 
ROOT
HETATM    1  C   UNL     1       1.829   2.457   0.579  1.00  0.00     0.175 A 
HETATM    2  S   UNL     1       2.442   0.950   0.084  1.00  0.00    -0.044 SA
HETATM    3  C   UNL     1       1.107   0.156   0.820  1.00  0.00     0.100 A 
HETATM    4  C   UNL     1       0.282   1.106   1.405  1.00  0.00     0.056 A 
HETATM    5  C   UNL     1      -0.978   0.863   2.160  1.00  0.00     0.072 C 
HETATM    6  N   UNL     1       0.700   2.418   1.241  1.00  0.00    -0.228 NA
ENDROOT
BRANCH   1   7
HETATM    7  N   UNL     1       2.419   3.652   0.280  1.00  0.00    -0.287 N 
HETATM    8  C   UNL     1       3.593   4.005  -0.310  1.00  0.00     0.326 C 
HETATM    9  N   UNL     1       4.528   3.033  -0.517  1.00  0.00    -0.309 N 
HETATM   10  O   UNL     1       3.740   5.198  -0.573  1.00  0.00    -0.247 OA
HETATM   11  H   UNL     1       4.337   2.145  -0.080  1.00  0.00     0.170 HD
HETATM   12  H   UNL     1       1.844   4.449   0.521  1.00  0.00     0.172 HD
BRANCH   9  13
HETATM   13  C   UNL     1       5.790   3.159  -1.135  1.00  0.00     0.036 A 
HETATM   14  C   UNL     1       6.224   4.309  -1.800  1.00  0.00     0.036 A 
HETATM   15  C   UNL     1       7.498   4.367  -2.388  1.00  0.00    -0.060 A 
HETATM   16  C   UNL     1       7.931   5.602  -3.123  1.00  0.00     0.048 C 
HETATM   17  C   UNL     1       8.330   3.245  -2.331  1.00  0.00     0.007 A 
HETATM   18  C   UNL     1       7.904   2.091  -1.677  1.00  0.00     0.003 A 
HETATM   19  C   UNL     1       6.641   2.048  -1.083  1.00  0.00     0.029 A 
ENDBRANCH   9  13
ENDBRANCH   1   7
BRANCH   3  20
HETATM   20  C   UNL     1       0.936  -1.287   0.811  1.00  0.00     0.260 C 
HETATM   21  N   UNL     1       1.784  -1.995  -0.015  1.00  0.00    -0.352 N 
HETATM   22  H   UNL     1       2.514  -1.499  -0.506  1.00  0.00     0.163 HD
HETATM   23  O   UNL     1       0.084  -1.855   1.489  1.00  0.00    -0.267 OA
BRANCH  21  24
HETATM   24  C   UNL     1       1.757  -3.439  -0.092  1.00  0.00     0.161 C 
BRANCH  24  25
HETATM   25  C   UNL     1       1.647  -3.993  -1.495  1.00  0.00    -0.040 A 
HETATM   26  C   UNL     1       1.547  -3.194  -2.644  1.00  0.00     0.010 A 
HETATM   27  C   UNL     1       1.445  -3.777  -3.912  1.00  0.00     0.024 A 
HETATM   28  C   UNL     1       1.434  -5.163  -4.043  1.00  0.00     0.034 A 
HETATM   29 CL   UNL     1       1.304  -5.876  -5.603  1.00  0.00    -0.084 Cl
HETATM   30  C   UNL     1       1.524  -5.974  -2.916  1.00  0.00     0.024 A 
HETATM   31  C   UNL     1       1.632  -5.391  -1.651  1.00  0.00     0.010 A 
ENDBRANCH  24  25
ENDBRANCH  21  24
ENDBRANCH   3  20
TORSDOF 5
