REMARK  6 active torsions:
REMARK  status: ('A' for Active; 'I' for Inactive)
REMARK    1  A    between atoms: C_2  and  N_3 
REMARK    2  A    between atoms: C_2  and  C_32 
REMARK       I    between atoms: N_3  and  C_4 
REMARK    3  A    between atoms: C_4  and  C_5 
REMARK    4  A    between atoms: C_6  and  N_7 
REMARK       I    between atoms: N_7  and  C_8 
REMARK    5  A    between atoms: C_8  and  C_9 
REMARK    6  A    between atoms: C_9  and  N_10 
ROOT
HETATM    1  N   UNL     1       3.618  -3.339  -2.532  1.00  0.00    -0.325 N 
HETATM    2  C   UNL     1       4.188  -4.244  -1.660  1.00  0.00     0.240 C 
HETATM    3  O   UNL     1       3.565  -4.882  -0.810  1.00  0.00    -0.271 OA
HETATM    4  H   UNL     1       4.125  -3.114  -3.390  1.00  0.00     0.169 HD
ENDROOT
BRANCH   1   5
HETATM    5  C   UNL     1       2.362  -2.697  -2.380  1.00  0.00     0.050 A 
HETATM    6  C   UNL     1       1.780  -2.012  -3.466  1.00  0.00     0.058 A 
HETATM    7  C   UNL     1       0.582  -1.294  -3.291  1.00  0.00     0.019 A 
HETATM    8  C   UNL     1      -0.061  -1.284  -2.055  1.00  0.00     0.001 A 
HETATM    9  C   UNL     1       0.492  -1.981  -0.988  1.00  0.00     0.002 A 
HETATM   10  C   UNL     1       1.695  -2.675  -1.147  1.00  0.00     0.030 A 
BRANCH   6  11
HETATM   11  C   UNL     1       2.411  -2.052  -4.817  1.00  0.00     0.254 C 
HETATM   12  N   UNL     1       1.533  -2.104  -5.876  1.00  0.00    -0.349 N 
HETATM   13  H   UNL     1       0.539  -2.147  -5.702  1.00  0.00     0.163 HD
HETATM   14  O   UNL     1       3.633  -2.074  -4.926  1.00  0.00    -0.268 OA
BRANCH  12  15
HETATM   15  C   UNL     1       1.944  -1.976  -7.264  1.00  0.00     0.114 C 
HETATM   16  C   UNL     1       1.547  -3.229  -8.047  1.00  0.00     0.037 C 
BRANCH  15  17
HETATM   17  C   UNL     1       1.359  -0.685  -7.813  1.00  0.00    -0.036 A 
HETATM   18  C   UNL     1       2.120   0.494  -7.732  1.00  0.00     0.009 A 
HETATM   19  C   UNL     1       1.605   1.713  -8.175  1.00  0.00     0.001 A 
HETATM   20  C   UNL     1       0.315   1.776  -8.696  1.00  0.00     0.000 A 
HETATM   21  C   UNL     1      -0.460   0.621  -8.771  1.00  0.00     0.001 A 
HETATM   22  C   UNL     1       0.055  -0.601  -8.328  1.00  0.00     0.009 A 
ENDBRANCH  15  17
ENDBRANCH  12  15
ENDBRANCH   6  11
ENDBRANCH   1   5
BRANCH   2  23
HETATM   23  C   UNL     1       5.657  -4.568  -1.924  1.00  0.00     0.240 C 
BRANCH  23  24
HETATM   24  N   UNL     1       6.437  -3.466  -2.447  1.00  0.00    -0.259 N 
HETATM   25  C   UNL     1       7.441  -3.639  -3.347  1.00  0.00     0.326 C 
HETATM   26  O   UNL     1       7.694  -4.639  -3.996  1.00  0.00    -0.247 OA
HETATM   27  N   UNL     1       8.218  -2.506  -3.361  1.00  0.00    -0.324 N 
HETATM   28  C   UNL     1       7.707  -1.462  -2.488  1.00  0.00     0.120 C 
HETATM   29  H   UNL     1       9.006  -2.424  -3.990  1.00  0.00     0.165 HD
HETATM   30  C   UNL     1       7.039  -0.369  -3.332  1.00  0.00     0.080 C 
HETATM   31  C   UNL     1       8.790  -0.918  -1.563  1.00  0.00     0.046 C 
HETATM   32  C   UNL     1       6.657  -2.311  -1.742  1.00  0.00     0.257 C 
HETATM   33  C   UNL     1       6.837   0.945  -2.622  1.00  0.00    -0.049 A 
HETATM   34  C   UNL     1       7.440   1.225  -1.385  1.00  0.00    -0.052 A 
HETATM   35  C   UNL     1       6.056   1.930  -3.248  1.00  0.00     0.007 A 
HETATM   36  C   UNL     1       8.274   0.201  -0.659  1.00  0.00     0.042 C 
HETATM   37  C   UNL     1       7.211   2.469  -0.777  1.00  0.00     0.007 A 
HETATM   38  C   UNL     1       6.424   3.435  -1.404  1.00  0.00     0.001 A 
HETATM   39  C   UNL     1       5.851   3.168  -2.643  1.00  0.00     0.001 A 
HETATM   40  O   UNL     1       6.094  -2.006  -0.700  1.00  0.00    -0.270 OA
ENDBRANCH  23  24
ENDBRANCH   2  23
TORSDOF 6
