REMARK  7 active torsions:
REMARK  status: ('A' for Active; 'I' for Inactive)
REMARK    1  A    between atoms: C_3  and  C_4 
REMARK    2  A    between atoms: C_4  and  N_5 
REMARK    3  A    between atoms: C_9  and  C_10 
REMARK    4  A    between atoms: C_9  and  C_28 
REMARK    5  A    between atoms: N_13  and  C_15 
REMARK    6  A    between atoms: C_15  and  C_16 
REMARK    7  A    between atoms: C_28  and  C_29 
ROOT
HETATM    1  C   UNL     1       4.426   5.783   2.321  1.00  0.00     0.112 C 
HETATM    2  C   UNL     1       5.426   4.757   2.019  1.00  0.00    -0.109 C 
HETATM    3  C   UNL     1       6.338   3.877   1.713  1.00  0.00    -0.087 C 
ENDROOT
BRANCH   3   4
HETATM    4  C   UNL     1       7.401   2.851   1.356  1.00  0.00     0.230 C 
BRANCH   4   5
HETATM    5  N   UNL     1       7.527   1.801   2.332  1.00  0.00    -0.257 N 
HETATM    6  C   UNL     1       8.659   1.558   3.042  1.00  0.00     0.327 C 
HETATM    7  O   UNL     1       9.683   2.213   3.065  1.00  0.00    -0.247 OA
HETATM    8  N   UNL     1       8.479   0.394   3.752  1.00  0.00    -0.324 N 
HETATM    9  C   UNL     1       7.230  -0.281   3.443  1.00  0.00     0.123 C 
HETATM   10  H   UNL     1       9.255  -0.009   4.269  1.00  0.00     0.165 HD
HETATM   11  C   UNL     1       6.677   0.743   2.430  1.00  0.00     0.257 C 
HETATM   12  O   UNL     1       5.628   0.614   1.815  1.00  0.00    -0.270 OA
BRANCH   9  13
HETATM   13  C   UNL     1       6.377  -0.443   4.747  1.00  0.00     0.027 C 
HETATM   14  C   UNL     1       4.974  -1.051   4.590  1.00  0.00     0.035 C 
HETATM   15  C   UNL     1       3.875  -0.100   4.132  1.00  0.00     0.235 C 
HETATM   16  N   UNL     1       3.898   1.220   4.863  1.00  0.00    -0.067 N 
HETATM   17  H   UNL     1       3.473   1.048   5.783  1.00  0.00     0.280 HD
HETATM   18  C   UNL     1       5.249   1.835   5.099  1.00  0.00     0.235 C 
HETATM   19  C   UNL     1       6.242   0.817   5.624  1.00  0.00     0.035 C 
BRANCH  16  20
HETATM   20  C   UNL     1       3.011   2.250   4.169  1.00  0.00     0.273 C 
BRANCH  20  21
HETATM   21  C   UNL     1       1.585   1.816   3.993  1.00  0.00    -0.030 A 
HETATM   22  C   UNL     1       0.714   1.770   5.091  1.00  0.00     0.048 A 
HETATM   23  C   UNL     1      -0.604   1.351   4.921  1.00  0.00     0.102 A 
HETATM   24  C   UNL     1      -1.059   0.946   3.664  1.00  0.00     0.102 A 
HETATM   25  O   UNL     1      -1.396   1.358   6.039  1.00  0.00    -0.346 OA
HETATM   26  O   UNL     1      -2.330   0.494   3.433  1.00  0.00    -0.346 OA
HETATM   27  C   UNL     1      -0.206   1.001   2.565  1.00  0.00     0.040 A 
HETATM   28  C   UNL     1      -3.012   0.184   4.655  1.00  0.00     0.202 C 
HETATM   29  C   UNL     1      -2.785   1.274   5.691  1.00  0.00     0.202 C 
HETATM   30  C   UNL     1       1.111   1.434   2.727  1.00  0.00     0.012 A 
ENDBRANCH  20  21
ENDBRANCH  16  20
ENDBRANCH   9  13
BRANCH   9  31
HETATM   31  C   UNL     1       7.474  -1.585   2.635  1.00  0.00     0.080 C 
BRANCH  31  32
HETATM   32  C   UNL     1       8.318  -2.633   3.320  1.00  0.00    -0.052 A 
HETATM   33  C   UNL     1       7.729  -3.651   4.079  1.00  0.00     0.049 A 
HETATM   34  C   UNL     1       8.525  -4.615   4.692  1.00  0.00     0.116 A 
HETATM   35  F   UNL     1       7.943  -5.577   5.420  1.00  0.00    -0.206 F 
HETATM   36  C   UNL     1       9.907  -4.595   4.560  1.00  0.00     0.042 A 
HETATM   37  C   UNL     1      10.505  -3.595   3.798  1.00  0.00     0.003 A 
HETATM   38  C   UNL     1       9.716  -2.619   3.182  1.00  0.00     0.007 A 
ENDBRANCH  31  32
ENDBRANCH   9  31
ENDBRANCH   4   5
ENDBRANCH   3   4
TORSDOF 7
