REMARK  2 active torsions:
REMARK  status: ('A' for Active; 'I' for Inactive)
REMARK    1  A    between atoms: C_5  and  N_6 
REMARK    2  A    between atoms: C_9  and  C_10 
REMARK       I    between atoms: C_10  and  N_11 
ROOT
HETATM    1  N   UNL     1       6.919  -0.087  -0.581  1.00  0.00    -0.281 N 
HETATM    2  C   UNL     1       7.579   1.148  -0.765  1.00  0.00     0.268 A 
HETATM    3  O   UNL     1       7.065   2.270  -0.697  1.00  0.00    -0.267 OA
HETATM    4  C   UNL     1       9.043   1.107  -1.010  1.00  0.00     0.101 A 
HETATM    5  C   UNL     1       9.667  -0.078  -1.051  1.00  0.00     0.040 A 
HETATM    6  C   UNL     1       8.950  -1.321  -0.888  1.00  0.00     0.034 A 
HETATM    7  C   UNL     1       7.619  -1.319  -0.669  1.00  0.00     0.034 A 
HETATM    8  C   UNL     1       6.841  -2.627  -0.623  1.00  0.00     0.059 C 
HETATM    9  C   UNL     1       7.566  -3.783  -1.305  1.00  0.00     0.014 C 
HETATM   10  C   UNL     1       8.982  -3.909  -0.782  1.00  0.00     0.084 C 
HETATM   11  C   UNL     1       9.722  -2.609  -0.962  1.00  0.00     0.161 C 
HETATM   12  O   UNL     1      10.944  -2.583  -1.099  1.00  0.00    -0.292 OA
ENDROOT
BRANCH   4  13
HETATM   13  C   UNL     1       9.873   2.325  -1.178  1.00  0.00     0.262 C 
HETATM   14  N   UNL     1       9.189   3.554  -0.934  1.00  0.00    -0.309 N 
HETATM   15  H   UNL     1       8.189   3.467  -0.753  1.00  0.00     0.170 HD
HETATM   16  C   UNL     1       9.660   4.787  -0.899  1.00  0.00     0.108 A 
HETATM   17  N   UNL     1       8.848   5.818  -0.648  1.00  0.00    -0.346 N 
HETATM   18  C   UNL     1      11.109   5.114  -1.119  1.00  0.00     0.049 A 
HETATM   19  C   UNL     1       9.295   7.137  -0.582  1.00  0.00     0.007 A 
HETATM   20  H   UNL     1       7.862   5.649  -0.494  1.00  0.00     0.167 HD
HETATM   21  C   UNL     1       8.268   8.186  -0.278  1.00  0.00     0.068 C 
HETATM   22  C   UNL     1      10.591   7.429  -0.777  1.00  0.00     0.025 A 
HETATM   23  C   UNL     1      11.537   6.382  -1.059  1.00  0.00     0.006 A 
HETATM   24  O   UNL     1      11.051   2.311  -1.483  1.00  0.00    -0.267 OA
ENDBRANCH   4  13
BRANCH   1  25
HETATM   25  C   UNL     1       5.512  -0.032  -0.287  1.00  0.00     0.042 A 
HETATM   26  C   UNL     1       4.635   0.652  -1.138  1.00  0.00     0.030 A 
HETATM   27  C   UNL     1       3.255   0.619  -0.909  1.00  0.00     0.009 A 
HETATM   28  C   UNL     1       2.731  -0.083   0.181  1.00  0.00    -0.062 A 
HETATM   29  C   UNL     1       1.250  -0.166   0.414  1.00  0.00     0.048 C 
HETATM   30  C   UNL     1       3.609  -0.723   1.061  1.00  0.00     0.009 A 
HETATM   31  C   UNL     1       4.987  -0.695   0.830  1.00  0.00     0.030 A 
ENDBRANCH   1  25
TORSDOF 2
