REMARK  5 active torsions:
REMARK  status: ('A' for Active; 'I' for Inactive)
REMARK    1  A    between atoms: C_7  and  C_8 
REMARK    2  A    between atoms: C_16  and  C_17 
REMARK    3  A    between atoms: C_19  and  O_20 
REMARK    4  A    between atoms: C_24  and  C_25 
REMARK       I    between atoms: C_25  and  N_26 
REMARK    5  A    between atoms: N_26  and  C_27 
ROOT
HETATM    1  C   UNL     1       0.989   0.100   0.222  1.00  0.00     0.070 C 
HETATM    2  C   UNL     1       2.481  -0.030   0.039  1.00  0.00     0.037 C 
HETATM    3  N   UNL     1       3.171   1.171  -0.149  1.00  0.00    -0.192 N 
HETATM    4  C   UNL     1       4.512   1.252  -0.021  1.00  0.00     0.726 A 
HETATM    5  N   UNL     1       5.246   0.103  -0.009  1.00  0.00    -0.083 N 
HETATM    6  N   UNL     1       6.544   0.339   0.258  1.00  0.00    -0.135 NA
HETATM    7  C   UNL     1       6.549   1.683   0.356  1.00  0.00     0.199 A 
HETATM    8  N   UNL     1       5.306   2.271   0.175  1.00  0.00    -0.041 NA
HETATM    9  C   UNL     1       4.670  -1.232  -0.163  1.00  0.00     0.202 C 
HETATM   10  C   UNL     1       3.161  -1.207   0.067  1.00  0.00     0.062 C 
HETATM   11  H   UNL     1       2.637   2.024  -0.002  1.00  0.00     0.184 HD
ENDROOT
BRANCH  10  12
HETATM   12  C   UNL     1       2.507  -2.463   0.555  1.00  0.00     0.256 C 
HETATM   13  N   UNL     1       2.953  -3.620  -0.045  1.00  0.00    -0.323 N 
HETATM   14  H   UNL     1       3.589  -3.548  -0.828  1.00  0.00     0.169 HD
HETATM   15  O   UNL     1       1.690  -2.392   1.467  1.00  0.00    -0.267 OA
BRANCH  13  16
HETATM   16  C   UNL     1       2.635  -4.948   0.319  1.00  0.00     0.035 A 
HETATM   17  C   UNL     1       1.708  -5.293   1.305  1.00  0.00     0.029 A 
HETATM   18  C   UNL     1       1.471  -6.635   1.618  1.00  0.00     0.002 A 
HETATM   19  C   UNL     1       2.162  -7.645   0.954  1.00  0.00     0.000 A 
HETATM   20  C   UNL     1       3.087  -7.313  -0.032  1.00  0.00     0.002 A 
HETATM   21  C   UNL     1       3.317  -5.972  -0.352  1.00  0.00     0.029 A 
ENDBRANCH  13  16
ENDBRANCH  10  12
BRANCH   9  22
HETATM   22  C   UNL     1       5.069  -1.787  -1.533  1.00  0.00    -0.025 A 
HETATM   23  C   UNL     1       4.359  -1.462  -2.706  1.00  0.00     0.046 A 
HETATM   24  C   UNL     1       4.742  -2.010  -3.928  1.00  0.00     0.066 A 
HETATM   25  C   UNL     1       5.832  -2.865  -4.016  1.00  0.00     0.036 A 
HETATM   26  C   UNL     1       6.560  -3.174  -2.870  1.00  0.00     0.003 A 
HETATM   27  C   UNL     1       6.184  -2.638  -1.636  1.00  0.00     0.010 A 
BRANCH  24  28
HETATM   28  O   UNL     1       4.063  -1.729  -5.076  1.00  0.00    -0.361 OA
HETATM   29  H   UNL     1       3.375  -1.069  -4.888  1.00  0.00     0.217 HD
ENDBRANCH  24  28
ENDBRANCH   9  22
BRANCH   7  30
HETATM   30  C   UNL     1       7.742   2.462   0.679  1.00  0.00     0.014 A 
HETATM   31  C   UNL     1       9.000   1.846   0.775  1.00  0.00     0.017 A 
HETATM   32  C   UNL     1      10.136   2.590   1.108  1.00  0.00     0.025 A 
HETATM   33  C   UNL     1      10.020   3.957   1.349  1.00  0.00     0.034 A 
HETATM   34 CL   UNL     1      11.415   4.872   1.769  1.00  0.00    -0.084 Cl
HETATM   35  C   UNL     1       8.781   4.586   1.257  1.00  0.00     0.025 A 
HETATM   36  C   UNL     1       7.646   3.840   0.921  1.00  0.00     0.017 A 
ENDBRANCH   7  30
TORSDOF 5
