REMARK  5 active torsions:
REMARK  status: ('A' for Active; 'I' for Inactive)
REMARK    1  A    between atoms: C_7  and  O_8 
REMARK    2  A    between atoms: O_8  and  C_9 
REMARK    3  A    between atoms: C_12  and  N_13 
REMARK    4  A    between atoms: N_13  and  C_16 
REMARK    5  A    between atoms: C_16  and  C_17 
ROOT
HETATM    1  C   UNL     1       4.569   3.230   0.836  1.00  0.00     0.028 A 
HETATM    2  C   UNL     1       5.867   2.731   0.786  1.00  0.00     0.062 A 
HETATM    3  C   UNL     1       7.001   3.576   0.980  1.00  0.00     0.101 C 
HETATM    4  N   UNL     1       7.937   4.242   1.136  1.00  0.00    -0.191 NA
HETATM    5  C   UNL     1       6.035   1.372   0.541  1.00  0.00     0.142 A 
HETATM    6  N   UNL     1       5.016   0.491   0.347  1.00  0.00    -0.236 NA
HETATM    7  C   UNL     1       3.770   1.015   0.403  1.00  0.00     0.164 A 
HETATM    8  C   UNL     1       3.502   2.357   0.641  1.00  0.00     0.059 A 
ENDROOT
BRANCH   7   9
HETATM    9  O   UNL     1       2.662   0.221   0.223  1.00  0.00    -0.329 OA
BRANCH   9  10
HETATM   10  C   UNL     1       2.812  -1.174  -0.022  1.00  0.00     0.130 C 
HETATM   11  C   UNL     1       3.403  -1.955   1.160  1.00  0.00     0.034 C 
HETATM   12  C   UNL     1       3.436  -3.455   0.874  1.00  0.00     0.035 C 
HETATM   13  C   UNL     1       4.111  -3.802  -0.457  1.00  0.00     0.186 C 
HETATM   14  C   UNL     1       3.504  -3.008  -1.620  1.00  0.00     0.035 C 
HETATM   15  C   UNL     1       3.473  -1.501  -1.368  1.00  0.00     0.034 C 
BRANCH  13  16
HETATM   16  N   UNL     1       5.586  -3.526  -0.402  1.00  0.00    -0.067 N 
HETATM   17  H   UNL     1       5.973  -3.619  -1.351  1.00  0.00     0.278 HD
HETATM   18  H   UNL     1       5.776  -2.547  -0.136  1.00  0.00     0.278 HD
BRANCH  16  19
HETATM   19  C   UNL     1       6.385  -4.427   0.490  1.00  0.00     0.280 C 
BRANCH  19  20
HETATM   20  C   UNL     1       7.820  -4.441   0.114  1.00  0.00     0.027 A 
HETATM   21  S   UNL     1       8.813  -3.053   0.307  1.00  0.00    -0.084 SA
HETATM   22  C   UNL     1      10.144  -3.936  -0.323  1.00  0.00     0.166 A 
HETATM   23  N   UNL     1       9.887  -5.176  -0.674  1.00  0.00    -0.265 NA
HETATM   24  C   UNL     1       8.569  -5.476  -0.409  1.00  0.00     0.133 A 
ENDBRANCH  19  20
ENDBRANCH  16  19
ENDBRANCH  13  16
ENDBRANCH   9  10
ENDBRANCH   7   9
TORSDOF 5
