REMARK  3 active torsions:
REMARK  status: ('A' for Active; 'I' for Inactive)
REMARK    1  A    between atoms: C_8  and  C_9 
REMARK    2  A    between atoms: C_9  and  N_10 
REMARK    3  A    between atoms: C_14  and  C_15 
ROOT
HETATM    1  N   UNL     1       6.611  -4.397   0.062  1.00  0.00    -0.066 N 
HETATM    2  H   UNL     1       7.090  -4.530  -0.838  1.00  0.00     0.280 HD
HETATM    3  C   UNL     1       7.553  -3.656   0.985  1.00  0.00     0.236 C 
HETATM    4  C   UNL     1       8.771  -4.510   1.301  1.00  0.00     0.037 C 
HETATM    5  C   UNL     1       8.386  -5.852   1.934  1.00  0.00     0.024 C 
HETATM    6  C   UNL     1       7.502  -6.573   0.896  1.00  0.00     0.037 C 
HETATM    7  C   UNL     1       6.244  -5.774   0.574  1.00  0.00     0.236 C 
ENDROOT
BRANCH   1   8
HETATM    8  C   UNL     1       5.395  -3.536  -0.230  1.00  0.00     0.293 C 
BRANCH   8   9
HETATM    9  C   UNL     1       4.494  -4.127  -1.234  1.00  0.00     0.061 A 
HETATM   10  N   UNL     1       3.248  -4.669  -0.958  1.00  0.00    -0.307 N 
HETATM   11  C   UNL     1       2.561  -4.808   0.252  1.00  0.00     0.105 A 
HETATM   12  C   UNL     1       2.741  -5.124  -2.173  1.00  0.00     0.133 A 
HETATM   13  C   UNL     1       1.352  -5.403   0.270  1.00  0.00    -0.046 A 
HETATM   14  C   UNL     1       0.535  -5.601   1.510  1.00  0.00     0.049 C 
HETATM   15  C   UNL     1       0.798  -5.882  -0.994  1.00  0.00     0.012 A 
HETATM   16  C   UNL     1       1.463  -5.746  -2.157  1.00  0.00     0.051 A 
HETATM   17  N   UNL     1       3.575  -4.887  -3.160  1.00  0.00    -0.241 NA
HETATM   18  C   UNL     1       4.642  -4.249  -2.601  1.00  0.00     0.146 A 
ENDBRANCH   8   9
ENDBRANCH   1   8
BRANCH   5  19
HETATM   19  C   UNL     1       7.720  -5.768   3.302  1.00  0.00    -0.024 A 
HETATM   20  C   UNL     1       7.839  -4.763   4.335  1.00  0.00     0.018 A 
HETATM   21  C   UNL     1       6.971  -5.129   5.362  1.00  0.00     0.138 A 
HETATM   22  C   UNL     1       8.565  -3.574   4.548  1.00  0.00     0.017 A 
HETATM   23  N   UNL     1       6.704  -4.469   6.501  1.00  0.00    -0.242 NA
HETATM   24  N   UNL     1       6.416  -6.332   5.048  1.00  0.00    -0.350 N 
HETATM   25  C   UNL     1       7.415  -3.334   6.641  1.00  0.00     0.119 A 
HETATM   26  C   UNL     1       8.338  -2.855   5.726  1.00  0.00     0.020 A 
HETATM   27  H   UNL     1       5.791  -6.834   5.664  1.00  0.00     0.166 HD
HETATM   28  C   UNL     1       6.866  -6.736   3.821  1.00  0.00     0.098 A 
ENDBRANCH   5  19
TORSDOF 3
