REMARK  4 active torsions:
REMARK  status: ('A' for Active; 'I' for Inactive)
REMARK    1  A    between atoms: C_5  and  C_6 
REMARK    2  A    between atoms: N_7  and  N_8 
REMARK       I    between atoms: N_8  and  C_9 
REMARK    3  A    between atoms: C_9  and  C_10 
REMARK    4  A    between atoms: C_21  and  O_22 
ROOT
HETATM    1  N   UNL     1       1.267   5.107  -0.279  1.00  0.00    -0.242 N 
HETATM    2  C   UNL     1       0.630   6.338  -0.316  1.00  0.00     0.292 C 
HETATM    3  O   UNL     1       1.200   7.422  -0.408  1.00  0.00    -0.264 OA
HETATM    4  H   UNL     1       0.672   4.285  -0.201  1.00  0.00     0.192 HD
ENDROOT
BRANCH   1   5
HETATM    5  N   UNL     1       2.621   5.018  -0.360  1.00  0.00    -0.183 NA
HETATM    6  C   UNL     1       3.107   3.819  -0.319  1.00  0.00     0.153 C 
BRANCH   6   7
HETATM    7  C   UNL     1       4.565   3.598  -0.405  1.00  0.00     0.017 A 
HETATM    8  C   UNL     1       5.036   2.282  -0.349  1.00  0.00     0.034 A 
HETATM    9  C   UNL     1       6.409   2.042  -0.431  1.00  0.00     0.012 A 
HETATM   10  C   UNL     1       7.312   3.097  -0.568  1.00  0.00     0.022 A 
HETATM   11 BR   UNL     1       7.052   0.266  -0.355  1.00  0.00    -0.051 Br
HETATM   12  C   UNL     1       6.839   4.408  -0.623  1.00  0.00     0.039 A 
HETATM   13  C   UNL     1       5.471   4.658  -0.542  1.00  0.00     0.077 A 
BRANCH  13  14
HETATM   14  O   UNL     1       5.092   5.971  -0.605  1.00  0.00    -0.360 OA
HETATM   15  H   UNL     1       4.110   6.017  -0.534  1.00  0.00     0.217 HD
ENDBRANCH  13  14
ENDBRANCH   6   7
ENDBRANCH   1   5
BRANCH   2  16
HETATM   16  C   UNL     1      -0.835   6.206  -0.235  1.00  0.00     0.154 A 
HETATM   17  N   UNL     1      -1.436   4.996  -0.122  1.00  0.00    -0.169 NA
HETATM   18  N   UNL     1      -2.753   5.281  -0.067  1.00  0.00    -0.281 N 
HETATM   19  H   UNL     1      -3.413   4.514   0.017  1.00  0.00     0.189 HD
HETATM   20  C   UNL     1      -3.015   6.612  -0.140  1.00  0.00     0.036 A 
HETATM   21  C   UNL     1      -1.800   7.245  -0.257  1.00  0.00     0.002 A 
HETATM   22  C   UNL     1      -4.350   7.257  -0.127  1.00  0.00     0.059 C 
HETATM   23  C   UNL     1      -1.663   8.724  -0.351  1.00  0.00     0.043 C 
HETATM   24  C   UNL     1      -3.021   9.378  -0.682  1.00  0.00     0.005 C 
HETATM   25  C   UNL     1      -4.184   8.769   0.128  1.00  0.00     0.006 C 
ENDBRANCH   2  16
TORSDOF 4
