REMARK  3 active torsions:
REMARK  status: ('A' for Active; 'I' for Inactive)
REMARK    1  A    between atoms: C_8  and  C_9 
REMARK       I    between atoms: C_9  and  N_10 
REMARK    2  A    between atoms: N_10  and  N_11 
REMARK    3  A    between atoms: N_11  and  C_12 
ROOT
HETATM    1  C   UNL     1       3.723   1.452  -0.258  1.00  0.00     0.276 C 
HETATM    2  N   UNL     1       3.716   2.825  -0.317  1.00  0.00    -0.264 N 
HETATM    3  O   UNL     1       4.768   0.806  -0.362  1.00  0.00    -0.266 OA
HETATM    4  H   UNL     1       2.876   3.412  -0.272  1.00  0.00     0.190 HD
ENDROOT
BRANCH   2   5
HETATM    5  N   UNL     1       4.945   3.471  -0.486  1.00  0.00    -0.275 N 
HETATM    6  H   UNL     1       5.728   2.824  -0.612  1.00  0.00     0.189 HD
BRANCH   5   7
HETATM    7  C   UNL     1       5.032   4.708  -1.026  1.00  0.00     0.187 A 
HETATM    8  S   UNL     1       6.544   5.292  -1.598  1.00  0.00    -0.048 SA
HETATM    9  C   UNL     1       5.811   6.781  -2.047  1.00  0.00     0.043 A 
HETATM   10  C   UNL     1       4.451   6.732  -1.730  1.00  0.00     0.115 A 
HETATM   11  C   UNL     1       6.400   7.913  -2.636  1.00  0.00     0.063 A 
HETATM   12  N   UNL     1       4.026   5.541  -1.158  1.00  0.00    -0.219 NA
HETATM   13  C   UNL     1       3.665   7.871  -2.016  1.00  0.00     0.149 A 
HETATM   14  C   UNL     1       4.231   9.005  -2.597  1.00  0.00     0.087 A 
HETATM   15  F   UNL     1       2.355   7.882  -1.731  1.00  0.00    -0.203 F 
HETATM   16  C   UNL     1       5.582   9.010  -2.898  1.00  0.00     0.120 A 
HETATM   17  F   UNL     1       6.121  10.101  -3.457  1.00  0.00    -0.206 F 
ENDBRANCH   5   7
ENDBRANCH   2   5
BRANCH   1  18
HETATM   18  C   UNL     1       2.401   0.786  -0.061  1.00  0.00     0.110 A 
HETATM   19  C   UNL     1       1.130   1.537   0.027  1.00  0.00     0.304 A 
HETATM   20  O   UNL     1      -0.038   0.802   0.213  1.00  0.00    -0.274 OA
HETATM   21  O   UNL     1       1.094   2.761  -0.059  1.00  0.00    -0.259 OA
HETATM   22  C   UNL     1      -0.016  -0.599   0.326  1.00  0.00     0.089 A 
HETATM   23  C   UNL     1       1.183  -1.297   0.247  1.00  0.00    -0.001 A 
HETATM   24  C   UNL     1      -1.231  -1.251   0.521  1.00  0.00     0.038 A 
HETATM   25  C   UNL     1       1.165  -2.688   0.368  1.00  0.00     0.014 A 
HETATM   26  C   UNL     1       2.414  -0.554   0.043  1.00  0.00     0.037 A 
HETATM   27  C   UNL     1      -0.047  -3.357   0.566  1.00  0.00     0.001 A 
HETATM   28  C   UNL     1      -1.243  -2.639   0.642  1.00  0.00     0.003 A 
ENDBRANCH   1  18
TORSDOF 3
