REMARK  7 active torsions:
REMARK  status: ('A' for Active; 'I' for Inactive)
REMARK    1  A    between atoms: C_6  and  N_7 
REMARK    2  A    between atoms: C_10  and  C_11 
REMARK       I    between atoms: C_11  and  N_12 
REMARK    3  A    between atoms: N_12  and  C_13 
REMARK    4  A    between atoms: C_16  and  C_17 
REMARK    5  A    between atoms: C_17  and  N_18 
REMARK    6  A    between atoms: C_21  and  C_22 
REMARK       I    between atoms: C_22  and  N_23 
REMARK    7  A    between atoms: C_31  and  C_32 
ROOT
HETATM    1  C   UNL     1      -3.882  -4.421  -0.566  1.00  0.00     0.278 C 
HETATM    2  N   UNL     1      -4.197  -5.748  -0.796  1.00  0.00    -0.322 N 
HETATM    3  O   UNL     1      -2.776  -3.980  -0.282  1.00  0.00    -0.265 OA
HETATM    4  H   UNL     1      -5.180  -5.936  -0.978  1.00  0.00     0.169 HD
ENDROOT
BRANCH   2   5
HETATM    5  C   UNL     1      -3.318  -6.848  -0.786  1.00  0.00     0.035 A 
HETATM    6  C   UNL     1      -1.933  -6.731  -0.660  1.00  0.00     0.030 A 
HETATM    7  C   UNL     1      -1.115  -7.865  -0.660  1.00  0.00     0.011 A 
HETATM    8  C   UNL     1      -1.669  -9.147  -0.765  1.00  0.00    -0.032 A 
HETATM    9  C   UNL     1      -3.058  -9.266  -0.906  1.00  0.00     0.011 A 
HETATM   10  C   UNL     1      -3.871  -8.125  -0.923  1.00  0.00     0.030 A 
BRANCH   8  11
HETATM   11  C   UNL     1      -0.786 -10.365  -0.728  1.00  0.00     0.273 C 
BRANCH  11  12
HETATM   12  N   UNL     1      -0.042 -10.518   0.587  1.00  0.00    -0.066 N 
HETATM   13  H   UNL     1       0.334  -9.588   0.806  1.00  0.00     0.280 HD
HETATM   14  C   UNL     1      -0.968 -10.909   1.726  1.00  0.00     0.249 C 
HETATM   15  C   UNL     1      -0.197 -10.926   3.049  1.00  0.00     0.103 C 
HETATM   16  C   UNL     1       1.035 -11.830   2.959  1.00  0.00     0.017 C 
HETATM   17  C   UNL     1       1.909 -11.470   1.761  1.00  0.00     0.029 C 
HETATM   18  C   UNL     1       1.121 -11.467   0.459  1.00  0.00     0.235 C 
BRANCH  15  19
HETATM   19  C   UNL     1      -1.145 -11.394   4.135  1.00  0.00     0.221 C 
HETATM   20  N   UNL     1      -0.660 -11.368   5.405  1.00  0.00    -0.370 N 
HETATM   21  H   UNL     1      -1.286 -11.648   6.154  1.00  0.00     0.159 HD
HETATM   22  H   UNL     1       0.231 -10.973   5.675  1.00  0.00     0.159 HD
HETATM   23  O   UNL     1      -2.286 -11.770   3.897  1.00  0.00    -0.273 OA
ENDBRANCH  15  19
ENDBRANCH  11  12
ENDBRANCH   8  11
ENDBRANCH   2   5
BRANCH   1  24
HETATM   24  C   UNL     1      -5.031  -3.534  -0.704  1.00  0.00     0.175 C 
HETATM   25  N   UNL     1      -6.228  -3.939  -1.221  1.00  0.00    -0.152 NA
HETATM   26  N   UNL     1      -7.037  -2.892  -1.237  1.00  0.00     0.011 NA
HETATM   27  N   UNL     1      -6.337  -1.789  -0.845  1.00  0.00    -0.231 N 
HETATM   28  C   UNL     1      -5.128  -2.206  -0.332  1.00  0.00     0.174 C 
BRANCH  27  29
HETATM   29  C   UNL     1      -6.888  -0.496  -1.063  1.00  0.00     0.058 A 
HETATM   30  C   UNL     1      -8.266  -0.377  -1.306  1.00  0.00     0.073 A 
HETATM   31  C   UNL     1      -8.825   0.876  -1.539  1.00  0.00     0.118 A 
HETATM   32  C   UNL     1      -8.041   2.021  -1.553  1.00  0.00     0.042 A 
HETATM   33  F   UNL     1     -10.143   0.978  -1.754  1.00  0.00    -0.206 F 
HETATM   34  C   UNL     1      -6.670   1.912  -1.341  1.00  0.00     0.005 A 
HETATM   35  C   UNL     1      -6.091   0.658  -1.103  1.00  0.00     0.031 A 
ENDBRANCH  27  29
BRANCH  28  36
HETATM   36  C   UNL     1      -4.224  -1.397   0.479  1.00  0.00     0.436 C 
HETATM   37  F   UNL     1      -4.874  -0.424   1.165  1.00  0.00    -0.165 F 
HETATM   38  F   UNL     1      -3.587  -2.134   1.422  1.00  0.00    -0.165 F 
HETATM   39  F   UNL     1      -3.276  -0.791  -0.273  1.00  0.00    -0.165 F 
ENDBRANCH  28  36
ENDBRANCH   1  24
TORSDOF 7
