REMARK  7 active torsions:
REMARK  status: ('A' for Active; 'I' for Inactive)
REMARK    1  A    between atoms: C_2  and  O_3 
REMARK    2  A    between atoms: O_3  and  C_4 
REMARK    3  A    between atoms: C_4  and  C_5 
REMARK    4  A    between atoms: C_6  and  C_7 
REMARK    5  A    between atoms: C_18  and  S_19 
REMARK    6  A    between atoms: S_19  and  C_20 
REMARK    7  A    between atoms: C_20  and  C_21 
ROOT
HETATM    1  C   UNL     1       5.438   0.322  -0.398  1.00  0.00     0.070 A 
HETATM    2  C   UNL     1       6.572   0.923   0.420  1.00  0.00     0.203 A 
HETATM    3  N   UNL     1       7.384  -0.122   1.053  1.00  0.00    -0.082 N 
HETATM    4  C   UNL     1       7.115  -1.461   0.974  1.00  0.00     0.726 A 
HETATM    5  N   UNL     1       6.051  -1.877   0.261  1.00  0.00    -0.192 N 
HETATM    6  N   UNL     1       8.509   0.111   1.753  1.00  0.00    -0.128 NA
HETATM    7  C   UNL     1       8.836  -1.131   2.126  1.00  0.00     0.226 A 
HETATM    8  N   UNL     1       8.016  -2.126   1.650  1.00  0.00    -0.035 NA
HETATM    9  C   UNL     1       5.226  -1.016  -0.458  1.00  0.00     0.037 A 
HETATM   10  C   UNL     1       4.170  -1.678  -1.308  1.00  0.00     0.070 C 
HETATM   11  H   UNL     1       5.876  -2.876   0.178  1.00  0.00     0.184 HD
ENDROOT
BRANCH   7  12
HETATM   12  S   UNL     1      10.202  -1.409   3.165  1.00  0.00    -0.083 SA
BRANCH  12  13
HETATM   13  C   UNL     1      10.505  -3.164   2.839  1.00  0.00     0.121 C 
BRANCH  13  14
HETATM   14  C   UNL     1      11.679  -3.673   3.643  1.00  0.00    -0.047 A 
HETATM   15  C   UNL     1      11.471  -4.414   4.817  1.00  0.00     0.031 A 
HETATM   16  C   UNL     1      12.559  -4.857   5.569  1.00  0.00     0.034 A 
HETATM   17 CL   UNL     1      12.290  -5.769   7.003  1.00  0.00    -0.084 Cl
HETATM   18  C   UNL     1      13.862  -4.566   5.170  1.00  0.00     0.024 A 
HETATM   19  C   UNL     1      14.079  -3.826   4.008  1.00  0.00     0.002 A 
HETATM   20  C   UNL     1      12.995  -3.383   3.249  1.00  0.00     0.008 A 
ENDBRANCH  13  14
ENDBRANCH  12  13
ENDBRANCH   7  12
BRANCH   2  21
HETATM   21  C   UNL     1       6.078   1.908   1.480  1.00  0.00    -0.028 A 
HETATM   22  C   UNL     1       5.203   1.511   2.508  1.00  0.00     0.011 A 
HETATM   23  C   UNL     1       4.770   2.432   3.465  1.00  0.00     0.024 A 
HETATM   24  C   UNL     1       5.204   3.754   3.403  1.00  0.00     0.034 A 
HETATM   25 CL   UNL     1       4.670   4.885   4.584  1.00  0.00    -0.084 Cl
HETATM   26  C   UNL     1       6.066   4.166   2.391  1.00  0.00     0.024 A 
HETATM   27  C   UNL     1       6.500   3.248   1.432  1.00  0.00     0.011 A 
ENDBRANCH   2  21
BRANCH   1  28
HETATM   28  C   UNL     1       4.647   1.334  -1.125  1.00  0.00     0.293 C 
HETATM   29  O   UNL     1       5.156   2.275  -1.712  1.00  0.00    -0.259 OA
BRANCH  28  30
HETATM   30  O   UNL     1       3.322   1.111  -0.948  1.00  0.00    -0.318 OA
BRANCH  30  31
HETATM   31  C   UNL     1       2.446   2.117  -1.478  1.00  0.00     0.174 C 
HETATM   32  C   UNL     1       2.208   1.896  -2.960  1.00  0.00     0.034 C 
ENDBRANCH  30  31
ENDBRANCH  28  30
ENDBRANCH   1  28
TORSDOF 7
