REMARK  10 active torsions:
REMARK  status: ('A' for Active; 'I' for Inactive)
REMARK    1  A    between atoms: C_6  and  N_7 
REMARK    2  A    between atoms: C_6  and  C_29 
REMARK       I    between atoms: N_7  and  C_8 
REMARK    3  A    between atoms: N_7  and  C_23 
REMARK    4  A    between atoms: C_8  and  C_9 
REMARK    5  A    between atoms: C_9  and  N_10 
REMARK    6  A    between atoms: C_14  and  C_15 
REMARK    7  A    between atoms: C_23  and  C_24 
REMARK       I    between atoms: C_29  and  N_30 
REMARK    8  A    between atoms: N_30  and  C_31 
REMARK    9  A    between atoms: C_32  and  O_33 
REMARK   10  A    between atoms: C_36  and  O_37 
ROOT
HETATM    1  N   UNL     1       6.101   0.223   2.780  1.00  0.00    -0.326 N 
HETATM    2  C   UNL     1       7.245   0.065   1.960  1.00  0.00     0.239 C 
HETATM    3  O   UNL     1       7.170   0.155   0.735  1.00  0.00    -0.271 OA
ENDROOT
BRANCH   1   4
HETATM    4  C   UNL     1       4.738   0.174   2.126  1.00  0.00     0.120 C 
HETATM    5  C   UNL     1       4.449   1.463   1.316  1.00  0.00     0.069 C 
HETATM    6  C   UNL     1       3.139   1.434   0.534  1.00  0.00     0.237 C 
HETATM    7  N   UNL     1       3.024   0.177  -0.287  1.00  0.00    -0.075 N 
HETATM    8  C   UNL     1       1.721   0.152  -1.047  1.00  0.00     0.269 C 
HETATM    9  H   UNL     1       3.776   0.199  -0.993  1.00  0.00     0.279 HD
HETATM   10  C   UNL     1       3.200  -1.080   0.521  1.00  0.00     0.237 C 
HETATM   11  C   UNL     1       4.568  -1.060   1.190  1.00  0.00     0.069 C 
BRANCH   4  12
HETATM   12  C   UNL     1       3.664  -0.023   3.254  1.00  0.00     0.251 C 
HETATM   13  N   UNL     1       3.903  -1.127   4.042  1.00  0.00    -0.323 N 
HETATM   14  H   UNL     1       4.800  -1.598   3.948  1.00  0.00     0.169 HD
HETATM   15  O   UNL     1       2.647   0.664   3.275  1.00  0.00    -0.270 OA
BRANCH  13  16
HETATM   16  C   UNL     1       3.046  -1.746   4.979  1.00  0.00     0.068 A 
HETATM   17  C   UNL     1       3.514  -2.937   5.576  1.00  0.00     0.097 A 
HETATM   18  C   UNL     1       2.711  -3.626   6.493  1.00  0.00     0.075 A 
HETATM   19  C   UNL     1       1.445  -3.135   6.818  1.00  0.00     0.070 A 
HETATM   20  C   UNL     1       0.988  -1.960   6.220  1.00  0.00     0.039 A 
HETATM   21  C   UNL     1       1.782  -1.263   5.308  1.00  0.00     0.035 A 
BRANCH  17  22
HETATM   22  O   UNL     1       4.764  -3.344   5.160  1.00  0.00    -0.354 OA
HETATM   23  C   UNL     1       5.305  -4.510   5.776  1.00  0.00     0.210 C 
ENDBRANCH  17  22
BRANCH  19  24
HETATM   24  O   UNL     1       0.557  -3.709   7.684  1.00  0.00    -0.356 OA
HETATM   25  C   UNL     1       1.017  -4.814   8.453  1.00  0.00     0.210 C 
ENDBRANCH  19  24
ENDBRANCH  13  16
ENDBRANCH   4  12
ENDBRANCH   1   4
BRANCH   1  26
HETATM   26  C   UNL     1       6.262   1.213   3.866  1.00  0.00     0.192 C 
BRANCH  26  27
HETATM   27  C   UNL     1       6.740   0.641   5.149  1.00  0.00     0.070 A 
HETATM   28  O   UNL     1       7.111   1.576   6.073  1.00  0.00    -0.325 OA
HETATM   29  C   UNL     1       7.522   0.914   7.183  1.00  0.00     0.142 A 
HETATM   30  C   UNL     1       7.430  -0.443   6.988  1.00  0.00     0.027 A 
HETATM   31  C   UNL     1       6.928  -0.622   5.675  1.00  0.00     0.036 A 
ENDBRANCH  26  27
ENDBRANCH   1  26
BRANCH   2  32
HETATM   32  C   UNL     1       8.548  -0.321   2.697  1.00  0.00     0.228 C 
BRANCH  32  33
HETATM   33  N   UNL     1       9.727  -0.393   1.846  1.00  0.00    -0.347 N 
HETATM   34  C   UNL     1      10.103  -1.426   0.989  1.00  0.00     0.171 C 
HETATM   35  S   UNL     1       9.358  -2.881   0.734  1.00  0.00    -0.041 SA
HETATM   36  N   UNL     1      11.282  -1.046   0.355  1.00  0.00    -0.357 N 
HETATM   37  C   UNL     1      11.843   0.117   1.005  1.00  0.00     0.135 C 
HETATM   38  H   UNL     1      11.830  -1.718  -0.168  1.00  0.00     0.162 HD
HETATM   39  C   UNL     1      10.621   0.742   1.687  1.00  0.00     0.155 C 
BRANCH  37  40
HETATM   40  C   UNL     1      12.591   1.060   0.106  1.00  0.00    -0.034 A 
HETATM   41  C   UNL     1      12.175   1.323  -1.207  1.00  0.00     0.009 A 
HETATM   42  C   UNL     1      12.868   2.240  -2.001  1.00  0.00     0.001 A 
HETATM   43  C   UNL     1      13.978   2.911  -1.490  1.00  0.00     0.000 A 
HETATM   44  C   UNL     1      14.399   2.665  -0.186  1.00  0.00     0.001 A 
HETATM   45  C   UNL     1      13.709   1.747   0.607  1.00  0.00     0.009 A 
ENDBRANCH  37  40
ENDBRANCH  32  33
ENDBRANCH   2  32
TORSDOF 10
