REMARK  4 active torsions:
REMARK  status: ('A' for Active; 'I' for Inactive)
REMARK    1  A    between atoms: C_3  and  C_4 
REMARK    2  A    between atoms: C_5  and  C_6 
REMARK       I    between atoms: C_6  and  N_7 
REMARK    3  A    between atoms: N_7  and  C_8 
REMARK    4  A    between atoms: C_15  and  C_16 
REMARK       I    between atoms: C_16  and  N_17 
ROOT
HETATM    1  C   UNL     1      -1.817   4.657  -2.540  1.00  0.00     0.035 A 
HETATM    2  C   UNL     1      -1.754   4.838  -3.928  1.00  0.00     0.046 A 
HETATM    3  C   UNL     1      -2.909   5.242  -4.634  1.00  0.00     0.030 A 
HETATM    4  C   UNL     1      -4.086   5.453  -3.928  1.00  0.00     0.063 A 
HETATM    5  N   UNL     1      -5.010   5.821  -4.866  1.00  0.00    -0.277 N 
HETATM    6  H   UNL     1      -5.985   6.050  -4.710  1.00  0.00     0.189 HD
HETATM    7  N   UNL     1      -4.538   5.875  -6.122  1.00  0.00    -0.168 NA
HETATM    8  C   UNL     1      -3.238   5.520  -5.995  1.00  0.00     0.156 A 
HETATM    9  C   UNL     1      -4.185   5.290  -2.545  1.00  0.00     0.034 A 
HETATM   10  C   UNL     1      -3.025   4.891  -1.868  1.00  0.00     0.032 A 
ENDROOT
BRANCH   1  11
HETATM   11  N   UNL     1      -0.723   4.237  -1.752  1.00  0.00    -0.327 N 
HETATM   12  C   UNL     1       0.533   3.873  -2.190  1.00  0.00     0.227 C 
HETATM   13  O   UNL     1       0.936   3.875  -3.343  1.00  0.00    -0.273 OA
HETATM   14  H   UNL     1      -0.901   4.153  -0.762  1.00  0.00     0.169 HD
BRANCH  12  15
HETATM   15  C   UNL     1       1.481   3.394  -1.140  1.00  0.00     0.087 A 
HETATM   16  C   UNL     1       1.032   2.327  -0.146  1.00  0.00     0.034 A 
HETATM   17  C   UNL     1       1.413   3.712   0.325  1.00  0.00     0.025 A 
BRANCH  16  18
HETATM   18  C   UNL     1       1.927   1.122   0.073  1.00  0.00    -0.031 A 
HETATM   19  C   UNL     1       2.358   0.371  -1.040  1.00  0.00     0.009 A 
HETATM   20  C   UNL     1       3.161  -0.763  -0.900  1.00  0.00     0.001 A 
HETATM   21  C   UNL     1       3.553  -1.184   0.366  1.00  0.00     0.002 A 
HETATM   22  C   UNL     1       3.132  -0.474   1.488  1.00  0.00     0.024 A 
HETATM   23  C   UNL     1       2.322   0.659   1.343  1.00  0.00     0.040 A 
HETATM   24 CL   UNL     1       1.799   1.454   2.788  1.00  0.00    -0.084 Cl
ENDBRANCH  16  18
ENDBRANCH  12  15
ENDBRANCH   1  11
BRANCH   8  25
HETATM   25  C   UNL     1      -2.350   5.456  -7.164  1.00  0.00     0.270 C 
HETATM   26  N   UNL     1      -2.959   5.776  -8.347  1.00  0.00    -0.365 N 
HETATM   27  H   UNL     1      -3.939   6.030  -8.335  1.00  0.00     0.159 HD
HETATM   28  H   UNL     1      -2.425   5.765  -9.201  1.00  0.00     0.159 HD
HETATM   29  O   UNL     1      -1.163   5.149  -7.126  1.00  0.00    -0.266 OA
ENDBRANCH   8  25
TORSDOF 4
