REMARK  6 active torsions:
REMARK  status: ('A' for Active; 'I' for Inactive)
REMARK    1  A    between atoms: C_3  and  C_4 
REMARK    2  A    between atoms: C_9  and  C_10 
REMARK    3  A    between atoms: C_10  and  O_11 
REMARK    4  A    between atoms: C_10  and  C_12 
REMARK    5  A    between atoms: C_12  and  N_13 
REMARK    6  A    between atoms: C_17  and  C_18 
ROOT
HETATM    1  C   UNL     1      -2.518  -2.424  -0.375  1.00  0.00     0.271 C 
ENDROOT
BRANCH   1   2
HETATM    2  C   UNL     1      -1.951  -2.148  -1.794  1.00  0.00     0.177 C 
BRANCH   2   3
HETATM    3  C   UNL     1      -3.033  -1.978  -2.840  1.00  0.00    -0.027 A 
HETATM    4  C   UNL     1      -3.420  -3.031  -3.688  1.00  0.00     0.025 A 
HETATM    5  C   UNL     1      -4.445  -2.865  -4.637  1.00  0.00     0.048 A 
HETATM    6  C   UNL     1      -5.076  -1.620  -4.742  1.00  0.00     0.016 A 
HETATM    7  C   UNL     1      -4.698  -0.566  -3.912  1.00  0.00     0.001 A 
HETATM    8  C   UNL     1      -3.687  -0.743  -2.966  1.00  0.00     0.010 A 
BRANCH   5   9
HETATM    9  C   UNL     1      -4.834  -4.020  -5.533  1.00  0.00     0.417 C 
HETATM   10  F   UNL     1      -5.956  -3.794  -6.264  1.00  0.00    -0.166 F 
HETATM   11  F   UNL     1      -3.853  -4.345  -6.414  1.00  0.00    -0.166 F 
HETATM   12  F   UNL     1      -5.076  -5.148  -4.806  1.00  0.00    -0.166 F 
ENDBRANCH   5   9
ENDBRANCH   2   3
BRANCH   2  13
HETATM   13  O   UNL     1      -1.032  -3.172  -2.168  1.00  0.00    -0.389 OA
HETATM   14  H   UNL     1      -0.616  -2.889  -3.007  1.00  0.00     0.210 HD
ENDBRANCH   2  13
ENDBRANCH   1   2
BRANCH   1  15
HETATM   15  N   UNL     1      -3.426  -3.665  -0.280  1.00  0.00    -0.068 N 
HETATM   16  H   UNL     1      -4.064  -3.629  -1.086  1.00  0.00     0.280 HD
HETATM   17  C   UNL     1      -2.648  -4.963  -0.370  1.00  0.00     0.235 C 
HETATM   18  C   UNL     1      -3.598  -6.151  -0.268  1.00  0.00     0.037 C 
HETATM   19  C   UNL     1      -4.426  -6.128   1.025  1.00  0.00     0.025 C 
HETATM   20  C   UNL     1      -5.191  -4.798   1.071  1.00  0.00     0.037 C 
HETATM   21  C   UNL     1      -4.265  -3.593   0.975  1.00  0.00     0.235 C 
BRANCH  19  22
HETATM   22  C   UNL     1      -3.601  -6.401   2.257  1.00  0.00    -0.018 A 
HETATM   23  C   UNL     1      -3.762  -5.884   3.568  1.00  0.00     0.147 A 
HETATM   24  N   UNL     1      -2.829  -6.315   4.414  1.00  0.00    -0.187 NA
HETATM   25  N   UNL     1      -2.123  -7.197   3.696  1.00  0.00    -0.289 N 
HETATM   26  H   UNL     1      -1.377  -7.711   4.156  1.00  0.00     0.188 HD
HETATM   27  C   UNL     1      -2.533  -7.269   2.394  1.00  0.00     0.118 A 
ENDBRANCH  19  22
ENDBRANCH   1  15
TORSDOF 6
