MODEL 1
REMARK VINA RESULT:      -8.4      0.000      0.000
REMARK  4 active torsions:
REMARK  status: ('A' for Active; 'I' for Inactive)
REMARK    1  A    between atoms: C_5  and  C_6 
REMARK       I    between atoms: C_6  and  N_7 
REMARK    2  A    between atoms: N_7  and  C_8 
REMARK    3  A    between atoms: C_8  and  N_9 
REMARK    4  A    between atoms: N_9  and  C_10 
ROOT
HETATM    1  C   UNL     1      27.617  45.016  53.533  1.00  0.00     0.257 C 
HETATM    2  N   UNL     1      27.584  44.297  52.342  1.00  0.00    -0.299 N 
HETATM    3  O   UNL     1      26.862  45.922  53.863  1.00  0.00    -0.267 OA
HETATM    4  H   UNL     1      28.361  43.662  52.183  1.00  0.00     0.171 HD
ENDROOT
BRANCH   2   5
HETATM    5  C   UNL     1      26.718  44.331  51.267  1.00  0.00     0.180 C 
HETATM    6  S   UNL     1      26.773  43.381  49.893  1.00  0.00    -0.040 SA
BRANCH   5   7
HETATM    7  N   UNL     1      25.695  45.247  51.346  1.00  0.00    -0.318 N 
HETATM    8  H   UNL     1      24.999  45.021  52.044  1.00  0.00     0.170 HD
BRANCH   7   9
HETATM    9  C   UNL     1      25.510  46.426  50.608  1.00  0.00     0.129 A 
HETATM   10  N   UNL     1      24.258  46.805  50.264  1.00  0.00    -0.243 NA
HETATM   11  C   UNL     1      24.131  47.947  49.549  1.00  0.00     0.119 A 
HETATM   12  C   UNL     1      25.199  48.732  49.153  1.00  0.00     0.026 A 
HETATM   13  C   UNL     1      26.485  48.335  49.516  1.00  0.00    -0.057 A 
HETATM   14  C   UNL     1      27.687  49.123  49.087  1.00  0.00     0.048 C 
HETATM   15  C   UNL     1      26.638  47.157  50.255  1.00  0.00     0.057 A 
ENDBRANCH   7   9
ENDBRANCH   5   7
ENDBRANCH   2   5
BRANCH   1  16
HETATM   16  C   UNL     1      28.750  44.655  54.431  1.00  0.00     0.032 A 
HETATM   17  C   UNL     1      29.435  43.461  54.191  1.00  0.00     0.017 A 
HETATM   18  C   UNL     1      30.465  43.061  55.046  1.00  0.00     0.007 A 
HETATM   19  C   UNL     1      30.828  43.856  56.140  1.00  0.00    -0.062 A 
HETATM   20  C   UNL     1      31.917  43.426  57.078  1.00  0.00     0.048 C 
HETATM   21  C   UNL     1      30.160  45.069  56.356  1.00  0.00     0.007 A 
HETATM   22  C   UNL     1      29.128  45.472  55.505  1.00  0.00     0.017 A 
ENDBRANCH   1  16
TORSDOF 4
ENDMDL
MODEL 2
REMARK VINA RESULT:      -8.2      1.543      2.662
REMARK  4 active torsions:
REMARK  status: ('A' for Active; 'I' for Inactive)
REMARK    1  A    between atoms: C_5  and  C_6 
REMARK       I    between atoms: C_6  and  N_7 
REMARK    2  A    between atoms: N_7  and  C_8 
REMARK    3  A    between atoms: C_8  and  N_9 
REMARK    4  A    between atoms: N_9  and  C_10 
ROOT
HETATM    1  C   UNL     1      26.056  46.401  53.170  1.00  0.00     0.257 C 
HETATM    2  N   UNL     1      25.704  45.587  52.098  1.00  0.00    -0.299 N 
HETATM    3  O   UNL     1      25.566  47.485  53.458  1.00  0.00    -0.267 OA
HETATM    4  H   UNL     1      26.297  44.777  51.939  1.00  0.00     0.171 HD
ENDROOT
BRANCH   2   5
HETATM    5  C   UNL     1      24.723  45.704  51.132  1.00  0.00     0.180 C 
HETATM    6  S   UNL     1      23.992  44.468  50.277  1.00  0.00    -0.040 SA
BRANCH   5   7
HETATM    7  N   UNL     1      24.301  46.983  50.855  1.00  0.00    -0.318 N 
HETATM    8  H   UNL     1      23.477  47.262  51.371  1.00  0.00     0.170 HD
BRANCH   7   9
HETATM    9  C   UNL     1      24.862  47.924  49.978  1.00  0.00     0.129 A 
HETATM   10  N   UNL     1      26.206  47.995  49.850  1.00  0.00    -0.243 NA
HETATM   11  C   UNL     1      26.700  48.921  48.996  1.00  0.00     0.119 A 
HETATM   12  C   UNL     1      25.913  49.789  48.260  1.00  0.00     0.026 A 
HETATM   13  C   UNL     1      24.528  49.705  48.395  1.00  0.00    -0.057 A 
HETATM   14  C   UNL     1      23.622  50.642  47.654  1.00  0.00     0.048 C 
HETATM   15  C   UNL     1      23.998  48.755  49.275  1.00  0.00     0.057 A 
ENDBRANCH   7   9
ENDBRANCH   5   7
ENDBRANCH   2   5
BRANCH   1  16
HETATM   16  C   UNL     1      27.200  45.887  53.974  1.00  0.00     0.032 A 
HETATM   17  C   UNL     1      27.831  46.758  54.867  1.00  0.00     0.017 A 
HETATM   18  C   UNL     1      28.943  46.331  55.595  1.00  0.00     0.007 A 
HETATM   19  C   UNL     1      29.426  45.025  55.449  1.00  0.00    -0.062 A 
HETATM   20  C   UNL     1      30.633  44.561  56.210  1.00  0.00     0.048 C 
HETATM   21  C   UNL     1      28.770  44.145  54.579  1.00  0.00     0.007 A 
HETATM   22  C   UNL     1      27.659  44.570  53.846  1.00  0.00     0.017 A 
ENDBRANCH   1  16
TORSDOF 4
ENDMDL
MODEL 3
REMARK VINA RESULT:      -7.7      1.702      2.257
REMARK  4 active torsions:
REMARK  status: ('A' for Active; 'I' for Inactive)
REMARK    1  A    between atoms: C_5  and  C_6 
REMARK       I    between atoms: C_6  and  N_7 
REMARK    2  A    between atoms: N_7  and  C_8 
REMARK    3  A    between atoms: C_8  and  N_9 
REMARK    4  A    between atoms: N_9  and  C_10 
ROOT
HETATM    1  C   UNL     1      29.445  43.054  53.242  1.00  0.00     0.257 C 
HETATM    2  N   UNL     1      28.216  43.296  52.636  1.00  0.00    -0.299 N 
HETATM    3  O   UNL     1      30.282  42.229  52.898  1.00  0.00    -0.267 OA
HETATM    4  H   UNL     1      27.596  43.934  53.127  1.00  0.00     0.171 HD
ENDROOT
BRANCH   2   5
HETATM    5  C   UNL     1      27.624  42.767  51.506  1.00  0.00     0.180 C 
HETATM    6  S   UNL     1      27.270  41.162  51.205  1.00  0.00    -0.040 SA
BRANCH   5   7
HETATM    7  N   UNL     1      27.283  43.671  50.527  1.00  0.00    -0.318 N 
HETATM    8  H   UNL     1      27.540  43.378  49.594  1.00  0.00     0.170 HD
BRANCH   7   9
HETATM    9  C   UNL     1      26.632  44.907  50.659  1.00  0.00     0.129 A 
HETATM   10  N   UNL     1      25.591  45.024  51.514  1.00  0.00    -0.243 NA
HETATM   11  C   UNL     1      24.994  46.234  51.603  1.00  0.00     0.119 A 
HETATM   12  C   UNL     1      25.384  47.342  50.873  1.00  0.00     0.026 A 
HETATM   13  C   UNL     1      26.462  47.215  49.998  1.00  0.00    -0.057 A 
HETATM   14  C   UNL     1      26.910  48.368  49.151  1.00  0.00     0.048 C 
HETATM   15  C   UNL     1      27.092  45.970  49.890  1.00  0.00     0.057 A 
ENDBRANCH   7   9
ENDBRANCH   5   7
ENDBRANCH   2   5
BRANCH   1  16
HETATM   16  C   UNL     1      29.687  43.859  54.472  1.00  0.00     0.032 A 
HETATM   17  C   UNL     1      30.739  43.488  55.314  1.00  0.00     0.017 A 
HETATM   18  C   UNL     1      30.960  44.183  56.506  1.00  0.00     0.007 A 
HETATM   19  C   UNL     1      30.141  45.262  56.860  1.00  0.00    -0.062 A 
HETATM   20  C   UNL     1      30.355  46.002  58.148  1.00  0.00     0.048 C 
HETATM   21  C   UNL     1      29.109  45.651  55.996  1.00  0.00     0.007 A 
HETATM   22  C   UNL     1      28.883  44.957  54.804  1.00  0.00     0.017 A 
ENDBRANCH   1  16
TORSDOF 4
ENDMDL
MODEL 4
REMARK VINA RESULT:      -7.6      2.718      4.536
REMARK  4 active torsions:
REMARK  status: ('A' for Active; 'I' for Inactive)
REMARK    1  A    between atoms: C_5  and  C_6 
REMARK       I    between atoms: C_6  and  N_7 
REMARK    2  A    between atoms: N_7  and  C_8 
REMARK    3  A    between atoms: C_8  and  N_9 
REMARK    4  A    between atoms: N_9  and  C_10 
ROOT
HETATM    1  C   UNL     1      27.607  44.927  53.655  1.00  0.00     0.257 C 
HETATM    2  N   UNL     1      27.575  44.232  52.451  1.00  0.00    -0.299 N 
HETATM    3  O   UNL     1      26.827  45.798  54.019  1.00  0.00    -0.267 OA
HETATM    4  H   UNL     1      28.371  43.628  52.263  1.00  0.00     0.171 HD
ENDROOT
BRANCH   2   5
HETATM    5  C   UNL     1      26.686  44.255  51.394  1.00  0.00     0.180 C 
HETATM    6  S   UNL     1      26.077  45.602  50.614  1.00  0.00    -0.040 SA
BRANCH   5   7
HETATM    7  N   UNL     1      26.267  43.030  50.932  1.00  0.00    -0.318 N 
HETATM    8  H   UNL     1      25.266  42.894  50.985  1.00  0.00     0.170 HD
BRANCH   7   9
HETATM    9  C   UNL     1      27.033  41.980  50.403  1.00  0.00     0.129 A 
HETATM   10  N   UNL     1      27.660  41.125  51.242  1.00  0.00    -0.243 NA
HETATM   11  C   UNL     1      28.390  40.132  50.685  1.00  0.00     0.119 A 
HETATM   12  C   UNL     1      28.529  39.950  49.321  1.00  0.00     0.026 A 
HETATM   13  C   UNL     1      27.875  40.832  48.463  1.00  0.00    -0.057 A 
HETATM   14  C   UNL     1      28.016  40.711  46.975  1.00  0.00     0.048 C 
HETATM   15  C   UNL     1      27.116  41.867  49.020  1.00  0.00     0.057 A 
ENDBRANCH   7   9
ENDBRANCH   5   7
ENDBRANCH   2   5
BRANCH   1  16
HETATM   16  C   UNL     1      28.770  44.590  54.523  1.00  0.00     0.032 A 
HETATM   17  C   UNL     1      29.446  43.388  54.293  1.00  0.00     0.017 A 
HETATM   18  C   UNL     1      30.505  43.010  55.122  1.00  0.00     0.007 A 
HETATM   19  C   UNL     1      30.906  43.835  56.179  1.00  0.00    -0.062 A 
HETATM   20  C   UNL     1      32.027  43.430  57.090  1.00  0.00     0.048 C 
HETATM   21  C   UNL     1      30.247  45.054  56.385  1.00  0.00     0.007 A 
HETATM   22  C   UNL     1      29.186  45.435  55.559  1.00  0.00     0.017 A 
ENDBRANCH   1  16
TORSDOF 4
ENDMDL
MODEL 5
REMARK VINA RESULT:      -7.5      2.644      3.680
REMARK  4 active torsions:
REMARK  status: ('A' for Active; 'I' for Inactive)
REMARK    1  A    between atoms: C_5  and  C_6 
REMARK       I    between atoms: C_6  and  N_7 
REMARK    2  A    between atoms: N_7  and  C_8 
REMARK    3  A    between atoms: C_8  and  N_9 
REMARK    4  A    between atoms: N_9  and  C_10 
ROOT
HETATM    1  C   UNL     1      27.593  45.499  54.254  1.00  0.00     0.257 C 
HETATM    2  N   UNL     1      27.238  44.744  53.141  1.00  0.00    -0.299 N 
HETATM    3  O   UNL     1      27.068  46.540  54.631  1.00  0.00    -0.267 OA
HETATM    4  H   UNL     1      27.858  43.973  52.909  1.00  0.00     0.171 HD
ENDROOT
BRANCH   2   5
HETATM    5  C   UNL     1      26.221  44.882  52.217  1.00  0.00     0.180 C 
HETATM    6  S   UNL     1      26.033  46.106  51.095  1.00  0.00    -0.040 SA
BRANCH   5   7
HETATM    7  N   UNL     1      25.264  43.894  52.222  1.00  0.00    -0.318 N 
HETATM    8  H   UNL     1      24.936  43.649  53.146  1.00  0.00     0.170 HD
BRANCH   7   9
HETATM    9  C   UNL     1      24.698  43.212  51.134  1.00  0.00     0.129 A 
HETATM   10  N   UNL     1      23.431  43.498  50.756  1.00  0.00    -0.243 NA
HETATM   11  C   UNL     1      22.928  42.811  49.705  1.00  0.00     0.119 A 
HETATM   12  C   UNL     1      23.629  41.844  49.008  1.00  0.00     0.026 A 
HETATM   13  C   UNL     1      24.936  41.560  49.401  1.00  0.00    -0.057 A 
HETATM   14  C   UNL     1      25.736  40.496  48.711  1.00  0.00     0.048 C 
HETATM   15  C   UNL     1      25.475  42.258  50.487  1.00  0.00     0.057 A 
ENDBRANCH   7   9
ENDBRANCH   5   7
ENDBRANCH   2   5
BRANCH   1  16
HETATM   16  C   UNL     1      28.784  44.984  54.986  1.00  0.00     0.032 A 
HETATM   17  C   UNL     1      29.336  43.765  54.583  1.00  0.00     0.017 A 
HETATM   18  C   UNL     1      30.417  43.221  55.281  1.00  0.00     0.007 A 
HETATM   19  C   UNL     1      30.963  43.896  56.379  1.00  0.00    -0.062 A 
HETATM   20  C   UNL     1      32.110  43.311  57.150  1.00  0.00     0.048 C 
HETATM   21  C   UNL     1      30.427  45.134  56.758  1.00  0.00     0.007 A 
HETATM   22  C   UNL     1      29.345  45.680  56.064  1.00  0.00     0.017 A 
ENDBRANCH   1  16
TORSDOF 4
ENDMDL
MODEL 6
REMARK VINA RESULT:      -7.5      3.325      8.707
REMARK  4 active torsions:
REMARK  status: ('A' for Active; 'I' for Inactive)
REMARK    1  A    between atoms: C_5  and  C_6 
REMARK       I    between atoms: C_6  and  N_7 
REMARK    2  A    between atoms: N_7  and  C_8 
REMARK    3  A    between atoms: C_8  and  N_9 
REMARK    4  A    between atoms: N_9  and  C_10 
ROOT
HETATM    1  C   UNL     1      23.577  48.056  49.183  1.00  0.00     0.257 C 
HETATM    2  N   UNL     1      24.844  48.603  49.361  1.00  0.00    -0.299 N 
HETATM    3  O   UNL     1      23.296  46.866  49.116  1.00  0.00    -0.267 OA
HETATM    4  H   UNL     1      24.910  49.614  49.273  1.00  0.00     0.171 HD
ENDROOT
BRANCH   2   5
HETATM    5  C   UNL     1      26.080  48.023  49.566  1.00  0.00     0.180 C 
HETATM    6  S   UNL     1      27.571  48.632  49.120  1.00  0.00    -0.040 SA
BRANCH   5   7
HETATM    7  N   UNL     1      26.076  46.812  50.219  1.00  0.00    -0.318 N 
HETATM    8  H   UNL     1      26.076  46.014  49.598  1.00  0.00     0.170 HD
BRANCH   7   9
HETATM    9  C   UNL     1      26.083  46.556  51.599  1.00  0.00     0.129 A 
HETATM   10  N   UNL     1      25.722  47.536  52.458  1.00  0.00    -0.243 NA
HETATM   11  C   UNL     1      25.748  47.242  53.779  1.00  0.00     0.119 A 
HETATM   12  C   UNL     1      26.123  46.012  54.288  1.00  0.00     0.026 A 
HETATM   13  C   UNL     1      26.488  45.007  53.394  1.00  0.00    -0.057 A 
HETATM   14  C   UNL     1      26.940  43.664  53.885  1.00  0.00     0.048 C 
HETATM   15  C   UNL     1      26.469  45.291  52.025  1.00  0.00     0.057 A 
ENDBRANCH   7   9
ENDBRANCH   5   7
ENDBRANCH   2   5
BRANCH   1  16
HETATM   16  C   UNL     1      22.499  49.066  48.989  1.00  0.00     0.032 A 
HETATM   17  C   UNL     1      22.864  50.370  48.641  1.00  0.00     0.017 A 
HETATM   18  C   UNL     1      21.886  51.358  48.507  1.00  0.00     0.007 A 
HETATM   19  C   UNL     1      20.534  51.049  48.705  1.00  0.00    -0.062 A 
HETATM   20  C   UNL     1      19.477  52.107  48.585  1.00  0.00     0.048 C 
HETATM   21  C   UNL     1      20.172  49.733  49.019  1.00  0.00     0.007 A 
HETATM   22  C   UNL     1      21.147  48.743  49.157  1.00  0.00     0.017 A 
ENDBRANCH   1  16
TORSDOF 4
ENDMDL
MODEL 7
REMARK VINA RESULT:      -7.5      1.998      7.468
REMARK  4 active torsions:
REMARK  status: ('A' for Active; 'I' for Inactive)
REMARK    1  A    between atoms: C_5  and  C_6 
REMARK       I    between atoms: C_6  and  N_7 
REMARK    2  A    between atoms: N_7  and  C_8 
REMARK    3  A    between atoms: C_8  and  N_9 
REMARK    4  A    between atoms: N_9  and  C_10 
ROOT
HETATM    1  C   UNL     1      26.167  46.078  51.475  1.00  0.00     0.257 C 
HETATM    2  N   UNL     1      25.839  46.331  52.803  1.00  0.00    -0.299 N 
HETATM    3  O   UNL     1      26.824  45.136  51.049  1.00  0.00    -0.267 OA
HETATM    4  H   UNL     1      25.390  47.223  52.989  1.00  0.00     0.171 HD
ENDROOT
BRANCH   2   5
HETATM    5  C   UNL     1      26.075  45.621  53.964  1.00  0.00     0.180 C 
HETATM    6  S   UNL     1      25.180  44.347  54.571  1.00  0.00    -0.040 SA
BRANCH   5   7
HETATM    7  N   UNL     1      27.177  46.007  54.692  1.00  0.00    -0.318 N 
HETATM    8  H   UNL     1      27.095  46.930  55.097  1.00  0.00     0.170 HD
BRANCH   7   9
HETATM    9  C   UNL     1      28.359  45.294  54.943  1.00  0.00     0.129 A 
HETATM   10  N   UNL     1      29.106  45.605  56.026  1.00  0.00    -0.243 NA
HETATM   11  C   UNL     1      30.240  44.893  56.223  1.00  0.00     0.119 A 
HETATM   12  C   UNL     1      30.670  43.881  55.385  1.00  0.00     0.026 A 
HETATM   13  C   UNL     1      29.891  43.564  54.273  1.00  0.00    -0.057 A 
HETATM   14  C   UNL     1      30.322  42.502  53.305  1.00  0.00     0.048 C 
HETATM   15  C   UNL     1      28.716  44.290  54.050  1.00  0.00     0.057 A 
ENDBRANCH   7   9
ENDBRANCH   5   7
ENDBRANCH   2   5
BRANCH   1  16
HETATM   16  C   UNL     1      25.711  47.130  50.524  1.00  0.00     0.032 A 
HETATM   17  C   UNL     1      26.671  47.957  49.935  1.00  0.00     0.017 A 
HETATM   18  C   UNL     1      26.277  48.992  49.084  1.00  0.00     0.007 A 
HETATM   19  C   UNL     1      24.922  49.201  48.802  1.00  0.00    -0.062 A 
HETATM   20  C   UNL     1      24.485  50.323  47.907  1.00  0.00     0.048 C 
HETATM   21  C   UNL     1      23.965  48.348  49.368  1.00  0.00     0.007 A 
HETATM   22  C   UNL     1      24.355  47.313  50.222  1.00  0.00     0.017 A 
ENDBRANCH   1  16
TORSDOF 4
ENDMDL
MODEL 8
REMARK VINA RESULT:      -7.4      2.600      4.134
REMARK  4 active torsions:
REMARK  status: ('A' for Active; 'I' for Inactive)
REMARK    1  A    between atoms: C_5  and  C_6 
REMARK       I    between atoms: C_6  and  N_7 
REMARK    2  A    between atoms: N_7  and  C_8 
REMARK    3  A    between atoms: C_8  and  N_9 
REMARK    4  A    between atoms: N_9  and  C_10 
ROOT
HETATM    1  C   UNL     1      27.552  45.837  54.489  1.00  0.00     0.257 C 
HETATM    2  N   UNL     1      27.202  45.212  53.296  1.00  0.00    -0.299 N 
HETATM    3  O   UNL     1      27.022  46.826  54.981  1.00  0.00    -0.267 OA
HETATM    4  H   UNL     1      27.826  44.476  52.979  1.00  0.00     0.171 HD
ENDROOT
BRANCH   2   5
HETATM    5  C   UNL     1      26.186  45.450  52.393  1.00  0.00     0.180 C 
HETATM    6  S   UNL     1      25.759  46.916  51.713  1.00  0.00    -0.040 SA
BRANCH   5   7
HETATM    7  N   UNL     1      25.452  44.352  52.008  1.00  0.00    -0.318 N 
HETATM    8  H   UNL     1      24.452  44.496  52.046  1.00  0.00     0.170 HD
BRANCH   7   9
HETATM    9  C   UNL     1      25.908  43.098  51.573  1.00  0.00     0.129 A 
HETATM   10  N   UNL     1      25.205  42.423  50.636  1.00  0.00    -0.243 NA
HETATM   11  C   UNL     1      25.682  41.217  50.252  1.00  0.00     0.119 A 
HETATM   12  C   UNL     1      26.832  40.644  50.763  1.00  0.00     0.026 A 
HETATM   13  C   UNL     1      27.554  41.350  51.725  1.00  0.00    -0.057 A 
HETATM   14  C   UNL     1      28.789  40.767  52.345  1.00  0.00     0.048 C 
HETATM   15  C   UNL     1      27.076  42.598  52.137  1.00  0.00     0.057 A 
ENDBRANCH   7   9
ENDBRANCH   5   7
ENDBRANCH   2   5
BRANCH   1  16
HETATM   16  C   UNL     1      28.744  45.247  55.159  1.00  0.00     0.032 A 
HETATM   17  C   UNL     1      29.281  44.065  54.643  1.00  0.00     0.017 A 
HETATM   18  C   UNL     1      30.363  43.450  55.278  1.00  0.00     0.007 A 
HETATM   19  C   UNL     1      30.926  44.019  56.427  1.00  0.00    -0.062 A 
HETATM   20  C   UNL     1      32.074  43.357  57.131  1.00  0.00     0.048 C 
HETATM   21  C   UNL     1      30.406  45.223  56.921  1.00  0.00     0.007 A 
HETATM   22  C   UNL     1      29.323  45.839  56.289  1.00  0.00     0.017 A 
ENDBRANCH   1  16
TORSDOF 4
ENDMDL
MODEL 9
REMARK VINA RESULT:      -7.4      3.375      5.266
REMARK  4 active torsions:
REMARK  status: ('A' for Active; 'I' for Inactive)
REMARK    1  A    between atoms: C_5  and  C_6 
REMARK       I    between atoms: C_6  and  N_7 
REMARK    2  A    between atoms: N_7  and  C_8 
REMARK    3  A    between atoms: C_8  and  N_9 
REMARK    4  A    between atoms: N_9  and  C_10 
ROOT
HETATM    1  C   UNL     1      28.551  43.075  53.367  1.00  0.00     0.257 C 
HETATM    2  N   UNL     1      27.980  43.874  52.381  1.00  0.00    -0.299 N 
HETATM    3  O   UNL     1      28.555  41.851  53.408  1.00  0.00    -0.267 OA
HETATM    4  H   UNL     1      27.966  44.872  52.569  1.00  0.00     0.171 HD
ENDROOT
BRANCH   2   5
HETATM    5  C   UNL     1      27.343  43.563  51.196  1.00  0.00     0.180 C 
HETATM    6  S   UNL     1      26.882  44.622  49.987  1.00  0.00    -0.040 SA
BRANCH   5   7
HETATM    7  N   UNL     1      27.067  42.232  50.991  1.00  0.00    -0.318 N 
HETATM    8  H   UNL     1      26.382  41.854  51.632  1.00  0.00     0.170 HD
BRANCH   7   9
HETATM    9  C   UNL     1      27.595  41.362  50.025  1.00  0.00     0.129 A 
HETATM   10  N   UNL     1      27.500  41.686  48.716  1.00  0.00    -0.243 NA
HETATM   11  C   UNL     1      28.020  40.813  47.822  1.00  0.00     0.119 A 
HETATM   12  C   UNL     1      28.632  39.623  48.172  1.00  0.00     0.026 A 
HETATM   13  C   UNL     1      28.730  39.300  49.525  1.00  0.00    -0.057 A 
HETATM   14  C   UNL     1      29.348  38.008  49.967  1.00  0.00     0.048 C 
HETATM   15  C   UNL     1      28.197  40.188  50.465  1.00  0.00     0.057 A 
ENDBRANCH   7   9
ENDBRANCH   5   7
ENDBRANCH   2   5
BRANCH   1  16
HETATM   16  C   UNL     1      29.142  43.838  54.502  1.00  0.00     0.032 A 
HETATM   17  C   UNL     1      30.300  43.342  55.107  1.00  0.00     0.017 A 
HETATM   18  C   UNL     1      30.850  43.998  56.211  1.00  0.00     0.007 A 
HETATM   19  C   UNL     1      30.256  45.163  56.711  1.00  0.00    -0.062 A 
HETATM   20  C   UNL     1      30.825  45.864  57.909  1.00  0.00     0.048 C 
HETATM   21  C   UNL     1      29.116  45.675  56.080  1.00  0.00     0.007 A 
HETATM   22  C   UNL     1      28.561  45.021  54.977  1.00  0.00     0.017 A 
ENDBRANCH   1  16
TORSDOF 4
ENDMDL
MODEL 10
REMARK VINA RESULT:      -7.3     15.408     16.911
REMARK  4 active torsions:
REMARK  status: ('A' for Active; 'I' for Inactive)
REMARK    1  A    between atoms: C_5  and  C_6 
REMARK       I    between atoms: C_6  and  N_7 
REMARK    2  A    between atoms: N_7  and  C_8 
REMARK    3  A    between atoms: C_8  and  N_9 
REMARK    4  A    between atoms: N_9  and  C_10 
ROOT
HETATM    1  C   UNL     1      36.507  47.082  64.823  1.00  0.00     0.257 C 
HETATM    2  N   UNL     1      36.248  45.934  65.565  1.00  0.00    -0.299 N 
HETATM    3  O   UNL     1      36.493  47.184  63.603  1.00  0.00    -0.267 OA
HETATM    4  H   UNL     1      36.422  46.001  66.564  1.00  0.00     0.171 HD
ENDROOT
BRANCH   2   5
HETATM    5  C   UNL     1      35.861  44.662  65.193  1.00  0.00     0.180 C 
HETATM    6  S   UNL     1      34.873  43.616  66.043  1.00  0.00    -0.040 SA
BRANCH   5   7
HETATM    7  N   UNL     1      36.340  44.216  63.984  1.00  0.00    -0.318 N 
HETATM    8  H   UNL     1      35.654  44.239  63.240  1.00  0.00     0.170 HD
BRANCH   7   9
HETATM    9  C   UNL     1      37.626  43.757  63.662  1.00  0.00     0.129 A 
HETATM   10  N   UNL     1      38.665  44.622  63.683  1.00  0.00    -0.243 NA
HETATM   11  C   UNL     1      39.885  44.133  63.361  1.00  0.00     0.119 A 
HETATM   12  C   UNL     1      40.121  42.815  63.014  1.00  0.00     0.026 A 
HETATM   13  C   UNL     1      39.044  41.930  62.999  1.00  0.00    -0.057 A 
HETATM   14  C   UNL     1      39.227  40.498  62.595  1.00  0.00     0.048 C 
HETATM   15  C   UNL     1      37.774  42.416  63.327  1.00  0.00     0.057 A 
ENDBRANCH   7   9
ENDBRANCH   5   7
ENDBRANCH   2   5
BRANCH   1  16
HETATM   16  C   UNL     1      36.907  48.261  65.642  1.00  0.00     0.032 A 
HETATM   17  C   UNL     1      36.510  48.306  66.981  1.00  0.00     0.017 A 
HETATM   18  C   UNL     1      36.816  49.420  67.765  1.00  0.00     0.007 A 
HETATM   19  C   UNL     1      37.533  50.493  67.223  1.00  0.00    -0.062 A 
HETATM   20  C   UNL     1      37.849  51.705  68.049  1.00  0.00     0.048 C 
HETATM   21  C   UNL     1      37.959  50.428  65.890  1.00  0.00     0.007 A 
HETATM   22  C   UNL     1      37.652  49.316  65.101  1.00  0.00     0.017 A 
ENDBRANCH   1  16
TORSDOF 4
ENDMDL
