MODEL 1
REMARK VINA RESULT:      -9.3      0.000      0.000
REMARK  5 active torsions:
REMARK  status: ('A' for Active; 'I' for Inactive)
REMARK    1  A    between atoms: C_4  and  N_5 
REMARK       I    between atoms: N_5  and  C_6 
REMARK       I    between atoms: C_6  and  N_7 
REMARK    2  A    between atoms: N_7  and  C_8 
REMARK    3  A    between atoms: C_11  and  C_12 
REMARK    4  A    between atoms: C_12  and  C_13 
REMARK       I    between atoms: C_13  and  N_14 
REMARK    5  A    between atoms: N_14  and  C_15 
ROOT
HETATM    1  C   UNL     1      26.111  42.895  49.606  1.00  0.00     0.174 A 
HETATM    2  S   UNL     1      25.009  41.596  49.729  1.00  0.00    -0.062 SA
HETATM    3  C   UNL     1      26.179  40.718  50.617  1.00  0.00     0.081 A 
HETATM    4  C   UNL     1      27.315  41.487  50.798  1.00  0.00     0.052 A 
HETATM    5  N   UNL     1      27.252  42.757  50.235  1.00  0.00    -0.228 NA
ENDROOT
BRANCH   1   6
HETATM    6  N   UNL     1      25.637  43.937  48.857  1.00  0.00    -0.287 N 
HETATM    7  C   UNL     1      24.440  44.522  49.036  1.00  0.00     0.326 C 
HETATM    8  N   UNL     1      23.966  44.898  50.248  1.00  0.00    -0.309 N 
HETATM    9  O   UNL     1      23.751  44.767  48.040  1.00  0.00    -0.247 OA
HETATM   10  H   UNL     1      22.986  45.145  50.185  1.00  0.00     0.170 HD
HETATM   11  H   UNL     1      25.979  43.950  47.906  1.00  0.00     0.172 HD
BRANCH   8  12
HETATM   12  C   UNL     1      24.597  45.245  51.459  1.00  0.00     0.036 A 
HETATM   13  C   UNL     1      24.790  44.378  52.537  1.00  0.00     0.036 A 
HETATM   14  C   UNL     1      25.418  44.813  53.716  1.00  0.00    -0.060 A 
HETATM   15  C   UNL     1      25.516  43.891  54.895  1.00  0.00     0.048 C 
HETATM   16  C   UNL     1      25.894  46.124  53.794  1.00  0.00     0.007 A 
HETATM   17  C   UNL     1      25.765  46.979  52.703  1.00  0.00     0.003 A 
HETATM   18  C   UNL     1      25.117  46.543  51.546  1.00  0.00     0.029 A 
ENDBRANCH   8  12
ENDBRANCH   1   6
BRANCH   4  19
HETATM   19  C   UNL     1      28.521  41.093  51.573  1.00  0.00     0.163 C 
BRANCH  19  20
HETATM   20  C   UNL     1      28.523  41.677  52.975  1.00  0.00     0.227 C 
HETATM   21  N   UNL     1      29.535  42.607  53.158  1.00  0.00    -0.327 N 
HETATM   22  H   UNL     1      30.274  42.588  52.462  1.00  0.00     0.169 HD
HETATM   23  O   UNL     1      27.658  41.367  53.790  1.00  0.00    -0.273 OA
BRANCH  21  24
HETATM   24  C   UNL     1      29.707  43.496  54.236  1.00  0.00     0.036 A 
HETATM   25  C   UNL     1      30.673  43.154  55.193  1.00  0.00     0.056 A 
HETATM   26  C   UNL     1      30.917  43.994  56.280  1.00  0.00     0.074 A 
HETATM   27 CL   UNL     1      32.110  43.549  57.440  1.00  0.00    -0.081 Cl
HETATM   28  C   UNL     1      30.196  45.176  56.420  1.00  0.00     0.138 A 
HETATM   29  F   UNL     1      30.413  45.994  57.460  1.00  0.00    -0.204 F 
HETATM   30  C   UNL     1      29.235  45.527  55.480  1.00  0.00     0.046 A 
HETATM   31  C   UNL     1      28.993  44.689  54.386  1.00  0.00     0.032 A 
ENDBRANCH  21  24
ENDBRANCH  19  20
ENDBRANCH   4  19
TORSDOF 5
ENDMDL
MODEL 2
REMARK VINA RESULT:      -8.9      6.447      8.773
REMARK  5 active torsions:
REMARK  status: ('A' for Active; 'I' for Inactive)
REMARK    1  A    between atoms: C_4  and  N_5 
REMARK       I    between atoms: N_5  and  C_6 
REMARK       I    between atoms: C_6  and  N_7 
REMARK    2  A    between atoms: N_7  and  C_8 
REMARK    3  A    between atoms: C_11  and  C_12 
REMARK    4  A    between atoms: C_12  and  C_13 
REMARK       I    between atoms: C_13  and  N_14 
REMARK    5  A    between atoms: N_14  and  C_15 
ROOT
HETATM    1  C   UNL     1      20.045  47.884  49.300  1.00  0.00     0.174 A 
HETATM    2  S   UNL     1      19.896  46.837  47.960  1.00  0.00    -0.062 SA
HETATM    3  C   UNL     1      21.319  47.518  47.298  1.00  0.00     0.081 A 
HETATM    4  C   UNL     1      21.838  48.467  48.160  1.00  0.00     0.052 A 
HETATM    5  N   UNL     1      21.109  48.649  49.331  1.00  0.00    -0.228 NA
ENDROOT
BRANCH   1   6
HETATM    6  N   UNL     1      19.012  47.775  50.191  1.00  0.00    -0.287 N 
HETATM    7  C   UNL     1      18.679  48.717  51.091  1.00  0.00     0.326 C 
HETATM    8  N   UNL     1      18.561  50.031  50.787  1.00  0.00    -0.309 N 
HETATM    9  O   UNL     1      18.428  48.361  52.247  1.00  0.00    -0.247 OA
HETATM   10  H   UNL     1      18.486  50.585  51.631  1.00  0.00     0.170 HD
HETATM   11  H   UNL     1      18.810  46.826  50.473  1.00  0.00     0.172 HD
BRANCH   8  12
HETATM   12  C   UNL     1      18.275  50.718  49.591  1.00  0.00     0.036 A 
HETATM   13  C   UNL     1      17.154  50.495  48.788  1.00  0.00     0.036 A 
HETATM   14  C   UNL     1      16.953  51.218  47.601  1.00  0.00    -0.060 A 
HETATM   15  C   UNL     1      15.797  50.882  46.708  1.00  0.00     0.048 C 
HETATM   16  C   UNL     1      17.872  52.206  47.239  1.00  0.00     0.007 A 
HETATM   17  C   UNL     1      18.959  52.483  48.062  1.00  0.00     0.003 A 
HETATM   18  C   UNL     1      19.162  51.741  49.227  1.00  0.00     0.029 A 
ENDBRANCH   8  12
ENDBRANCH   1   6
BRANCH   4  19
HETATM   19  C   UNL     1      23.100  49.228  47.963  1.00  0.00     0.163 C 
BRANCH  19  20
HETATM   20  C   UNL     1      24.189  48.801  48.932  1.00  0.00     0.227 C 
HETATM   21  N   UNL     1      23.981  47.525  49.432  1.00  0.00    -0.327 N 
HETATM   22  H   UNL     1      23.043  47.157  49.308  1.00  0.00     0.169 HD
HETATM   23  O   UNL     1      25.155  49.527  49.155  1.00  0.00    -0.273 OA
BRANCH  21  24
HETATM   24  C   UNL     1      24.878  46.729  50.169  1.00  0.00     0.036 A 
HETATM   25  C   UNL     1      24.972  46.987  51.545  1.00  0.00     0.056 A 
HETATM   26  C   UNL     1      25.824  46.227  52.348  1.00  0.00     0.074 A 
HETATM   27 CL   UNL     1      25.920  46.566  54.033  1.00  0.00    -0.081 Cl
HETATM   28  C   UNL     1      26.587  45.210  51.783  1.00  0.00     0.138 A 
HETATM   29  F   UNL     1      27.414  44.471  52.537  1.00  0.00    -0.204 F 
HETATM   30  C   UNL     1      26.504  44.944  50.422  1.00  0.00     0.046 A 
HETATM   31  C   UNL     1      25.647  45.701  49.616  1.00  0.00     0.032 A 
ENDBRANCH  21  24
ENDBRANCH  19  20
ENDBRANCH   4  19
TORSDOF 5
ENDMDL
MODEL 3
REMARK VINA RESULT:      -8.5      2.688      4.114
REMARK  5 active torsions:
REMARK  status: ('A' for Active; 'I' for Inactive)
REMARK    1  A    between atoms: C_4  and  N_5 
REMARK       I    between atoms: N_5  and  C_6 
REMARK       I    between atoms: C_6  and  N_7 
REMARK    2  A    between atoms: N_7  and  C_8 
REMARK    3  A    between atoms: C_11  and  C_12 
REMARK    4  A    between atoms: C_12  and  C_13 
REMARK       I    between atoms: C_13  and  N_14 
REMARK    5  A    between atoms: N_14  and  C_15 
ROOT
HETATM    1  C   UNL     1      23.048  44.953  48.559  1.00  0.00     0.174 A 
HETATM    2  S   UNL     1      22.084  44.092  49.674  1.00  0.00    -0.062 SA
HETATM    3  C   UNL     1      23.388  43.015  49.936  1.00  0.00     0.081 A 
HETATM    4  C   UNL     1      24.485  43.407  49.189  1.00  0.00     0.052 A 
HETATM    5  N   UNL     1      24.287  44.548  48.420  1.00  0.00    -0.228 NA
ENDROOT
BRANCH   1   6
HETATM    6  N   UNL     1      22.384  45.983  47.952  1.00  0.00    -0.287 N 
HETATM    7  C   UNL     1      21.919  47.072  48.591  1.00  0.00     0.326 C 
HETATM    8  N   UNL     1      22.650  47.783  49.482  1.00  0.00    -0.309 N 
HETATM    9  O   UNL     1      20.780  47.469  48.323  1.00  0.00    -0.247 OA
HETATM   10  H   UNL     1      22.062  48.442  49.978  1.00  0.00     0.170 HD
HETATM   11  H   UNL     1      21.852  45.709  47.138  1.00  0.00     0.172 HD
BRANCH   8  12
HETATM   12  C   UNL     1      24.036  47.962  49.661  1.00  0.00     0.036 A 
HETATM   13  C   UNL     1      24.817  48.896  48.977  1.00  0.00     0.036 A 
HETATM   14  C   UNL     1      26.199  48.998  49.209  1.00  0.00    -0.060 A 
HETATM   15  C   UNL     1      27.028  49.936  48.383  1.00  0.00     0.048 C 
HETATM   16  C   UNL     1      26.793  48.178  50.171  1.00  0.00     0.007 A 
HETATM   17  C   UNL     1      26.015  47.288  50.906  1.00  0.00     0.003 A 
HETATM   18  C   UNL     1      24.647  47.178  50.649  1.00  0.00     0.029 A 
ENDBRANCH   8  12
ENDBRANCH   1   6
BRANCH   4  19
HETATM   19  C   UNL     1      25.824  42.760  49.200  1.00  0.00     0.163 C 
BRANCH  19  20
HETATM   20  C   UNL     1      26.813  43.494  50.089  1.00  0.00     0.227 C 
HETATM   21  N   UNL     1      26.971  42.881  51.322  1.00  0.00    -0.327 N 
HETATM   22  H   UNL     1      26.250  42.210  51.570  1.00  0.00     0.169 HD
HETATM   23  O   UNL     1      27.421  44.478  49.677  1.00  0.00    -0.273 OA
BRANCH  21  24
HETATM   24  C   UNL     1      27.947  43.147  52.301  1.00  0.00     0.036 A 
HETATM   25  C   UNL     1      27.680  44.193  53.195  1.00  0.00     0.056 A 
HETATM   26  C   UNL     1      28.590  44.506  54.207  1.00  0.00     0.074 A 
HETATM   27 CL   UNL     1      28.236  45.796  55.291  1.00  0.00    -0.081 Cl
HETATM   28  C   UNL     1      29.769  43.779  54.329  1.00  0.00     0.138 A 
HETATM   29  F   UNL     1      30.658  44.066  55.291  1.00  0.00    -0.204 F 
HETATM   30  C   UNL     1      30.047  42.740  53.449  1.00  0.00     0.046 A 
HETATM   31  C   UNL     1      29.134  42.422  52.438  1.00  0.00     0.032 A 
ENDBRANCH  21  24
ENDBRANCH  19  20
ENDBRANCH   4  19
TORSDOF 5
ENDMDL
MODEL 4
REMARK VINA RESULT:      -8.4      3.667      5.674
REMARK  5 active torsions:
REMARK  status: ('A' for Active; 'I' for Inactive)
REMARK    1  A    between atoms: C_4  and  N_5 
REMARK       I    between atoms: N_5  and  C_6 
REMARK       I    between atoms: C_6  and  N_7 
REMARK    2  A    between atoms: N_7  and  C_8 
REMARK    3  A    between atoms: C_11  and  C_12 
REMARK    4  A    between atoms: C_12  and  C_13 
REMARK       I    between atoms: C_13  and  N_14 
REMARK    5  A    between atoms: N_14  and  C_15 
ROOT
HETATM    1  C   UNL     1      21.265  46.186  47.880  1.00  0.00     0.174 A 
HETATM    2  S   UNL     1      21.622  45.781  46.261  1.00  0.00    -0.062 SA
HETATM    3  C   UNL     1      22.823  44.697  46.821  1.00  0.00     0.081 A 
HETATM    4  C   UNL     1      22.842  44.684  48.204  1.00  0.00     0.052 A 
HETATM    5  N   UNL     1      21.915  45.527  48.807  1.00  0.00    -0.228 NA
ENDROOT
BRANCH   1   6
HETATM    6  N   UNL     1      20.315  47.164  47.996  1.00  0.00    -0.287 N 
HETATM    7  C   UNL     1      20.189  47.982  49.056  1.00  0.00     0.326 C 
HETATM    8  N   UNL     1      21.232  48.628  49.630  1.00  0.00    -0.309 N 
HETATM    9  O   UNL     1      19.057  48.188  49.507  1.00  0.00    -0.247 OA
HETATM   10  H   UNL     1      20.953  49.038  50.512  1.00  0.00     0.170 HD
HETATM   11  H   UNL     1      19.453  46.962  47.510  1.00  0.00     0.172 HD
BRANCH   8  12
HETATM   12  C   UNL     1      22.488  49.041  49.145  1.00  0.00     0.036 A 
HETATM   13  C   UNL     1      23.709  48.453  49.483  1.00  0.00     0.036 A 
HETATM   14  C   UNL     1      24.920  48.940  48.962  1.00  0.00    -0.060 A 
HETATM   15  C   UNL     1      26.221  48.355  49.425  1.00  0.00     0.048 C 
HETATM   16  C   UNL     1      24.897  50.004  48.058  1.00  0.00     0.007 A 
HETATM   17  C   UNL     1      23.682  50.558  47.664  1.00  0.00     0.003 A 
HETATM   18  C   UNL     1      22.487  50.083  48.207  1.00  0.00     0.029 A 
ENDBRANCH   8  12
ENDBRANCH   1   6
BRANCH   4  19
HETATM   19  C   UNL     1      23.703  43.821  49.056  1.00  0.00     0.163 C 
BRANCH  19  20
HETATM   20  C   UNL     1      24.788  44.609  49.768  1.00  0.00     0.227 C 
HETATM   21  N   UNL     1      24.439  44.930  51.071  1.00  0.00    -0.327 N 
HETATM   22  H   UNL     1      23.453  44.839  51.292  1.00  0.00     0.169 HD
HETATM   23  O   UNL     1      25.859  44.849  49.217  1.00  0.00    -0.273 OA
BRANCH  21  24
HETATM   24  C   UNL     1      25.266  45.454  52.082  1.00  0.00     0.036 A 
HETATM   25  C   UNL     1      26.111  44.551  52.744  1.00  0.00     0.056 A 
HETATM   26  C   UNL     1      26.974  44.998  53.746  1.00  0.00     0.074 A 
HETATM   27 CL   UNL     1      28.000  43.867  54.542  1.00  0.00    -0.081 Cl
HETATM   28  C   UNL     1      26.998  46.344  54.093  1.00  0.00     0.138 A 
HETATM   29  F   UNL     1      27.818  46.792  55.055  1.00  0.00    -0.204 F 
HETATM   30  C   UNL     1      26.166  47.250  53.446  1.00  0.00     0.046 A 
HETATM   31  C   UNL     1      25.303  46.806  52.438  1.00  0.00     0.032 A 
ENDBRANCH  21  24
ENDBRANCH  19  20
ENDBRANCH   4  19
TORSDOF 5
ENDMDL
MODEL 5
REMARK VINA RESULT:      -8.4      2.880      4.338
REMARK  5 active torsions:
REMARK  status: ('A' for Active; 'I' for Inactive)
REMARK    1  A    between atoms: C_4  and  N_5 
REMARK       I    between atoms: N_5  and  C_6 
REMARK       I    between atoms: C_6  and  N_7 
REMARK    2  A    between atoms: N_7  and  C_8 
REMARK    3  A    between atoms: C_11  and  C_12 
REMARK    4  A    between atoms: C_12  and  C_13 
REMARK       I    between atoms: C_13  and  N_14 
REMARK    5  A    between atoms: N_14  and  C_15 
ROOT
HETATM    1  C   UNL     1      22.649  45.160  48.246  1.00  0.00     0.174 A 
HETATM    2  S   UNL     1      23.161  44.157  46.963  1.00  0.00    -0.062 SA
HETATM    3  C   UNL     1      23.942  43.142  48.098  1.00  0.00     0.081 A 
HETATM    4  C   UNL     1      23.725  43.610  49.382  1.00  0.00     0.052 A 
HETATM    5  N   UNL     1      22.949  44.762  49.457  1.00  0.00    -0.228 NA
ENDROOT
BRANCH   1   6
HETATM    6  N   UNL     1      21.967  46.270  47.826  1.00  0.00    -0.287 N 
HETATM    7  C   UNL     1      21.581  47.277  48.630  1.00  0.00     0.326 C 
HETATM    8  N   UNL     1      22.395  47.858  49.542  1.00  0.00    -0.309 N 
HETATM    9  O   UNL     1      20.435  47.722  48.504  1.00  0.00    -0.247 OA
HETATM   10  H   UNL     1      21.864  48.458  50.160  1.00  0.00     0.170 HD
HETATM   11  H   UNL     1      21.368  46.109  47.028  1.00  0.00     0.172 HD
BRANCH   8  12
HETATM   12  C   UNL     1      23.795  47.991  49.632  1.00  0.00     0.036 A 
HETATM   13  C   UNL     1      24.558  48.920  48.921  1.00  0.00     0.036 A 
HETATM   14  C   UNL     1      25.955  48.974  49.062  1.00  0.00    -0.060 A 
HETATM   15  C   UNL     1      26.757  49.910  48.207  1.00  0.00     0.048 C 
HETATM   16  C   UNL     1      26.586  48.110  49.961  1.00  0.00     0.007 A 
HETATM   17  C   UNL     1      25.830  47.224  50.723  1.00  0.00     0.003 A 
HETATM   18  C   UNL     1      24.445  47.162  50.556  1.00  0.00     0.029 A 
ENDBRANCH   8  12
ENDBRANCH   1   6
BRANCH   4  19
HETATM   19  C   UNL     1      24.188  42.961  50.637  1.00  0.00     0.163 C 
BRANCH  19  20
HETATM   20  C   UNL     1      25.533  43.492  51.100  1.00  0.00     0.227 C 
HETATM   21  N   UNL     1      25.651  43.498  52.481  1.00  0.00    -0.327 N 
HETATM   22  H   UNL     1      24.779  43.408  52.993  1.00  0.00     0.169 HD
HETATM   23  O   UNL     1      26.402  43.803  50.290  1.00  0.00    -0.273 OA
BRANCH  21  24
HETATM   24  C   UNL     1      26.812  43.712  53.248  1.00  0.00     0.036 A 
HETATM   25  C   UNL     1      27.054  45.023  53.682  1.00  0.00     0.056 A 
HETATM   26  C   UNL     1      28.174  45.312  54.464  1.00  0.00     0.074 A 
HETATM   27 CL   UNL     1      28.446  46.932  54.981  1.00  0.00    -0.081 Cl
HETATM   28  C   UNL     1      29.057  44.297  54.814  1.00  0.00     0.138 A 
HETATM   29  F   UNL     1      30.140  44.555  55.561  1.00  0.00    -0.204 F 
HETATM   30  C   UNL     1      28.830  42.993  54.391  1.00  0.00     0.046 A 
HETATM   31  C   UNL     1      27.706  42.700  53.612  1.00  0.00     0.032 A 
ENDBRANCH  21  24
ENDBRANCH  19  20
ENDBRANCH   4  19
TORSDOF 5
ENDMDL
MODEL 6
REMARK VINA RESULT:      -8.4     13.024     14.317
REMARK  5 active torsions:
REMARK  status: ('A' for Active; 'I' for Inactive)
REMARK    1  A    between atoms: C_4  and  N_5 
REMARK       I    between atoms: N_5  and  C_6 
REMARK       I    between atoms: C_6  and  N_7 
REMARK    2  A    between atoms: N_7  and  C_8 
REMARK    3  A    between atoms: C_11  and  C_12 
REMARK    4  A    between atoms: C_12  and  C_13 
REMARK       I    between atoms: C_13  and  N_14 
REMARK    5  A    between atoms: N_14  and  C_15 
ROOT
HETATM    1  C   UNL     1      28.332  48.614  38.869  1.00  0.00     0.174 A 
HETATM    2  S   UNL     1      27.523  48.031  40.255  1.00  0.00    -0.062 SA
HETATM    3  C   UNL     1      28.907  47.103  40.644  1.00  0.00     0.081 A 
HETATM    4  C   UNL     1      29.909  47.331  39.717  1.00  0.00     0.052 A 
HETATM    5  N   UNL     1      29.575  48.232  38.711  1.00  0.00    -0.228 NA
ENDROOT
BRANCH   1   6
HETATM    6  N   UNL     1      27.555  49.433  38.095  1.00  0.00    -0.287 N 
HETATM    7  C   UNL     1      26.875  50.498  38.555  1.00  0.00     0.326 C 
HETATM    8  N   UNL     1      27.413  51.428  39.378  1.00  0.00    -0.309 N 
HETATM    9  O   UNL     1      25.710  50.658  38.178  1.00  0.00    -0.247 OA
HETATM   10  H   UNL     1      26.691  52.034  39.749  1.00  0.00     0.170 HD
HETATM   11  H   UNL     1      27.137  48.973  37.299  1.00  0.00     0.172 HD
BRANCH   8  12
HETATM   12  C   UNL     1      28.735  51.862  39.603  1.00  0.00     0.036 A 
HETATM   13  C   UNL     1      29.832  51.533  38.803  1.00  0.00     0.036 A 
HETATM   14  C   UNL     1      31.121  51.999  39.110  1.00  0.00    -0.060 A 
HETATM   15  C   UNL     1      32.294  51.543  38.294  1.00  0.00     0.048 C 
HETATM   16  C   UNL     1      31.301  52.840  40.210  1.00  0.00     0.007 A 
HETATM   17  C   UNL     1      30.206  53.228  40.978  1.00  0.00     0.003 A 
HETATM   18  C   UNL     1      28.934  52.738  40.679  1.00  0.00     0.029 A 
ENDBRANCH   8  12
ENDBRANCH   1   6
BRANCH   4  19
HETATM   19  C   UNL     1      31.279  46.757  39.754  1.00  0.00     0.163 C 
BRANCH  19  20
HETATM   20  C   UNL     1      32.182  47.478  40.739  1.00  0.00     0.227 C 
HETATM   21  N   UNL     1      31.893  48.831  40.827  1.00  0.00    -0.327 N 
HETATM   22  H   UNL     1      31.329  49.206  40.071  1.00  0.00     0.169 HD
HETATM   23  O   UNL     1      33.013  46.862  41.401  1.00  0.00    -0.273 OA
BRANCH  21  24
HETATM   24  C   UNL     1      32.367  49.755  41.777  1.00  0.00     0.036 A 
HETATM   25  C   UNL     1      33.655  50.271  41.574  1.00  0.00     0.056 A 
HETATM   26  C   UNL     1      34.188  51.208  42.462  1.00  0.00     0.074 A 
HETATM   27 CL   UNL     1      35.772  51.824  42.187  1.00  0.00    -0.081 Cl
HETATM   28  C   UNL     1      33.441  51.632  43.555  1.00  0.00     0.138 A 
HETATM   29  F   UNL     1      33.936  52.528  44.421  1.00  0.00    -0.204 F 
HETATM   30  C   UNL     1      32.163  51.129  43.769  1.00  0.00     0.046 A 
HETATM   31  C   UNL     1      31.625  50.194  42.878  1.00  0.00     0.032 A 
ENDBRANCH  21  24
ENDBRANCH  19  20
ENDBRANCH   4  19
TORSDOF 5
ENDMDL
MODEL 7
REMARK VINA RESULT:      -8.1      6.698      9.334
REMARK  5 active torsions:
REMARK  status: ('A' for Active; 'I' for Inactive)
REMARK    1  A    between atoms: C_4  and  N_5 
REMARK       I    between atoms: N_5  and  C_6 
REMARK       I    between atoms: C_6  and  N_7 
REMARK    2  A    between atoms: N_7  and  C_8 
REMARK    3  A    between atoms: C_11  and  C_12 
REMARK    4  A    between atoms: C_12  and  C_13 
REMARK       I    between atoms: C_13  and  N_14 
REMARK    5  A    between atoms: N_14  and  C_15 
ROOT
HETATM    1  C   UNL     1      18.338  47.510  49.207  1.00  0.00     0.174 A 
HETATM    2  S   UNL     1      17.107  47.276  48.048  1.00  0.00    -0.062 SA
HETATM    3  C   UNL     1      18.309  47.066  46.848  1.00  0.00     0.081 A 
HETATM    4  C   UNL     1      19.568  47.145  47.417  1.00  0.00     0.052 A 
HETATM    5  N   UNL     1      19.572  47.372  48.789  1.00  0.00    -0.228 NA
ENDROOT
BRANCH   1   6
HETATM    6  N   UNL     1      17.858  47.809  50.453  1.00  0.00    -0.287 N 
HETATM    7  C   UNL     1      18.508  48.559  51.361  1.00  0.00     0.326 C 
HETATM    8  N   UNL     1      19.095  49.743  51.068  1.00  0.00    -0.309 N 
HETATM    9  O   UNL     1      18.538  48.168  52.532  1.00  0.00    -0.247 OA
HETATM   10  H   UNL     1      19.679  50.049  51.837  1.00  0.00     0.170 HD
HETATM   11  H   UNL     1      17.252  47.101  50.843  1.00  0.00     0.172 HD
BRANCH   8  12
HETATM   12  C   UNL     1      18.862  50.709  50.069  1.00  0.00     0.036 A 
HETATM   13  C   UNL     1      17.613  51.246  49.751  1.00  0.00     0.036 A 
HETATM   14  C   UNL     1      17.470  52.198  48.727  1.00  0.00    -0.060 A 
HETATM   15  C   UNL     1      16.103  52.677  48.338  1.00  0.00     0.048 C 
HETATM   16  C   UNL     1      18.603  52.643  48.044  1.00  0.00     0.007 A 
HETATM   17  C   UNL     1      19.862  52.164  48.394  1.00  0.00     0.003 A 
HETATM   18  C   UNL     1      19.989  51.200  49.396  1.00  0.00     0.029 A 
ENDBRANCH   8  12
ENDBRANCH   1   6
BRANCH   4  19
HETATM   19  C   UNL     1      20.860  46.949  46.707  1.00  0.00     0.163 C 
BRANCH  19  20
HETATM   20  C   UNL     1      22.057  47.247  47.593  1.00  0.00     0.227 C 
HETATM   21  N   UNL     1      22.431  46.154  48.359  1.00  0.00    -0.327 N 
HETATM   22  H   UNL     1      21.738  45.416  48.432  1.00  0.00     0.169 HD
HETATM   23  O   UNL     1      22.625  48.335  47.542  1.00  0.00    -0.273 OA
BRANCH  21  24
HETATM   24  C   UNL     1      23.605  45.993  49.119  1.00  0.00     0.036 A 
HETATM   25  C   UNL     1      24.328  44.807  48.928  1.00  0.00     0.056 A 
HETATM   26  C   UNL     1      25.513  44.582  49.631  1.00  0.00     0.074 A 
HETATM   27 CL   UNL     1      26.380  43.116  49.376  1.00  0.00    -0.081 Cl
HETATM   28  C   UNL     1      25.981  45.537  50.527  1.00  0.00     0.138 A 
HETATM   29  F   UNL     1      27.116  45.338  51.214  1.00  0.00    -0.204 F 
HETATM   30  C   UNL     1      25.275  46.717  50.727  1.00  0.00     0.046 A 
HETATM   31  C   UNL     1      24.090  46.947  50.020  1.00  0.00     0.032 A 
ENDBRANCH  21  24
ENDBRANCH  19  20
ENDBRANCH   4  19
TORSDOF 5
ENDMDL
MODEL 8
REMARK VINA RESULT:      -8.0      5.387      8.372
REMARK  5 active torsions:
REMARK  status: ('A' for Active; 'I' for Inactive)
REMARK    1  A    between atoms: C_4  and  N_5 
REMARK       I    between atoms: N_5  and  C_6 
REMARK       I    between atoms: C_6  and  N_7 
REMARK    2  A    between atoms: N_7  and  C_8 
REMARK    3  A    between atoms: C_11  and  C_12 
REMARK    4  A    between atoms: C_12  and  C_13 
REMARK       I    between atoms: C_13  and  N_14 
REMARK    5  A    between atoms: N_14  and  C_15 
ROOT
HETATM    1  C   UNL     1      25.804  45.670  51.426  1.00  0.00     0.174 A 
HETATM    2  S   UNL     1      26.999  45.254  50.279  1.00  0.00    -0.062 SA
HETATM    3  C   UNL     1      26.071  43.884  49.844  1.00  0.00     0.081 A 
HETATM    4  C   UNL     1      24.893  43.857  50.569  1.00  0.00     0.052 A 
HETATM    5  N   UNL     1      24.735  44.914  51.460  1.00  0.00    -0.228 NA
ENDROOT
BRANCH   1   6
HETATM    6  N   UNL     1      26.128  46.773  52.168  1.00  0.00    -0.287 N 
HETATM    7  C   UNL     1      25.906  46.895  53.489  1.00  0.00     0.326 C 
HETATM    8  N   UNL     1      26.215  45.933  54.389  1.00  0.00    -0.309 N 
HETATM    9  O   UNL     1      25.432  47.956  53.909  1.00  0.00    -0.247 OA
HETATM   10  H   UNL     1      25.804  46.145  55.290  1.00  0.00     0.170 HD
HETATM   11  H   UNL     1      26.102  47.641  51.651  1.00  0.00     0.172 HD
BRANCH   8  12
HETATM   12  C   UNL     1      27.161  44.888  54.392  1.00  0.00     0.036 A 
HETATM   13  C   UNL     1      28.453  44.979  54.914  1.00  0.00     0.036 A 
HETATM   14  C   UNL     1      29.337  43.889  54.861  1.00  0.00    -0.060 A 
HETATM   15  C   UNL     1      30.751  44.050  55.334  1.00  0.00     0.048 C 
HETATM   16  C   UNL     1      28.901  42.680  54.315  1.00  0.00     0.007 A 
HETATM   17  C   UNL     1      27.595  42.556  53.849  1.00  0.00     0.003 A 
HETATM   18  C   UNL     1      26.733  43.654  53.883  1.00  0.00     0.029 A 
ENDBRANCH   8  12
ENDBRANCH   1   6
BRANCH   4  19
HETATM   19  C   UNL     1      23.801  42.859  50.424  1.00  0.00     0.163 C 
BRANCH  19  20
HETATM   20  C   UNL     1      22.738  43.303  49.435  1.00  0.00     0.227 C 
HETATM   21  N   UNL     1      22.401  44.639  49.588  1.00  0.00    -0.327 N 
HETATM   22  H   UNL     1      22.689  45.063  50.463  1.00  0.00     0.169 HD
HETATM   23  O   UNL     1      22.312  42.534  48.577  1.00  0.00    -0.273 OA
BRANCH  21  24
HETATM   24  C   UNL     1      21.628  45.439  48.725  1.00  0.00     0.036 A 
HETATM   25  C   UNL     1      20.242  45.232  48.737  1.00  0.00     0.056 A 
HETATM   26  C   UNL     1      19.406  46.000  47.925  1.00  0.00     0.074 A 
HETATM   27 CL   UNL     1      17.707  45.723  47.961  1.00  0.00    -0.081 Cl
HETATM   28  C   UNL     1      19.949  46.974  47.094  1.00  0.00     0.138 A 
HETATM   29  F   UNL     1      19.164  47.720  46.304  1.00  0.00    -0.204 F 
HETATM   30  C   UNL     1      21.321  47.190  47.071  1.00  0.00     0.046 A 
HETATM   31  C   UNL     1      22.161  46.426  47.889  1.00  0.00     0.032 A 
ENDBRANCH  21  24
ENDBRANCH  19  20
ENDBRANCH   4  19
TORSDOF 5
ENDMDL
MODEL 9
REMARK VINA RESULT:      -7.9     12.872     13.988
REMARK  5 active torsions:
REMARK  status: ('A' for Active; 'I' for Inactive)
REMARK    1  A    between atoms: C_4  and  N_5 
REMARK       I    between atoms: N_5  and  C_6 
REMARK       I    between atoms: C_6  and  N_7 
REMARK    2  A    between atoms: N_7  and  C_8 
REMARK    3  A    between atoms: C_11  and  C_12 
REMARK    4  A    between atoms: C_12  and  C_13 
REMARK       I    between atoms: C_13  and  N_14 
REMARK    5  A    between atoms: N_14  and  C_15 
ROOT
HETATM    1  C   UNL     1      27.039  47.822  39.134  1.00  0.00     0.174 A 
HETATM    2  S   UNL     1      26.419  46.695  40.256  1.00  0.00    -0.062 SA
HETATM    3  C   UNL     1      28.008  46.115  40.516  1.00  0.00     0.081 A 
HETATM    4  C   UNL     1      28.910  46.846  39.764  1.00  0.00     0.052 A 
HETATM    5  N   UNL     1      28.341  47.853  38.991  1.00  0.00    -0.228 NA
ENDROOT
BRANCH   1   6
HETATM    6  N   UNL     1      26.067  48.570  38.526  1.00  0.00    -0.287 N 
HETATM    7  C   UNL     1      25.366  49.545  39.131  1.00  0.00     0.326 C 
HETATM    8  N   UNL     1      25.933  50.510  39.893  1.00  0.00    -0.309 N 
HETATM    9  O   UNL     1      24.144  49.588  38.951  1.00  0.00    -0.247 OA
HETATM   10  H   UNL     1      25.224  51.027  40.397  1.00  0.00     0.170 HD
HETATM   11  H   UNL     1      25.573  48.085  37.790  1.00  0.00     0.172 HD
BRANCH   8  12
HETATM   12  C   UNL     1      27.223  51.077  39.920  1.00  0.00     0.036 A 
HETATM   13  C   UNL     1      28.020  51.307  38.796  1.00  0.00     0.036 A 
HETATM   14  C   UNL     1      29.303  51.866  38.916  1.00  0.00    -0.060 A 
HETATM   15  C   UNL     1      30.175  52.003  37.704  1.00  0.00     0.048 C 
HETATM   16  C   UNL     1      29.772  52.236  40.179  1.00  0.00     0.007 A 
HETATM   17  C   UNL     1      28.963  52.072  41.299  1.00  0.00     0.003 A 
HETATM   18  C   UNL     1      27.699  51.492  41.171  1.00  0.00     0.029 A 
ENDBRANCH   8  12
ENDBRANCH   1   6
BRANCH   4  19
HETATM   19  C   UNL     1      30.388  46.683  39.772  1.00  0.00     0.163 C 
BRANCH  19  20
HETATM   20  C   UNL     1      31.115  48.004  39.949  1.00  0.00     0.227 C 
HETATM   21  N   UNL     1      31.520  48.211  41.258  1.00  0.00    -0.327 N 
HETATM   22  H   UNL     1      31.074  47.619  41.952  1.00  0.00     0.169 HD
HETATM   23  O   UNL     1      31.343  48.733  38.988  1.00  0.00    -0.273 OA
BRANCH  21  24
HETATM   24  C   UNL     1      32.394  49.202  41.746  1.00  0.00     0.036 A 
HETATM   25  C   UNL     1      31.920  50.008  42.791  1.00  0.00     0.056 A 
HETATM   26  C   UNL     1      32.735  50.999  43.342  1.00  0.00     0.074 A 
HETATM   27 CL   UNL     1      32.127  51.974  44.624  1.00  0.00    -0.081 Cl
HETATM   28  C   UNL     1      34.021  51.193  42.851  1.00  0.00     0.138 A 
HETATM   29  F   UNL     1      34.818  52.142  43.364  1.00  0.00    -0.204 F 
HETATM   30  C   UNL     1      34.503  50.402  41.815  1.00  0.00     0.046 A 
HETATM   31  C   UNL     1      33.691  49.404  41.265  1.00  0.00     0.032 A 
ENDBRANCH  21  24
ENDBRANCH  19  20
ENDBRANCH   4  19
TORSDOF 5
ENDMDL
MODEL 10
REMARK VINA RESULT:      -7.7     13.314     15.515
REMARK  5 active torsions:
REMARK  status: ('A' for Active; 'I' for Inactive)
REMARK    1  A    between atoms: C_4  and  N_5 
REMARK       I    between atoms: N_5  and  C_6 
REMARK       I    between atoms: C_6  and  N_7 
REMARK    2  A    between atoms: N_7  and  C_8 
REMARK    3  A    between atoms: C_11  and  C_12 
REMARK    4  A    between atoms: C_12  and  C_13 
REMARK       I    between atoms: C_13  and  N_14 
REMARK    5  A    between atoms: N_14  and  C_15 
ROOT
HETATM    1  C   UNL     1      31.441  52.548  41.775  1.00  0.00     0.174 A 
HETATM    2  S   UNL     1      31.691  53.349  40.289  1.00  0.00    -0.062 SA
HETATM    3  C   UNL     1      29.998  53.362  40.038  1.00  0.00     0.081 A 
HETATM    4  C   UNL     1      29.352  52.795  41.122  1.00  0.00     0.052 A 
HETATM    5  N   UNL     1      30.197  52.355  42.136  1.00  0.00    -0.228 NA
ENDROOT
BRANCH   1   6
HETATM    6  N   UNL     1      32.606  52.216  42.413  1.00  0.00    -0.287 N 
HETATM    7  C   UNL     1      32.690  51.369  43.454  1.00  0.00     0.326 C 
HETATM    8  N   UNL     1      32.076  50.162  43.487  1.00  0.00    -0.309 N 
HETATM    9  O   UNL     1      33.395  51.689  44.416  1.00  0.00    -0.247 OA
HETATM   10  H   UNL     1      32.113  49.770  44.419  1.00  0.00     0.170 HD
HETATM   11  H   UNL     1      33.306  52.943  42.399  1.00  0.00     0.172 HD
BRANCH   8  12
HETATM   12  C   UNL     1      31.648  49.275  42.479  1.00  0.00     0.036 A 
HETATM   13  C   UNL     1      30.330  48.854  42.291  1.00  0.00     0.036 A 
HETATM   14  C   UNL     1      29.993  47.954  41.266  1.00  0.00    -0.060 A 
HETATM   15  C   UNL     1      28.589  47.438  41.155  1.00  0.00     0.048 C 
HETATM   16  C   UNL     1      30.988  47.506  40.395  1.00  0.00     0.007 A 
HETATM   17  C   UNL     1      32.294  47.968  40.531  1.00  0.00     0.003 A 
HETATM   18  C   UNL     1      32.622  48.843  41.569  1.00  0.00     0.029 A 
ENDBRANCH   8  12
ENDBRANCH   1   6
BRANCH   4  19
HETATM   19  C   UNL     1      27.881  52.685  41.302  1.00  0.00     0.163 C 
BRANCH  19  20
HETATM   20  C   UNL     1      27.373  51.273  41.065  1.00  0.00     0.227 C 
HETATM   21  N   UNL     1      26.930  51.083  39.766  1.00  0.00    -0.327 N 
HETATM   22  H   UNL     1      26.757  51.931  39.236  1.00  0.00     0.169 HD
HETATM   23  O   UNL     1      27.435  50.423  41.949  1.00  0.00    -0.273 OA
BRANCH  21  24
HETATM   24  C   UNL     1      26.601  49.868  39.134  1.00  0.00     0.036 A 
HETATM   25  C   UNL     1      25.316  49.358  39.368  1.00  0.00     0.056 A 
HETATM   26  C   UNL     1      24.908  48.169  38.762  1.00  0.00     0.074 A 
HETATM   27 CL   UNL     1      23.325  47.566  39.067  1.00  0.00    -0.081 Cl
HETATM   28  C   UNL     1      25.780  47.482  37.923  1.00  0.00     0.138 A 
HETATM   29  F   UNL     1      25.408  46.337  37.334  1.00  0.00    -0.204 F 
HETATM   30  C   UNL     1      27.056  47.976  37.682  1.00  0.00     0.046 A 
HETATM   31  C   UNL     1      27.465  49.171  38.284  1.00  0.00     0.032 A 
ENDBRANCH  21  24
ENDBRANCH  19  20
ENDBRANCH   4  19
TORSDOF 5
ENDMDL
