MODEL 1
REMARK VINA RESULT:     -10.0      0.000      0.000
REMARK  7 active torsions:
REMARK  status: ('A' for Active; 'I' for Inactive)
REMARK    1  A    between atoms: C_12  and  S_13 
REMARK    2  A    between atoms: S_13  and  C_14 
REMARK    3  A    between atoms: C_14  and  C_15 
REMARK       I    between atoms: C_15  and  N_16 
REMARK    4  A    between atoms: N_16  and  C_17 
REMARK    5  A    between atoms: C_17  and  C_18 
REMARK    6  A    between atoms: C_18  and  C_19 
REMARK    7  A    between atoms: C_22  and  O_23 
ROOT
HETATM    1  S   UNL     1      25.808  45.647  51.229  1.00  0.00    -0.080 SA
ENDROOT
BRANCH   1   2
HETATM    2  C   UNL     1      26.114  46.420  52.747  1.00  0.00     0.197 A 
HETATM    3  N   UNL     1      27.050  46.063  53.705  1.00  0.00    -0.271 N 
HETATM    4  C   UNL     1      28.040  45.040  53.805  1.00  0.00     0.054 A 
HETATM    5  C   UNL     1      26.849  47.001  54.713  1.00  0.00     0.159 A 
HETATM    6  C   UNL     1      28.814  45.017  54.992  1.00  0.00    -0.003 A 
HETATM    7  C   UNL     1      28.271  44.089  52.805  1.00  0.00     0.031 A 
HETATM    8  C   UNL     1      28.583  46.026  56.058  1.00  0.00    -0.046 A 
HETATM    9  C   UNL     1      29.801  44.027  55.133  1.00  0.00     0.014 A 
HETATM   10  C   UNL     1      29.407  46.001  57.315  1.00  0.00     0.049 C 
HETATM   11  C   UNL     1      27.632  46.958  55.885  1.00  0.00     0.060 A 
HETATM   12  C   UNL     1      30.021  43.082  54.131  1.00  0.00     0.001 A 
HETATM   13  C   UNL     1      29.258  43.115  52.971  1.00  0.00     0.002 A 
HETATM   14  N   UNL     1      25.888  47.835  54.380  1.00  0.00    -0.129 NA
HETATM   15  N   UNL     1      25.429  47.471  53.148  1.00  0.00    -0.122 NA
ENDBRANCH   1   2
BRANCH   1  16
HETATM   16  C   UNL     1      24.584  46.783  50.510  1.00  0.00     0.185 C 
BRANCH  16  17
HETATM   17  C   UNL     1      25.281  47.861  49.691  1.00  0.00     0.227 C 
HETATM   18  N   UNL     1      24.528  48.863  49.142  1.00  0.00    -0.360 N 
HETATM   19  H   UNL     1      25.079  49.523  48.604  1.00  0.00     0.162 HD
HETATM   20  O   UNL     1      26.501  47.901  49.525  1.00  0.00    -0.273 OA
BRANCH  18  21
HETATM   21  C   UNL     1      23.087  49.033  49.216  1.00  0.00     0.127 C 
BRANCH  21  22
HETATM   22  C   UNL     1      22.642  50.382  48.654  1.00  0.00     0.058 C 
BRANCH  22  23
HETATM   23  C   UNL     1      21.223  50.709  49.042  1.00  0.00    -0.057 A 
HETATM   24  C   UNL     1      20.559  49.949  50.011  1.00  0.00     0.010 A 
HETATM   25  C   UNL     1      19.238  50.243  50.354  1.00  0.00     0.037 A 
HETATM   26  C   UNL     1      18.557  51.293  49.735  1.00  0.00     0.068 A 
HETATM   27  C   UNL     1      19.212  52.049  48.764  1.00  0.00     0.037 A 
HETATM   28  C   UNL     1      20.536  51.758  48.419  1.00  0.00     0.010 A 
BRANCH  26  29
HETATM   29  O   UNL     1      17.270  51.471  50.165  1.00  0.00    -0.356 OA
HETATM   30  C   UNL     1      16.693  52.753  49.949  1.00  0.00     0.210 C 
ENDBRANCH  26  29
ENDBRANCH  22  23
ENDBRANCH  21  22
ENDBRANCH  18  21
ENDBRANCH  16  17
ENDBRANCH   1  16
TORSDOF 7
ENDMDL
MODEL 2
REMARK VINA RESULT:      -9.8      1.747      2.359
REMARK  7 active torsions:
REMARK  status: ('A' for Active; 'I' for Inactive)
REMARK    1  A    between atoms: C_12  and  S_13 
REMARK    2  A    between atoms: S_13  and  C_14 
REMARK    3  A    between atoms: C_14  and  C_15 
REMARK       I    between atoms: C_15  and  N_16 
REMARK    4  A    between atoms: N_16  and  C_17 
REMARK    5  A    between atoms: C_17  and  C_18 
REMARK    6  A    between atoms: C_18  and  C_19 
REMARK    7  A    between atoms: C_22  and  O_23 
ROOT
HETATM    1  S   UNL     1      25.725  45.655  51.734  1.00  0.00    -0.080 SA
ENDROOT
BRANCH   1   2
HETATM    2  C   UNL     1      26.233  46.292  53.262  1.00  0.00     0.197 A 
HETATM    3  N   UNL     1      27.287  45.856  54.051  1.00  0.00    -0.271 N 
HETATM    4  C   UNL     1      28.276  44.835  53.926  1.00  0.00     0.054 A 
HETATM    5  C   UNL     1      27.227  46.698  55.158  1.00  0.00     0.159 A 
HETATM    6  C   UNL     1      29.201  44.711  54.993  1.00  0.00    -0.003 A 
HETATM    7  C   UNL     1      28.367  43.980  52.823  1.00  0.00     0.031 A 
HETATM    8  C   UNL     1      29.119  45.617  56.167  1.00  0.00    -0.046 A 
HETATM    9  C   UNL     1      30.193  43.718  54.911  1.00  0.00     0.014 A 
HETATM   10  C   UNL     1      30.102  45.486  57.296  1.00  0.00     0.049 C 
HETATM   11  C   UNL     1      28.158  46.555  56.206  1.00  0.00     0.060 A 
HETATM   12  C   UNL     1      30.273  42.870  53.808  1.00  0.00     0.001 A 
HETATM   13  C   UNL     1      29.363  43.001  52.767  1.00  0.00     0.002 A 
HETATM   14  N   UNL     1      26.234  47.552  55.032  1.00  0.00    -0.129 NA
HETATM   15  N   UNL     1      25.614  47.297  53.844  1.00  0.00    -0.122 NA
ENDBRANCH   1   2
BRANCH   1  16
HETATM   16  C   UNL     1      25.705  47.170  50.728  1.00  0.00     0.185 C 
BRANCH  16  17
HETATM   17  C   UNL     1      26.738  47.077  49.613  1.00  0.00     0.227 C 
HETATM   18  N   UNL     1      27.060  48.208  48.915  1.00  0.00    -0.360 N 
HETATM   19  H   UNL     1      27.744  48.042  48.185  1.00  0.00     0.162 HD
HETATM   20  O   UNL     1      27.332  46.036  49.327  1.00  0.00    -0.273 OA
BRANCH  18  21
HETATM   21  C   UNL     1      26.507  49.542  49.083  1.00  0.00     0.127 C 
BRANCH  21  22
HETATM   22  C   UNL     1      25.539  49.904  47.958  1.00  0.00     0.058 C 
BRANCH  22  23
HETATM   23  C   UNL     1      24.103  49.790  48.397  1.00  0.00    -0.057 A 
HETATM   24  C   UNL     1      23.388  50.927  48.791  1.00  0.00     0.010 A 
HETATM   25  C   UNL     1      22.063  50.814  49.217  1.00  0.00     0.037 A 
HETATM   26  C   UNL     1      21.432  49.569  49.262  1.00  0.00     0.068 A 
HETATM   27  C   UNL     1      22.142  48.433  48.877  1.00  0.00     0.037 A 
HETATM   28  C   UNL     1      23.469  48.543  48.448  1.00  0.00     0.010 A 
BRANCH  26  29
HETATM   29  O   UNL     1      20.135  49.602  49.697  1.00  0.00    -0.356 OA
HETATM   30  C   UNL     1      19.386  48.399  49.575  1.00  0.00     0.210 C 
ENDBRANCH  26  29
ENDBRANCH  22  23
ENDBRANCH  21  22
ENDBRANCH  18  21
ENDBRANCH  16  17
ENDBRANCH   1  16
TORSDOF 7
ENDMDL
MODEL 3
REMARK VINA RESULT:      -9.4      1.902      3.305
REMARK  7 active torsions:
REMARK  status: ('A' for Active; 'I' for Inactive)
REMARK    1  A    between atoms: C_12  and  S_13 
REMARK    2  A    between atoms: S_13  and  C_14 
REMARK    3  A    between atoms: C_14  and  C_15 
REMARK       I    between atoms: C_15  and  N_16 
REMARK    4  A    between atoms: N_16  and  C_17 
REMARK    5  A    between atoms: C_17  and  C_18 
REMARK    6  A    between atoms: C_18  and  C_19 
REMARK    7  A    between atoms: C_22  and  O_23 
ROOT
HETATM    1  S   UNL     1      25.008  44.279  51.578  1.00  0.00    -0.080 SA
ENDROOT
BRANCH   1   2
HETATM    2  C   UNL     1      26.374  43.321  52.038  1.00  0.00     0.197 A 
HETATM    3  N   UNL     1      27.344  43.629  52.980  1.00  0.00    -0.271 N 
HETATM    4  C   UNL     1      27.569  44.727  53.863  1.00  0.00     0.054 A 
HETATM    5  C   UNL     1      28.199  42.533  52.929  1.00  0.00     0.159 A 
HETATM    6  C   UNL     1      28.718  44.654  54.691  1.00  0.00    -0.003 A 
HETATM    7  C   UNL     1      26.723  45.839  53.944  1.00  0.00     0.031 A 
HETATM    8  C   UNL     1      29.620  43.476  54.619  1.00  0.00    -0.046 A 
HETATM    9  C   UNL     1      28.978  45.714  55.576  1.00  0.00     0.014 A 
HETATM   10  C   UNL     1      30.836  43.399  55.499  1.00  0.00     0.049 C 
HETATM   11  C   UNL     1      29.336  42.482  53.761  1.00  0.00     0.060 A 
HETATM   12  C   UNL     1      28.129  46.818  55.646  1.00  0.00     0.001 A 
HETATM   13  C   UNL     1      27.005  46.879  54.833  1.00  0.00     0.002 A 
HETATM   14  N   UNL     1      27.773  41.659  52.043  1.00  0.00    -0.129 NA
HETATM   15  N   UNL     1      26.630  42.153  51.487  1.00  0.00    -0.122 NA
ENDBRANCH   1   2
BRANCH   1  16
HETATM   16  C   UNL     1      25.380  44.577  49.823  1.00  0.00     0.185 C 
BRANCH  16  17
HETATM   17  C   UNL     1      26.472  45.629  49.686  1.00  0.00     0.227 C 
HETATM   18  N   UNL     1      26.117  46.949  49.649  1.00  0.00    -0.360 N 
HETATM   19  H   UNL     1      26.911  47.570  49.541  1.00  0.00     0.162 HD
HETATM   20  O   UNL     1      27.673  45.354  49.642  1.00  0.00    -0.273 OA
BRANCH  18  21
HETATM   21  C   UNL     1      24.777  47.509  49.700  1.00  0.00     0.127 C 
BRANCH  21  22
HETATM   22  C   UNL     1      24.707  48.884  49.037  1.00  0.00     0.058 C 
BRANCH  22  23
HETATM   23  C   UNL     1      23.294  49.402  48.970  1.00  0.00    -0.057 A 
HETATM   24  C   UNL     1      22.211  48.527  49.103  1.00  0.00     0.010 A 
HETATM   25  C   UNL     1      20.902  49.007  49.020  1.00  0.00     0.037 A 
HETATM   26  C   UNL     1      20.653  50.364  48.801  1.00  0.00     0.068 A 
HETATM   27  C   UNL     1      21.729  51.239  48.662  1.00  0.00     0.037 A 
HETATM   28  C   UNL     1      23.041  50.760  48.745  1.00  0.00     0.010 A 
BRANCH  26  29
HETATM   29  O   UNL     1      19.328  50.699  48.742  1.00  0.00    -0.356 OA
HETATM   30  C   UNL     1      18.961  51.965  49.276  1.00  0.00     0.210 C 
ENDBRANCH  26  29
ENDBRANCH  22  23
ENDBRANCH  21  22
ENDBRANCH  18  21
ENDBRANCH  16  17
ENDBRANCH   1  16
TORSDOF 7
ENDMDL
MODEL 4
REMARK VINA RESULT:      -9.3      1.719      2.990
REMARK  7 active torsions:
REMARK  status: ('A' for Active; 'I' for Inactive)
REMARK    1  A    between atoms: C_12  and  S_13 
REMARK    2  A    between atoms: S_13  and  C_14 
REMARK    3  A    between atoms: C_14  and  C_15 
REMARK       I    between atoms: C_15  and  N_16 
REMARK    4  A    between atoms: N_16  and  C_17 
REMARK    5  A    between atoms: C_17  and  C_18 
REMARK    6  A    between atoms: C_18  and  C_19 
REMARK    7  A    between atoms: C_22  and  O_23 
ROOT
HETATM    1  S   UNL     1      24.725  44.806  51.474  1.00  0.00    -0.080 SA
ENDROOT
BRANCH   1   2
HETATM    2  C   UNL     1      26.028  43.729  51.849  1.00  0.00     0.197 A 
HETATM    3  N   UNL     1      27.043  43.919  52.775  1.00  0.00    -0.271 N 
HETATM    4  C   UNL     1      27.372  44.953  53.701  1.00  0.00     0.054 A 
HETATM    5  C   UNL     1      27.811  42.766  52.647  1.00  0.00     0.159 A 
HETATM    6  C   UNL     1      28.534  44.756  54.490  1.00  0.00    -0.003 A 
HETATM    7  C   UNL     1      26.615  46.119  53.858  1.00  0.00     0.031 A 
HETATM    8  C   UNL     1      29.343  43.519  54.337  1.00  0.00    -0.046 A 
HETATM    9  C   UNL     1      28.896  45.750  55.415  1.00  0.00     0.014 A 
HETATM   10  C   UNL     1      30.572  43.310  55.175  1.00  0.00     0.049 C 
HETATM   11  C   UNL     1      28.962  42.592  53.443  1.00  0.00     0.060 A 
HETATM   12  C   UNL     1      28.135  46.909  55.561  1.00  0.00     0.001 A 
HETATM   13  C   UNL     1      26.998  47.091  54.785  1.00  0.00     0.002 A 
HETATM   14  N   UNL     1      27.297  41.970  51.736  1.00  0.00    -0.129 NA
HETATM   15  N   UNL     1      26.180  42.573  51.238  1.00  0.00    -0.122 NA
ENDBRANCH   1   2
BRANCH   1  16
HETATM   16  C   UNL     1      25.440  45.728  50.080  1.00  0.00     0.185 C 
BRANCH  16  17
HETATM   17  C   UNL     1      25.338  47.227  50.329  1.00  0.00     0.227 C 
HETATM   18  N   UNL     1      24.227  47.894  49.891  1.00  0.00    -0.360 N 
HETATM   19  H   UNL     1      24.258  48.888  50.090  1.00  0.00     0.162 HD
HETATM   20  O   UNL     1      26.192  47.871  50.941  1.00  0.00    -0.273 OA
BRANCH  18  21
HETATM   21  C   UNL     1      23.091  47.348  49.167  1.00  0.00     0.127 C 
BRANCH  21  22
HETATM   22  C   UNL     1      22.522  48.349  48.162  1.00  0.00     0.058 C 
BRANCH  22  23
HETATM   23  C   UNL     1      21.336  49.091  48.723  1.00  0.00    -0.057 A 
HETATM   24  C   UNL     1      21.510  50.315  49.377  1.00  0.00     0.010 A 
HETATM   25  C   UNL     1      20.411  50.990  49.914  1.00  0.00     0.037 A 
HETATM   26  C   UNL     1      19.125  50.454  49.811  1.00  0.00     0.068 A 
HETATM   27  C   UNL     1      18.948  49.231  49.166  1.00  0.00     0.037 A 
HETATM   28  C   UNL     1      20.047  48.553  48.627  1.00  0.00     0.010 A 
BRANCH  26  29
HETATM   29  O   UNL     1      18.142  51.218  50.378  1.00  0.00    -0.356 OA
HETATM   30  C   UNL     1      17.780  52.411  49.694  1.00  0.00     0.210 C 
ENDBRANCH  26  29
ENDBRANCH  22  23
ENDBRANCH  21  22
ENDBRANCH  18  21
ENDBRANCH  16  17
ENDBRANCH   1  16
TORSDOF 7
ENDMDL
MODEL 5
REMARK VINA RESULT:      -9.1      6.319     10.000
REMARK  7 active torsions:
REMARK  status: ('A' for Active; 'I' for Inactive)
REMARK    1  A    between atoms: C_12  and  S_13 
REMARK    2  A    between atoms: S_13  and  C_14 
REMARK    3  A    between atoms: C_14  and  C_15 
REMARK       I    between atoms: C_15  and  N_16 
REMARK    4  A    between atoms: N_16  and  C_17 
REMARK    5  A    between atoms: C_17  and  C_18 
REMARK    6  A    between atoms: C_18  and  C_19 
REMARK    7  A    between atoms: C_22  and  O_23 
ROOT
HETATM    1  S   UNL     1      25.631  43.377  51.697  1.00  0.00    -0.080 SA
ENDROOT
BRANCH   1   2
HETATM    2  C   UNL     1      27.024  42.761  52.520  1.00  0.00     0.197 A 
HETATM    3  N   UNL     1      27.846  43.432  53.412  1.00  0.00    -0.271 N 
HETATM    4  C   UNL     1      27.860  44.749  53.962  1.00  0.00     0.054 A 
HETATM    5  C   UNL     1      28.804  42.480  53.743  1.00  0.00     0.159 A 
HETATM    6  C   UNL     1      28.910  45.049  54.868  1.00  0.00    -0.003 A 
HETATM    7  C   UNL     1      26.906  45.725  53.655  1.00  0.00     0.031 A 
HETATM    8  C   UNL     1      29.925  44.019  55.207  1.00  0.00    -0.046 A 
HETATM    9  C   UNL     1      28.963  46.334  55.434  1.00  0.00     0.014 A 
HETATM   10  C   UNL     1      31.035  44.338  56.169  1.00  0.00     0.049 C 
HETATM   11  C   UNL     1      29.838  42.801  54.646  1.00  0.00     0.060 A 
HETATM   12  C   UNL     1      28.008  47.300  55.118  1.00  0.00     0.001 A 
HETATM   13  C   UNL     1      26.983  46.995  54.232  1.00  0.00     0.002 A 
HETATM   14  N   UNL     1      28.568  41.351  53.111  1.00  0.00    -0.129 NA
HETATM   15  N   UNL     1      27.453  41.528  52.346  1.00  0.00    -0.122 NA
ENDBRANCH   1   2
BRANCH   1  16
HETATM   16  C   UNL     1      25.507  42.201  50.316  1.00  0.00     0.185 C 
BRANCH  16  17
HETATM   17  C   UNL     1      26.468  42.593  49.201  1.00  0.00     0.227 C 
HETATM   18  N   UNL     1      26.590  41.770  48.115  1.00  0.00    -0.360 N 
HETATM   19  H   UNL     1      27.263  42.108  47.436  1.00  0.00     0.162 HD
HETATM   20  O   UNL     1      27.122  43.637  49.208  1.00  0.00    -0.273 OA
BRANCH  18  21
HETATM   21  C   UNL     1      25.915  40.505  47.880  1.00  0.00     0.127 C 
BRANCH  21  22
HETATM   22  C   UNL     1      26.850  39.466  47.262  1.00  0.00     0.058 C 
BRANCH  22  23
HETATM   23  C   UNL     1      27.695  38.785  48.307  1.00  0.00    -0.057 A 
HETATM   24  C   UNL     1      29.056  39.086  48.425  1.00  0.00     0.010 A 
HETATM   25  C   UNL     1      29.841  38.438  49.381  1.00  0.00     0.037 A 
HETATM   26  C   UNL     1      29.285  37.478  50.229  1.00  0.00     0.068 A 
HETATM   27  C   UNL     1      27.931  37.169  50.110  1.00  0.00     0.037 A 
HETATM   28  C   UNL     1      27.141  37.818  49.154  1.00  0.00     0.010 A 
BRANCH  26  29
HETATM   29  O   UNL     1      30.164  36.922  51.117  1.00  0.00    -0.356 OA
HETATM   30  C   UNL     1      29.753  35.724  51.765  1.00  0.00     0.210 C 
ENDBRANCH  26  29
ENDBRANCH  22  23
ENDBRANCH  21  22
ENDBRANCH  18  21
ENDBRANCH  16  17
ENDBRANCH   1  16
TORSDOF 7
ENDMDL
MODEL 6
REMARK VINA RESULT:      -9.0      5.276      8.774
REMARK  7 active torsions:
REMARK  status: ('A' for Active; 'I' for Inactive)
REMARK    1  A    between atoms: C_12  and  S_13 
REMARK    2  A    between atoms: S_13  and  C_14 
REMARK    3  A    between atoms: C_14  and  C_15 
REMARK       I    between atoms: C_15  and  N_16 
REMARK    4  A    between atoms: N_16  and  C_17 
REMARK    5  A    between atoms: C_17  and  C_18 
REMARK    6  A    between atoms: C_18  and  C_19 
REMARK    7  A    between atoms: C_22  and  O_23 
ROOT
HETATM    1  S   UNL     1      25.973  45.091  50.630  1.00  0.00    -0.080 SA
ENDROOT
BRANCH   1   2
HETATM    2  C   UNL     1      26.122  45.997  52.098  1.00  0.00     0.197 A 
HETATM    3  N   UNL     1      26.987  45.759  53.155  1.00  0.00    -0.271 N 
HETATM    4  C   UNL     1      28.001  44.791  53.420  1.00  0.00     0.054 A 
HETATM    5  C   UNL     1      26.669  46.766  54.061  1.00  0.00     0.159 A 
HETATM    6  C   UNL     1      28.674  44.897  54.663  1.00  0.00    -0.003 A 
HETATM    7  C   UNL     1      28.349  43.773  52.525  1.00  0.00     0.031 A 
HETATM    8  C   UNL     1      28.318  45.978  55.619  1.00  0.00    -0.046 A 
HETATM    9  C   UNL     1      29.681  43.964  54.966  1.00  0.00     0.014 A 
HETATM   10  C   UNL     1      29.034  46.091  56.935  1.00  0.00     0.049 C 
HETATM   11  C   UNL     1      27.352  46.852  55.292  1.00  0.00     0.060 A 
HETATM   12  C   UNL     1      30.017  42.952  54.068  1.00  0.00     0.001 A 
HETATM   13  C   UNL     1      29.353  42.858  52.851  1.00  0.00     0.002 A 
HETATM   14  N   UNL     1      25.710  47.529  53.583  1.00  0.00    -0.129 NA
HETATM   15  N   UNL     1      25.370  47.047  52.353  1.00  0.00    -0.122 NA
ENDBRANCH   1   2
BRANCH   1  16
HETATM   16  C   UNL     1      25.112  43.608  51.236  1.00  0.00     0.185 C 
BRANCH  16  17
HETATM   17  C   UNL     1      23.879  43.330  50.387  1.00  0.00     0.227 C 
HETATM   18  N   UNL     1      24.023  42.621  49.226  1.00  0.00    -0.360 N 
HETATM   19  H   UNL     1      23.149  42.501  48.725  1.00  0.00     0.162 HD
HETATM   20  O   UNL     1      22.743  43.681  50.710  1.00  0.00    -0.273 OA
BRANCH  18  21
HETATM   21  C   UNL     1      25.250  42.094  48.654  1.00  0.00     0.127 C 
BRANCH  21  22
HETATM   22  C   UNL     1      25.239  40.568  48.585  1.00  0.00     0.058 C 
BRANCH  22  23
HETATM   23  C   UNL     1      26.510  39.974  49.131  1.00  0.00    -0.057 A 
HETATM   24  C   UNL     1      26.977  38.741  48.663  1.00  0.00     0.010 A 
HETATM   25  C   UNL     1      28.145  38.184  49.187  1.00  0.00     0.037 A 
HETATM   26  C   UNL     1      28.864  38.843  50.186  1.00  0.00     0.068 A 
HETATM   27  C   UNL     1      28.400  40.069  50.661  1.00  0.00     0.037 A 
HETATM   28  C   UNL     1      27.230  40.630  50.138  1.00  0.00     0.010 A 
BRANCH  26  29
HETATM   29  O   UNL     1      29.989  38.188  50.608  1.00  0.00    -0.356 OA
HETATM   30  C   UNL     1      29.797  36.945  51.271  1.00  0.00     0.210 C 
ENDBRANCH  26  29
ENDBRANCH  22  23
ENDBRANCH  21  22
ENDBRANCH  18  21
ENDBRANCH  16  17
ENDBRANCH   1  16
TORSDOF 7
ENDMDL
MODEL 7
REMARK VINA RESULT:      -8.8      3.013     10.581
REMARK  7 active torsions:
REMARK  status: ('A' for Active; 'I' for Inactive)
REMARK    1  A    between atoms: C_12  and  S_13 
REMARK    2  A    between atoms: S_13  and  C_14 
REMARK    3  A    between atoms: C_14  and  C_15 
REMARK       I    between atoms: C_15  and  N_16 
REMARK    4  A    between atoms: N_16  and  C_17 
REMARK    5  A    between atoms: C_17  and  C_18 
REMARK    6  A    between atoms: C_18  and  C_19 
REMARK    7  A    between atoms: C_22  and  O_23 
ROOT
HETATM    1  S   UNL     1      24.238  45.214  49.105  1.00  0.00    -0.080 SA
ENDROOT
BRANCH   1   2
HETATM    2  C   UNL     1      22.541  45.407  48.820  1.00  0.00     0.197 A 
HETATM    3  N   UNL     1      21.857  46.581  48.545  1.00  0.00    -0.271 N 
HETATM    4  C   UNL     1      22.239  47.947  48.385  1.00  0.00     0.054 A 
HETATM    5  C   UNL     1      20.536  46.163  48.428  1.00  0.00     0.159 A 
HETATM    6  C   UNL     1      21.200  48.870  48.104  1.00  0.00    -0.003 A 
HETATM    7  C   UNL     1      23.560  48.397  48.488  1.00  0.00     0.031 A 
HETATM    8  C   UNL     1      19.794  48.404  47.986  1.00  0.00    -0.046 A 
HETATM    9  C   UNL     1      21.530  50.226  47.939  1.00  0.00     0.014 A 
HETATM   10  C   UNL     1      18.694  49.382  47.686  1.00  0.00     0.049 C 
HETATM   11  C   UNL     1      19.519  47.099  48.148  1.00  0.00     0.060 A 
HETATM   12  C   UNL     1      22.849  50.663  48.047  1.00  0.00     0.001 A 
HETATM   13  C   UNL     1      23.860  49.751  48.320  1.00  0.00     0.002 A 
HETATM   14  N   UNL     1      20.448  44.863  48.612  1.00  0.00    -0.129 NA
HETATM   15  N   UNL     1      21.704  44.391  48.857  1.00  0.00    -0.122 NA
ENDBRANCH   1   2
BRANCH   1  16
HETATM   16  C   UNL     1      24.276  45.206  50.922  1.00  0.00     0.185 C 
BRANCH  16  17
HETATM   17  C   UNL     1      25.247  46.260  51.435  1.00  0.00     0.227 C 
HETATM   18  N   UNL     1      26.497  45.870  51.832  1.00  0.00    -0.360 N 
HETATM   19  H   UNL     1      27.063  46.640  52.171  1.00  0.00     0.162 HD
HETATM   20  O   UNL     1      24.979  47.462  51.479  1.00  0.00    -0.273 OA
BRANCH  18  21
HETATM   21  C   UNL     1      27.040  44.522  51.854  1.00  0.00     0.127 C 
BRANCH  21  22
HETATM   22  C   UNL     1      26.855  43.855  53.217  1.00  0.00     0.058 C 
BRANCH  22  23
HETATM   23  C   UNL     1      28.051  44.064  54.108  1.00  0.00    -0.057 A 
HETATM   24  C   UNL     1      29.010  43.055  54.257  1.00  0.00     0.010 A 
HETATM   25  C   UNL     1      30.107  43.245  55.100  1.00  0.00     0.037 A 
HETATM   26  C   UNL     1      30.264  44.437  55.810  1.00  0.00     0.068 A 
HETATM   27  C   UNL     1      29.308  45.442  55.671  1.00  0.00     0.037 A 
HETATM   28  C   UNL     1      28.208  45.255  54.826  1.00  0.00     0.010 A 
BRANCH  26  29
HETATM   29  O   UNL     1      31.381  44.490  56.598  1.00  0.00    -0.356 OA
HETATM   30  C   UNL     1      31.899  43.250  57.062  1.00  0.00     0.210 C 
ENDBRANCH  26  29
ENDBRANCH  22  23
ENDBRANCH  21  22
ENDBRANCH  18  21
ENDBRANCH  16  17
ENDBRANCH   1  16
TORSDOF 7
ENDMDL
MODEL 8
REMARK VINA RESULT:      -8.8      1.445      2.293
REMARK  7 active torsions:
REMARK  status: ('A' for Active; 'I' for Inactive)
REMARK    1  A    between atoms: C_12  and  S_13 
REMARK    2  A    between atoms: S_13  and  C_14 
REMARK    3  A    between atoms: C_14  and  C_15 
REMARK       I    between atoms: C_15  and  N_16 
REMARK    4  A    between atoms: N_16  and  C_17 
REMARK    5  A    between atoms: C_17  and  C_18 
REMARK    6  A    between atoms: C_18  and  C_19 
REMARK    7  A    between atoms: C_22  and  O_23 
ROOT
HETATM    1  S   UNL     1      24.908  46.362  49.991  1.00  0.00    -0.080 SA
ENDROOT
BRANCH   1   2
HETATM    2  C   UNL     1      25.737  46.387  51.510  1.00  0.00     0.197 A 
HETATM    3  N   UNL     1      26.558  45.405  52.042  1.00  0.00    -0.271 N 
HETATM    4  C   UNL     1      27.014  44.130  51.592  1.00  0.00     0.054 A 
HETATM    5  C   UNL     1      26.932  45.933  53.274  1.00  0.00     0.159 A 
HETATM    6  C   UNL     1      27.869  43.414  52.467  1.00  0.00    -0.003 A 
HETATM    7  C   UNL     1      26.662  43.576  50.356  1.00  0.00     0.031 A 
HETATM    8  C   UNL     1      28.255  43.993  53.779  1.00  0.00    -0.046 A 
HETATM    9  C   UNL     1      28.342  42.153  52.064  1.00  0.00     0.014 A 
HETATM   10  C   UNL     1      29.164  43.235  54.705  1.00  0.00     0.049 C 
HETATM   11  C   UNL     1      27.784  45.203  54.127  1.00  0.00     0.060 A 
HETATM   12  C   UNL     1      27.983  41.611  50.831  1.00  0.00     0.001 A 
HETATM   13  C   UNL     1      27.146  42.321  49.980  1.00  0.00     0.002 A 
HETATM   14  N   UNL     1      26.387  47.117  53.451  1.00  0.00    -0.129 NA
HETATM   15  N   UNL     1      25.640  47.400  52.346  1.00  0.00    -0.122 NA
ENDBRANCH   1   2
BRANCH   1  16
HETATM   16  C   UNL     1      24.157  48.019  49.989  1.00  0.00     0.185 C 
BRANCH  16  17
HETATM   17  C   UNL     1      24.881  48.925  49.003  1.00  0.00     0.227 C 
HETATM   18  N   UNL     1      24.324  50.134  48.685  1.00  0.00    -0.360 N 
HETATM   19  H   UNL     1      24.871  50.657  48.011  1.00  0.00     0.162 HD
HETATM   20  O   UNL     1      25.968  48.643  48.497  1.00  0.00    -0.273 OA
BRANCH  18  21
HETATM   21  C   UNL     1      23.067  50.685  49.164  1.00  0.00     0.127 C 
BRANCH  21  22
HETATM   22  C   UNL     1      21.975  50.624  48.097  1.00  0.00     0.058 C 
BRANCH  22  23
HETATM   23  C   UNL     1      20.614  50.922  48.673  1.00  0.00    -0.057 A 
HETATM   24  C   UNL     1      19.927  52.084  48.304  1.00  0.00     0.010 A 
HETATM   25  C   UNL     1      18.676  52.367  48.855  1.00  0.00     0.037 A 
HETATM   26  C   UNL     1      18.092  51.502  49.783  1.00  0.00     0.068 A 
HETATM   27  C   UNL     1      18.776  50.346  50.158  1.00  0.00     0.037 A 
HETATM   28  C   UNL     1      20.029  50.059  49.607  1.00  0.00     0.010 A 
BRANCH  26  29
HETATM   29  O   UNL     1      16.865  51.899  50.241  1.00  0.00    -0.356 OA
HETATM   30  C   UNL     1      16.411  53.182  49.831  1.00  0.00     0.210 C 
ENDBRANCH  26  29
ENDBRANCH  22  23
ENDBRANCH  21  22
ENDBRANCH  18  21
ENDBRANCH  16  17
ENDBRANCH   1  16
TORSDOF 7
ENDMDL
MODEL 9
REMARK VINA RESULT:      -8.5      1.845      2.119
REMARK  7 active torsions:
REMARK  status: ('A' for Active; 'I' for Inactive)
REMARK    1  A    between atoms: C_12  and  S_13 
REMARK    2  A    between atoms: S_13  and  C_14 
REMARK    3  A    between atoms: C_14  and  C_15 
REMARK       I    between atoms: C_15  and  N_16 
REMARK    4  A    between atoms: N_16  and  C_17 
REMARK    5  A    between atoms: C_17  and  C_18 
REMARK    6  A    between atoms: C_18  and  C_19 
REMARK    7  A    between atoms: C_22  and  O_23 
ROOT
HETATM    1  S   UNL     1      25.668  44.403  50.206  1.00  0.00    -0.080 SA
ENDROOT
BRANCH   1   2
HETATM    2  C   UNL     1      25.856  45.505  51.528  1.00  0.00     0.197 A 
HETATM    3  N   UNL     1      26.742  45.409  52.590  1.00  0.00    -0.271 N 
HETATM    4  C   UNL     1      27.755  44.477  52.966  1.00  0.00     0.054 A 
HETATM    5  C   UNL     1      26.452  46.536  53.352  1.00  0.00     0.159 A 
HETATM    6  C   UNL     1      28.456  44.749  54.168  1.00  0.00    -0.003 A 
HETATM    7  C   UNL     1      28.075  43.340  52.217  1.00  0.00     0.031 A 
HETATM    8  C   UNL     1      28.130  45.957  54.970  1.00  0.00    -0.046 A 
HETATM    9  C   UNL     1      29.462  43.858  54.578  1.00  0.00     0.014 A 
HETATM   10  C   UNL     1      28.875  46.246  56.242  1.00  0.00     0.049 C 
HETATM   11  C   UNL     1      27.162  46.786  54.544  1.00  0.00     0.060 A 
HETATM   12  C   UNL     1      29.771  42.726  53.824  1.00  0.00     0.001 A 
HETATM   13  C   UNL     1      29.080  42.470  52.647  1.00  0.00     0.002 A 
HETATM   14  N   UNL     1      25.488  47.234  52.792  1.00  0.00    -0.129 NA
HETATM   15  N   UNL     1      25.117  46.588  51.649  1.00  0.00    -0.122 NA
ENDBRANCH   1   2
BRANCH   1  16
HETATM   16  C   UNL     1      24.733  45.436  49.036  1.00  0.00     0.185 C 
BRANCH  16  17
HETATM   17  C   UNL     1      23.238  45.305  49.293  1.00  0.00     0.227 C 
HETATM   18  N   UNL     1      22.413  46.334  48.932  1.00  0.00    -0.360 N 
HETATM   19  H   UNL     1      21.440  46.159  49.157  1.00  0.00     0.162 HD
HETATM   20  O   UNL     1      22.722  44.297  49.781  1.00  0.00    -0.273 OA
BRANCH  18  21
HETATM   21  C   UNL     1      22.789  47.603  48.332  1.00  0.00     0.127 C 
BRANCH  21  22
HETATM   22  C   UNL     1      22.518  48.779  49.269  1.00  0.00     0.058 C 
BRANCH  22  23
HETATM   23  C   UNL     1      21.384  49.639  48.774  1.00  0.00    -0.057 A 
HETATM   24  C   UNL     1      20.661  49.273  47.634  1.00  0.00     0.010 A 
HETATM   25  C   UNL     1      19.624  50.082  47.167  1.00  0.00     0.037 A 
HETATM   26  C   UNL     1      19.294  51.270  47.824  1.00  0.00     0.068 A 
HETATM   27  C   UNL     1      20.017  51.643  48.956  1.00  0.00     0.037 A 
HETATM   28  C   UNL     1      21.056  50.833  49.427  1.00  0.00     0.010 A 
BRANCH  26  29
HETATM   29  O   UNL     1      18.259  51.966  47.261  1.00  0.00    -0.356 OA
HETATM   30  C   UNL     1      17.137  51.208  46.828  1.00  0.00     0.210 C 
ENDBRANCH  26  29
ENDBRANCH  22  23
ENDBRANCH  21  22
ENDBRANCH  18  21
ENDBRANCH  16  17
ENDBRANCH   1  16
TORSDOF 7
ENDMDL
MODEL 10
REMARK VINA RESULT:      -8.5      2.503     10.337
REMARK  7 active torsions:
REMARK  status: ('A' for Active; 'I' for Inactive)
REMARK    1  A    between atoms: C_12  and  S_13 
REMARK    2  A    between atoms: S_13  and  C_14 
REMARK    3  A    between atoms: C_14  and  C_15 
REMARK       I    between atoms: C_15  and  N_16 
REMARK    4  A    between atoms: N_16  and  C_17 
REMARK    5  A    between atoms: C_17  and  C_18 
REMARK    6  A    between atoms: C_18  and  C_19 
REMARK    7  A    between atoms: C_22  and  O_23 
ROOT
HETATM    1  S   UNL     1      23.722  47.756  48.626  1.00  0.00    -0.080 SA
ENDROOT
BRANCH   1   2
HETATM    2  C   UNL     1      22.904  49.186  49.155  1.00  0.00     0.197 A 
HETATM    3  N   UNL     1      21.536  49.391  49.256  1.00  0.00    -0.271 N 
HETATM    4  C   UNL     1      20.384  48.586  49.009  1.00  0.00     0.054 A 
HETATM    5  C   UNL     1      21.441  50.703  49.705  1.00  0.00     0.159 A 
HETATM    6  C   UNL     1      19.122  49.192  49.239  1.00  0.00    -0.003 A 
HETATM    7  C   UNL     1      20.448  47.261  48.565  1.00  0.00     0.031 A 
HETATM    8  C   UNL     1      19.041  50.596  49.718  1.00  0.00    -0.046 A 
HETATM    9  C   UNL     1      17.960  48.436  49.010  1.00  0.00     0.014 A 
HETATM   10  C   UNL     1      17.704  51.237  49.964  1.00  0.00     0.049 C 
HETATM   11  C   UNL     1      20.176  51.285  49.928  1.00  0.00     0.060 A 
HETATM   12  C   UNL     1      18.037  47.117  48.564  1.00  0.00     0.001 A 
HETATM   13  C   UNL     1      19.277  46.532  48.344  1.00  0.00     0.002 A 
HETATM   14  N   UNL     1      22.638  51.224  49.860  1.00  0.00    -0.129 NA
HETATM   15  N   UNL     1      23.554  50.273  49.516  1.00  0.00    -0.122 NA
ENDBRANCH   1   2
BRANCH   1  16
HETATM   16  C   UNL     1      24.247  47.058  50.221  1.00  0.00     0.185 C 
BRANCH  16  17
HETATM   17  C   UNL     1      25.767  47.042  50.317  1.00  0.00     0.227 C 
HETATM   18  N   UNL     1      26.350  46.767  51.523  1.00  0.00    -0.360 N 
HETATM   19  H   UNL     1      27.363  46.795  51.489  1.00  0.00     0.162 HD
HETATM   20  O   UNL     1      26.507  47.229  49.349  1.00  0.00    -0.273 OA
BRANCH  18  21
HETATM   21  C   UNL     1      25.687  46.501  52.789  1.00  0.00     0.127 C 
BRANCH  21  22
HETATM   22  C   UNL     1      26.068  45.134  53.356  1.00  0.00     0.058 C 
BRANCH  22  23
HETATM   23  C   UNL     1      27.288  45.214  54.236  1.00  0.00    -0.057 A 
HETATM   24  C   UNL     1      27.512  46.339  55.037  1.00  0.00     0.010 A 
HETATM   25  C   UNL     1      28.655  46.418  55.837  1.00  0.00     0.037 A 
HETATM   26  C   UNL     1      29.592  45.383  55.847  1.00  0.00     0.068 A 
HETATM   27  C   UNL     1      29.376  44.263  55.046  1.00  0.00     0.037 A 
HETATM   28  C   UNL     1      28.232  44.180  54.244  1.00  0.00     0.010 A 
BRANCH  26  29
HETATM   29  O   UNL     1      30.661  45.589  56.675  1.00  0.00    -0.356 OA
HETATM   30  C   UNL     1      30.411  45.540  58.073  1.00  0.00     0.210 C 
ENDBRANCH  26  29
ENDBRANCH  22  23
ENDBRANCH  21  22
ENDBRANCH  18  21
ENDBRANCH  16  17
ENDBRANCH   1  16
TORSDOF 7
ENDMDL
