MODEL 1
REMARK VINA RESULT:      -8.1      0.000      0.000
REMARK  8 active torsions:
REMARK  status: ('A' for Active; 'I' for Inactive)
REMARK    1  A    between atoms: C_2  and  O_3 
REMARK    2  A    between atoms: O_3  and  C_4 
REMARK    3  A    between atoms: C_4  and  C_5 
REMARK    4  A    between atoms: C_6  and  N_7 
REMARK       I    between atoms: N_7  and  C_8 
REMARK    5  A    between atoms: C_8  and  C_9 
REMARK    6  A    between atoms: C_9  and  N_10 
REMARK    7  A    between atoms: C_22  and  C_23 
REMARK    8  A    between atoms: C_26  and  N_27 
ROOT
HETATM    1  C   UNL     1      26.536  44.570  52.787  1.00  0.00     0.085 A 
HETATM    2  C   UNL     1      26.079  44.364  51.492  1.00  0.00     0.093 A 
HETATM    3  S   UNL     1      27.228  43.623  50.482  1.00  0.00    -0.082 SA
HETATM    4  C   UNL     1      28.390  43.602  51.722  1.00  0.00     0.065 A 
HETATM    5  C   UNL     1      27.915  44.143  52.904  1.00  0.00    -0.000 A 
ENDROOT
BRANCH   2   6
HETATM    6  N   UNL     1      24.800  44.611  51.001  1.00  0.00    -0.319 N 
HETATM    7  C   UNL     1      24.532  45.625  50.110  1.00  0.00     0.248 C 
HETATM    8  O   UNL     1      25.299  46.534  49.798  1.00  0.00    -0.271 OA
HETATM    9  H   UNL     1      24.047  44.258  51.600  1.00  0.00     0.169 HD
BRANCH   7  10
HETATM   10  C   UNL     1      23.151  45.569  49.467  1.00  0.00     0.337 C 
BRANCH  10  11
HETATM   11  N   UNL     1      22.890  46.642  48.365  1.00  0.00    -0.060 N 
HETATM   12  H   UNL     1      23.838  46.762  47.974  1.00  0.00     0.280 HD
HETATM   13  C   UNL     1      22.511  48.025  48.881  1.00  0.00     0.263 C 
HETATM   14  C   UNL     1      20.989  48.285  49.015  1.00  0.00     0.262 C 
HETATM   15  N   UNL     1      20.204  47.856  47.781  1.00  0.00    -0.072 N 
HETATM   16  H   UNL     1      20.400  48.524  47.021  1.00  0.00     0.279 HD
HETATM   17  C   UNL     1      18.712  47.978  48.046  1.00  0.00     0.269 C 
HETATM   18  C   UNL     1      20.531  46.452  47.286  1.00  0.00     0.262 C 
HETATM   19  C   UNL     1      22.053  46.181  47.179  1.00  0.00     0.263 C 
ENDBRANCH  10  11
ENDBRANCH   7  10
ENDBRANCH   2   6
BRANCH   1  20
HETATM   20  C   UNL     1      25.676  45.200  53.792  1.00  0.00     0.297 C 
HETATM   21  O   UNL     1      25.300  44.578  54.784  1.00  0.00    -0.259 OA
BRANCH  20  22
HETATM   22  O   UNL     1      25.314  46.470  53.482  1.00  0.00    -0.318 OA
BRANCH  22  23
HETATM   23  C   UNL     1      26.312  47.494  53.619  1.00  0.00     0.174 C 
HETATM   24  C   UNL     1      26.316  47.996  55.048  1.00  0.00     0.034 C 
ENDBRANCH  22  23
ENDBRANCH  20  22
ENDBRANCH   1  20
BRANCH   5  25
HETATM   25  C   UNL     1      28.806  44.193  54.056  1.00  0.00    -0.024 A 
HETATM   26  C   UNL     1      29.667  43.116  54.318  1.00  0.00     0.015 A 
HETATM   27  C   UNL     1      30.496  43.131  55.442  1.00  0.00     0.037 A 
HETATM   28  C   UNL     1      30.469  44.234  56.305  1.00  0.00     0.102 A 
HETATM   29  C   UNL     1      29.616  45.317  56.049  1.00  0.00     0.037 A 
HETATM   30  C   UNL     1      28.782  45.292  54.927  1.00  0.00     0.015 A 
BRANCH  28  31
HETATM   31  N   UNL     1      31.336  44.251  57.489  1.00  0.00    -0.116 N 
HETATM   32  O   UNL     1      31.154  45.154  58.318  1.00  0.00    -0.532 OA
HETATM   33  O   UNL     1      32.191  43.361  57.585  1.00  0.00    -0.532 OA
ENDBRANCH  28  31
ENDBRANCH   5  25
TORSDOF 8
ENDMDL
MODEL 2
REMARK VINA RESULT:      -8.1      2.643      4.028
REMARK  8 active torsions:
REMARK  status: ('A' for Active; 'I' for Inactive)
REMARK    1  A    between atoms: C_2  and  O_3 
REMARK    2  A    between atoms: O_3  and  C_4 
REMARK    3  A    between atoms: C_4  and  C_5 
REMARK    4  A    between atoms: C_6  and  N_7 
REMARK       I    between atoms: N_7  and  C_8 
REMARK    5  A    between atoms: C_8  and  C_9 
REMARK    6  A    between atoms: C_9  and  N_10 
REMARK    7  A    between atoms: C_22  and  C_23 
REMARK    8  A    between atoms: C_26  and  N_27 
ROOT
HETATM    1  C   UNL     1      27.137  45.071  52.694  1.00  0.00     0.085 A 
HETATM    2  C   UNL     1      26.077  45.786  52.154  1.00  0.00     0.093 A 
HETATM    3  S   UNL     1      25.667  47.167  53.056  1.00  0.00    -0.082 SA
HETATM    4  C   UNL     1      26.854  46.827  54.224  1.00  0.00     0.065 A 
HETATM    5  C   UNL     1      27.571  45.679  53.934  1.00  0.00    -0.000 A 
ENDROOT
BRANCH   2   6
HETATM    6  N   UNL     1      25.416  45.536  50.954  1.00  0.00    -0.319 N 
HETATM    7  C   UNL     1      24.351  44.670  50.861  1.00  0.00     0.248 C 
HETATM    8  O   UNL     1      23.984  43.881  51.729  1.00  0.00    -0.271 OA
HETATM    9  H   UNL     1      25.978  45.731  50.120  1.00  0.00     0.169 HD
BRANCH   7  10
HETATM   10  C   UNL     1      23.578  44.738  49.548  1.00  0.00     0.337 C 
BRANCH  10  11
HETATM   11  N   UNL     1      24.224  43.959  48.361  1.00  0.00    -0.060 N 
HETATM   12  H   UNL     1      25.015  44.578  48.121  1.00  0.00     0.280 HD
HETATM   13  C   UNL     1      23.385  43.898  47.090  1.00  0.00     0.263 C 
HETATM   14  C   UNL     1      22.469  42.654  46.963  1.00  0.00     0.262 C 
HETATM   15  N   UNL     1      23.191  41.351  47.282  1.00  0.00    -0.072 N 
HETATM   16  H   UNL     1      23.835  41.137  46.507  1.00  0.00     0.279 HD
HETATM   17  C   UNL     1      22.198  40.200  47.307  1.00  0.00     0.269 C 
HETATM   18  C   UNL     1      23.989  41.377  48.580  1.00  0.00     0.262 C 
HETATM   19  C   UNL     1      24.884  42.634  48.722  1.00  0.00     0.263 C 
ENDBRANCH  10  11
ENDBRANCH   7  10
ENDBRANCH   2   6
BRANCH   1  20
HETATM   20  C   UNL     1      27.622  43.849  52.045  1.00  0.00     0.297 C 
HETATM   21  O   UNL     1      28.337  43.903  51.046  1.00  0.00    -0.259 OA
BRANCH  20  22
HETATM   22  O   UNL     1      27.163  42.709  52.616  1.00  0.00    -0.318 OA
BRANCH  22  23
HETATM   23  C   UNL     1      27.591  41.463  52.043  1.00  0.00     0.174 C 
HETATM   24  C   UNL     1      28.753  40.919  52.848  1.00  0.00     0.034 C 
ENDBRANCH  22  23
ENDBRANCH  20  22
ENDBRANCH   1  20
BRANCH   5  25
HETATM   25  C   UNL     1      28.623  45.263  54.852  1.00  0.00    -0.024 A 
HETATM   26  C   UNL     1      29.358  44.097  54.586  1.00  0.00     0.015 A 
HETATM   27  C   UNL     1      30.341  43.662  55.478  1.00  0.00     0.037 A 
HETATM   28  C   UNL     1      30.595  44.402  56.639  1.00  0.00     0.102 A 
HETATM   29  C   UNL     1      29.869  45.570  56.912  1.00  0.00     0.037 A 
HETATM   30  C   UNL     1      28.881  45.996  56.019  1.00  0.00     0.015 A 
BRANCH  28  31
HETATM   31  N   UNL     1      31.624  43.945  57.582  1.00  0.00    -0.116 N 
HETATM   32  O   UNL     1      32.203  42.881  57.324  1.00  0.00    -0.532 OA
HETATM   33  O   UNL     1      31.847  44.653  58.572  1.00  0.00    -0.532 OA
ENDBRANCH  28  31
ENDBRANCH   5  25
TORSDOF 8
ENDMDL
MODEL 3
REMARK VINA RESULT:      -8.0      1.507      1.790
REMARK  8 active torsions:
REMARK  status: ('A' for Active; 'I' for Inactive)
REMARK    1  A    between atoms: C_2  and  O_3 
REMARK    2  A    between atoms: O_3  and  C_4 
REMARK    3  A    between atoms: C_4  and  C_5 
REMARK    4  A    between atoms: C_6  and  N_7 
REMARK       I    between atoms: N_7  and  C_8 
REMARK    5  A    between atoms: C_8  and  C_9 
REMARK    6  A    between atoms: C_9  and  N_10 
REMARK    7  A    between atoms: C_22  and  C_23 
REMARK    8  A    between atoms: C_26  and  N_27 
ROOT
HETATM    1  C   UNL     1      26.703  43.733  52.789  1.00  0.00     0.085 A 
HETATM    2  C   UNL     1      26.394  43.166  51.561  1.00  0.00     0.093 A 
HETATM    3  S   UNL     1      27.692  42.320  50.863  1.00  0.00    -0.082 SA
HETATM    4  C   UNL     1      28.725  42.728  52.150  1.00  0.00     0.065 A 
HETATM    5  C   UNL     1      28.094  43.493  53.116  1.00  0.00    -0.000 A 
ENDROOT
BRANCH   2   6
HETATM    6  N   UNL     1      25.154  43.151  50.928  1.00  0.00    -0.319 N 
HETATM    7  C   UNL     1      24.870  43.935  49.833  1.00  0.00     0.248 C 
HETATM    8  O   UNL     1      25.562  44.858  49.409  1.00  0.00    -0.271 OA
HETATM    9  H   UNL     1      24.386  42.825  51.523  1.00  0.00     0.169 HD
BRANCH   7  10
HETATM   10  C   UNL     1      23.578  43.582  49.105  1.00  0.00     0.337 C 
BRANCH  10  11
HETATM   11  N   UNL     1      23.167  44.572  47.972  1.00  0.00    -0.060 N 
HETATM   12  H   UNL     1      24.065  45.045  47.783  1.00  0.00     0.280 HD
HETATM   13  C   UNL     1      22.226  45.693  48.398  1.00  0.00     0.263 C 
HETATM   14  C   UNL     1      20.717  45.392  48.216  1.00  0.00     0.262 C 
HETATM   15  N   UNL     1      20.390  44.805  46.849  1.00  0.00    -0.072 N 
HETATM   16  H   UNL     1      20.475  45.552  46.144  1.00  0.00     0.279 HD
HETATM   17  C   UNL     1      18.932  44.376  46.803  1.00  0.00     0.269 C 
HETATM   18  C   UNL     1      21.286  43.645  46.433  1.00  0.00     0.262 C 
HETATM   19  C   UNL     1      22.794  43.933  46.640  1.00  0.00     0.263 C 
ENDBRANCH  10  11
ENDBRANCH   7  10
ENDBRANCH   2   6
BRANCH   1  20
HETATM   20  C   UNL     1      25.700  44.501  53.533  1.00  0.00     0.297 C 
HETATM   21  O   UNL     1      25.315  44.134  54.641  1.00  0.00    -0.259 OA
BRANCH  20  22
HETATM   22  O   UNL     1      25.228  45.578  52.858  1.00  0.00    -0.318 OA
BRANCH  22  23
HETATM   23  C   UNL     1      26.082  46.729  52.768  1.00  0.00     0.174 C 
HETATM   24  C   UNL     1      25.979  47.527  54.053  1.00  0.00     0.034 C 
ENDBRANCH  22  23
ENDBRANCH  20  22
ENDBRANCH   1  20
BRANCH   5  25
HETATM   25  C   UNL     1      28.860  43.919  54.279  1.00  0.00    -0.024 A 
HETATM   26  C   UNL     1      29.875  43.092  54.785  1.00  0.00     0.015 A 
HETATM   27  C   UNL     1      30.590  43.467  55.924  1.00  0.00     0.037 A 
HETATM   28  C   UNL     1      30.291  44.680  56.558  1.00  0.00     0.102 A 
HETATM   29  C   UNL     1      29.281  45.514  56.059  1.00  0.00     0.037 A 
HETATM   30  C   UNL     1      28.564  45.129  54.922  1.00  0.00     0.015 A 
BRANCH  28  31
HETATM   31  N   UNL     1      31.037  45.075  57.760  1.00  0.00    -0.116 N 
HETATM   32  O   UNL     1      31.853  44.264  58.218  1.00  0.00    -0.532 OA
HETATM   33  O   UNL     1      30.803  46.194  58.235  1.00  0.00    -0.532 OA
ENDBRANCH  28  31
ENDBRANCH   5  25
TORSDOF 8
ENDMDL
MODEL 4
REMARK VINA RESULT:      -8.0      3.271      4.043
REMARK  8 active torsions:
REMARK  status: ('A' for Active; 'I' for Inactive)
REMARK    1  A    between atoms: C_2  and  O_3 
REMARK    2  A    between atoms: O_3  and  C_4 
REMARK    3  A    between atoms: C_4  and  C_5 
REMARK    4  A    between atoms: C_6  and  N_7 
REMARK       I    between atoms: N_7  and  C_8 
REMARK    5  A    between atoms: C_8  and  C_9 
REMARK    6  A    between atoms: C_9  and  N_10 
REMARK    7  A    between atoms: C_22  and  C_23 
REMARK    8  A    between atoms: C_26  and  N_27 
ROOT
HETATM    1  C   UNL     1      26.900  43.343  52.988  1.00  0.00     0.085 A 
HETATM    2  C   UNL     1      26.638  42.673  51.801  1.00  0.00     0.093 A 
HETATM    3  S   UNL     1      27.993  41.865  51.169  1.00  0.00    -0.082 SA
HETATM    4  C   UNL     1      28.987  42.425  52.430  1.00  0.00     0.065 A 
HETATM    5  C   UNL     1      28.300  43.214  53.336  1.00  0.00    -0.000 A 
ENDROOT
BRANCH   2   6
HETATM    6  N   UNL     1      25.407  42.535  51.165  1.00  0.00    -0.319 N 
HETATM    7  C   UNL     1      25.135  43.107  49.943  1.00  0.00     0.248 C 
HETATM    8  O   UNL     1      25.829  43.943  49.368  1.00  0.00    -0.271 OA
HETATM    9  H   UNL     1      24.632  42.316  51.799  1.00  0.00     0.169 HD
BRANCH   7  10
HETATM   10  C   UNL     1      23.855  42.619  49.274  1.00  0.00     0.337 C 
BRANCH  10  11
HETATM   11  N   UNL     1      23.912  41.162  48.721  1.00  0.00    -0.060 N 
HETATM   12  H   UNL     1      23.664  40.618  49.563  1.00  0.00     0.280 HD
HETATM   13  C   UNL     1      25.301  40.664  48.340  1.00  0.00     0.263 C 
HETATM   14  C   UNL     1      25.694  40.880  46.856  1.00  0.00     0.262 C 
HETATM   15  N   UNL     1      24.602  40.449  45.885  1.00  0.00    -0.072 N 
HETATM   16  H   UNL     1      24.561  39.420  45.877  1.00  0.00     0.279 HD
HETATM   17  C   UNL     1      24.982  40.846  44.467  1.00  0.00     0.269 C 
HETATM   18  C   UNL     1      23.216  40.986  46.220  1.00  0.00     0.262 C 
HETATM   19  C   UNL     1      22.833  40.797  47.710  1.00  0.00     0.263 C 
ENDBRANCH  10  11
ENDBRANCH   7  10
ENDBRANCH   2   6
BRANCH   1  20
HETATM   20  C   UNL     1      25.844  44.095  53.671  1.00  0.00     0.297 C 
HETATM   21  O   UNL     1      25.508  43.815  54.820  1.00  0.00    -0.259 OA
BRANCH  20  22
HETATM   22  O   UNL     1      25.270  45.052  52.901  1.00  0.00    -0.318 OA
BRANCH  22  23
HETATM   23  C   UNL     1      26.055  46.216  52.597  1.00  0.00     0.174 C 
HETATM   24  C   UNL     1      25.942  47.204  53.741  1.00  0.00     0.034 C 
ENDBRANCH  22  23
ENDBRANCH  20  22
ENDBRANCH   1  20
BRANCH   5  25
HETATM   25  C   UNL     1      29.028  43.768  54.471  1.00  0.00    -0.024 A 
HETATM   26  C   UNL     1      30.084  43.041  55.042  1.00  0.00     0.015 A 
HETATM   27  C   UNL     1      30.763  43.540  56.156  1.00  0.00     0.037 A 
HETATM   28  C   UNL     1      30.388  44.775  56.697  1.00  0.00     0.102 A 
HETATM   29  C   UNL     1      29.337  45.511  56.131  1.00  0.00     0.037 A 
HETATM   30  C   UNL     1      28.656  45.002  55.020  1.00  0.00     0.015 A 
BRANCH  28  31
HETATM   31  N   UNL     1      31.096  45.300  57.871  1.00  0.00    -0.116 N 
HETATM   32  O   UNL     1      31.913  44.553  58.427  1.00  0.00    -0.532 OA
HETATM   33  O   UNL     1      30.833  46.456  58.228  1.00  0.00    -0.532 OA
ENDBRANCH  28  31
ENDBRANCH   5  25
TORSDOF 8
ENDMDL
MODEL 5
REMARK VINA RESULT:      -7.8      1.910      2.842
REMARK  8 active torsions:
REMARK  status: ('A' for Active; 'I' for Inactive)
REMARK    1  A    between atoms: C_2  and  O_3 
REMARK    2  A    between atoms: O_3  and  C_4 
REMARK    3  A    between atoms: C_4  and  C_5 
REMARK    4  A    between atoms: C_6  and  N_7 
REMARK       I    between atoms: N_7  and  C_8 
REMARK    5  A    between atoms: C_8  and  C_9 
REMARK    6  A    between atoms: C_9  and  N_10 
REMARK    7  A    between atoms: C_22  and  C_23 
REMARK    8  A    between atoms: C_26  and  N_27 
ROOT
HETATM    1  C   UNL     1      25.377  45.442  51.367  1.00  0.00     0.085 A 
HETATM    2  C   UNL     1      24.323  44.985  50.588  1.00  0.00     0.093 A 
HETATM    3  S   UNL     1      24.038  43.318  50.751  1.00  0.00    -0.082 SA
HETATM    4  C   UNL     1      25.343  43.141  51.825  1.00  0.00     0.065 A 
HETATM    5  C   UNL     1      25.993  44.338  52.073  1.00  0.00    -0.000 A 
ENDROOT
BRANCH   2   6
HETATM    6  N   UNL     1      23.467  45.748  49.798  1.00  0.00    -0.319 N 
HETATM    7  C   UNL     1      23.172  45.421  48.494  1.00  0.00     0.248 C 
HETATM    8  O   UNL     1      23.751  44.575  47.814  1.00  0.00    -0.271 OA
HETATM    9  H   UNL     1      23.373  46.721  50.103  1.00  0.00     0.169 HD
BRANCH   7  10
HETATM   10  C   UNL     1      22.010  46.194  47.882  1.00  0.00     0.337 C 
BRANCH  10  11
HETATM   11  N   UNL     1      21.333  47.231  48.831  1.00  0.00    -0.060 N 
HETATM   12  H   UNL     1      21.594  46.854  49.757  1.00  0.00     0.280 HD
HETATM   13  C   UNL     1      19.809  47.219  48.828  1.00  0.00     0.263 C 
HETATM   14  C   UNL     1      19.145  48.205  47.834  1.00  0.00     0.262 C 
HETATM   15  N   UNL     1      19.746  49.604  47.895  1.00  0.00    -0.072 N 
HETATM   16  H   UNL     1      19.440  50.051  48.772  1.00  0.00     0.279 HD
HETATM   17  C   UNL     1      19.170  50.465  46.783  1.00  0.00     0.269 C 
HETATM   18  C   UNL     1      21.268  49.636  47.842  1.00  0.00     0.262 C 
HETATM   19  C   UNL     1      21.935  48.630  48.815  1.00  0.00     0.263 C 
ENDBRANCH  10  11
ENDBRANCH   7  10
ENDBRANCH   2   6
BRANCH   1  20
HETATM   20  C   UNL     1      25.763  46.856  51.348  1.00  0.00     0.297 C 
HETATM   21  O   UNL     1      25.416  47.620  52.247  1.00  0.00    -0.259 OA
BRANCH  20  22
HETATM   22  O   UNL     1      26.463  47.216  50.244  1.00  0.00    -0.318 OA
BRANCH  22  23
HETATM   23  C   UNL     1      26.019  48.379  49.529  1.00  0.00     0.174 C 
HETATM   24  C   UNL     1      27.224  49.119  48.985  1.00  0.00     0.034 C 
ENDBRANCH  22  23
ENDBRANCH  20  22
ENDBRANCH   1  20
BRANCH   5  25
HETATM   25  C   UNL     1      27.136  44.337  52.976  1.00  0.00    -0.024 A 
HETATM   26  C   UNL     1      28.260  43.551  52.676  1.00  0.00     0.015 A 
HETATM   27  C   UNL     1      29.347  43.508  53.551  1.00  0.00     0.037 A 
HETATM   28  C   UNL     1      29.311  44.260  54.732  1.00  0.00     0.102 A 
HETATM   29  C   UNL     1      28.195  45.051  55.040  1.00  0.00     0.037 A 
HETATM   30  C   UNL     1      27.107  45.084  54.162  1.00  0.00     0.015 A 
BRANCH  28  31
HETATM   31  N   UNL     1      30.449  44.212  55.658  1.00  0.00    -0.116 N 
HETATM   32  O   UNL     1      31.025  43.125  55.802  1.00  0.00    -0.532 OA
HETATM   33  O   UNL     1      30.762  45.262  56.235  1.00  0.00    -0.532 OA
ENDBRANCH  28  31
ENDBRANCH   5  25
TORSDOF 8
ENDMDL
MODEL 6
REMARK VINA RESULT:      -7.5     12.649     13.978
REMARK  8 active torsions:
REMARK  status: ('A' for Active; 'I' for Inactive)
REMARK    1  A    between atoms: C_2  and  O_3 
REMARK    2  A    between atoms: O_3  and  C_4 
REMARK    3  A    between atoms: C_4  and  C_5 
REMARK    4  A    between atoms: C_6  and  N_7 
REMARK       I    between atoms: N_7  and  C_8 
REMARK    5  A    between atoms: C_8  and  C_9 
REMARK    6  A    between atoms: C_9  and  N_10 
REMARK    7  A    between atoms: C_22  and  C_23 
REMARK    8  A    between atoms: C_26  and  N_27 
ROOT
HETATM    1  C   UNL     1      31.081  51.227  41.427  1.00  0.00     0.085 A 
HETATM    2  C   UNL     1      30.015  50.377  41.161  1.00  0.00     0.093 A 
HETATM    3  S   UNL     1      30.062  48.936  42.061  1.00  0.00    -0.082 SA
HETATM    4  C   UNL     1      31.532  49.374  42.794  1.00  0.00     0.065 A 
HETATM    5  C   UNL     1      31.988  50.611  42.373  1.00  0.00    -0.000 A 
ENDROOT
BRANCH   2   6
HETATM    6  N   UNL     1      28.922  50.629  40.337  1.00  0.00    -0.319 N 
HETATM    7  C   UNL     1      28.795  50.075  39.083  1.00  0.00     0.248 C 
HETATM    8  O   UNL     1      29.676  49.479  38.466  1.00  0.00    -0.271 OA
HETATM    9  H   UNL     1      28.430  51.502  40.551  1.00  0.00     0.169 HD
BRANCH   7  10
HETATM   10  C   UNL     1      27.418  50.228  38.447  1.00  0.00     0.337 C 
BRANCH  10  11
HETATM   11  N   UNL     1      26.492  48.979  38.570  1.00  0.00    -0.060 N 
HETATM   12  H   UNL     1      25.572  49.388  38.338  1.00  0.00     0.280 HD
HETATM   13  C   UNL     1      26.322  48.430  39.981  1.00  0.00     0.263 C 
HETATM   14  C   UNL     1      27.316  47.308  40.375  1.00  0.00     0.262 C 
HETATM   15  N   UNL     1      27.443  46.227  39.310  1.00  0.00    -0.072 N 
HETATM   16  H   UNL     1      26.580  45.664  39.311  1.00  0.00     0.279 HD
HETATM   17  C   UNL     1      28.553  45.257  39.683  1.00  0.00     0.269 C 
HETATM   18  C   UNL     1      27.670  46.758  37.900  1.00  0.00     0.262 C 
HETATM   19  C   UNL     1      26.696  47.900  37.514  1.00  0.00     0.263 C 
ENDBRANCH  10  11
ENDBRANCH   7  10
ENDBRANCH   2   6
BRANCH   1  20
HETATM   20  C   UNL     1      31.200  52.514  40.737  1.00  0.00     0.297 C 
HETATM   21  O   UNL     1      31.117  53.574  41.355  1.00  0.00    -0.259 OA
BRANCH  20  22
HETATM   22  O   UNL     1      31.346  52.403  39.394  1.00  0.00    -0.318 OA
BRANCH  22  23
HETATM   23  C   UNL     1      32.574  51.839  38.907  1.00  0.00     0.174 C 
HETATM   24  C   UNL     1      33.718  52.775  39.239  1.00  0.00     0.034 C 
ENDBRANCH  22  23
ENDBRANCH  20  22
ENDBRANCH   1  20
BRANCH   5  25
HETATM   25  C   UNL     1      33.242  51.115  42.917  1.00  0.00    -0.024 A 
HETATM   26  C   UNL     1      33.238  51.832  44.124  1.00  0.00     0.015 A 
HETATM   27  C   UNL     1      34.426  52.357  44.637  1.00  0.00     0.037 A 
HETATM   28  C   UNL     1      35.625  52.159  43.942  1.00  0.00     0.102 A 
HETATM   29  C   UNL     1      35.640  51.441  42.738  1.00  0.00     0.037 A 
HETATM   30  C   UNL     1      34.446  50.924  42.225  1.00  0.00     0.015 A 
BRANCH  28  31
HETATM   31  N   UNL     1      36.875  52.715  44.476  1.00  0.00    -0.116 N 
HETATM   32  O   UNL     1      37.268  53.792  44.006  1.00  0.00    -0.532 OA
HETATM   33  O   UNL     1      37.454  52.073  45.362  1.00  0.00    -0.532 OA
ENDBRANCH  28  31
ENDBRANCH   5  25
TORSDOF 8
ENDMDL
MODEL 7
REMARK VINA RESULT:      -7.5      5.001      7.400
REMARK  8 active torsions:
REMARK  status: ('A' for Active; 'I' for Inactive)
REMARK    1  A    between atoms: C_2  and  O_3 
REMARK    2  A    between atoms: O_3  and  C_4 
REMARK    3  A    between atoms: C_4  and  C_5 
REMARK    4  A    between atoms: C_6  and  N_7 
REMARK       I    between atoms: N_7  and  C_8 
REMARK    5  A    between atoms: C_8  and  C_9 
REMARK    6  A    between atoms: C_9  and  N_10 
REMARK    7  A    between atoms: C_22  and  C_23 
REMARK    8  A    between atoms: C_26  and  N_27 
ROOT
HETATM    1  C   UNL     1      27.261  41.782  51.554  1.00  0.00     0.085 A 
HETATM    2  C   UNL     1      26.812  40.819  50.662  1.00  0.00     0.093 A 
HETATM    3  S   UNL     1      25.359  41.243  49.888  1.00  0.00    -0.082 SA
HETATM    4  C   UNL     1      25.253  42.700  50.758  1.00  0.00     0.065 A 
HETATM    5  C   UNL     1      26.316  42.878  51.626  1.00  0.00    -0.000 A 
ENDROOT
BRANCH   2   6
HETATM    6  N   UNL     1      27.459  39.643  50.295  1.00  0.00    -0.319 N 
HETATM    7  C   UNL     1      28.349  39.582  49.246  1.00  0.00     0.248 C 
HETATM    8  O   UNL     1      28.531  40.457  48.403  1.00  0.00    -0.271 OA
HETATM    9  H   UNL     1      26.974  38.790  50.590  1.00  0.00     0.169 HD
BRANCH   7  10
HETATM   10  C   UNL     1      29.168  38.298  49.170  1.00  0.00     0.337 C 
BRANCH  10  11
HETATM   11  N   UNL     1      28.587  37.197  48.231  1.00  0.00    -0.060 N 
HETATM   12  H   UNL     1      29.115  36.367  48.544  1.00  0.00     0.280 HD
HETATM   13  C   UNL     1      28.943  37.345  46.757  1.00  0.00     0.263 C 
HETATM   14  C   UNL     1      27.916  38.134  45.906  1.00  0.00     0.262 C 
HETATM   15  N   UNL     1      26.479  37.687  46.146  1.00  0.00    -0.072 N 
HETATM   16  H   UNL     1      26.349  36.762  45.711  1.00  0.00     0.279 HD
HETATM   17  C   UNL     1      25.519  38.611  45.415  1.00  0.00     0.269 C 
HETATM   18  C   UNL     1      26.089  37.589  47.615  1.00  0.00     0.262 C 
HETATM   19  C   UNL     1      27.129  36.826  48.474  1.00  0.00     0.263 C 
ENDBRANCH  10  11
ENDBRANCH   7  10
ENDBRANCH   2   6
BRANCH   1  20
HETATM   20  C   UNL     1      28.500  41.581  52.311  1.00  0.00     0.297 C 
HETATM   21  O   UNL     1      28.711  40.529  52.912  1.00  0.00    -0.259 OA
BRANCH  20  22
HETATM   22  O   UNL     1      29.317  42.662  52.319  1.00  0.00    -0.318 OA
BRANCH  22  23
HETATM   23  C   UNL     1      30.401  42.665  53.262  1.00  0.00     0.174 C 
HETATM   24  C   UNL     1      29.948  43.345  54.538  1.00  0.00     0.034 C 
ENDBRANCH  22  23
ENDBRANCH  20  22
ENDBRANCH   1  20
BRANCH   5  25
HETATM   25  C   UNL     1      26.357  44.085  52.441  1.00  0.00    -0.024 A 
HETATM   26  C   UNL     1      26.380  43.980  53.840  1.00  0.00     0.015 A 
HETATM   27  C   UNL     1      26.377  45.127  54.636  1.00  0.00     0.037 A 
HETATM   28  C   UNL     1      26.358  46.389  54.027  1.00  0.00     0.102 A 
HETATM   29  C   UNL     1      26.338  46.505  52.630  1.00  0.00     0.037 A 
HETATM   30  C   UNL     1      26.334  45.351  51.839  1.00  0.00     0.015 A 
BRANCH  28  31
HETATM   31  N   UNL     1      26.349  47.597  54.860  1.00  0.00    -0.116 N 
HETATM   32  O   UNL     1      25.461  48.434  54.644  1.00  0.00    -0.532 OA
HETATM   33  O   UNL     1      27.227  47.701  55.726  1.00  0.00    -0.532 OA
ENDBRANCH  28  31
ENDBRANCH   5  25
TORSDOF 8
ENDMDL
MODEL 8
REMARK VINA RESULT:      -7.4      1.872      2.898
REMARK  8 active torsions:
REMARK  status: ('A' for Active; 'I' for Inactive)
REMARK    1  A    between atoms: C_2  and  O_3 
REMARK    2  A    between atoms: O_3  and  C_4 
REMARK    3  A    between atoms: C_4  and  C_5 
REMARK    4  A    between atoms: C_6  and  N_7 
REMARK       I    between atoms: N_7  and  C_8 
REMARK    5  A    between atoms: C_8  and  C_9 
REMARK    6  A    between atoms: C_9  and  N_10 
REMARK    7  A    between atoms: C_22  and  C_23 
REMARK    8  A    between atoms: C_26  and  N_27 
ROOT
HETATM    1  C   UNL     1      26.704  44.716  53.167  1.00  0.00     0.085 A 
HETATM    2  C   UNL     1      25.716  45.455  52.530  1.00  0.00     0.093 A 
HETATM    3  S   UNL     1      25.727  47.101  52.954  1.00  0.00    -0.082 SA
HETATM    4  C   UNL     1      27.014  46.872  54.041  1.00  0.00     0.065 A 
HETATM    5  C   UNL     1      27.448  45.559  54.081  1.00  0.00    -0.000 A 
ENDROOT
BRANCH   2   6
HETATM    6  N   UNL     1      24.825  45.009  51.558  1.00  0.00    -0.319 N 
HETATM    7  C   UNL     1      25.116  45.045  50.213  1.00  0.00     0.248 C 
HETATM    8  O   UNL     1      26.064  45.633  49.696  1.00  0.00    -0.271 OA
HETATM    9  H   UNL     1      23.846  45.007  51.859  1.00  0.00     0.169 HD
BRANCH   7  10
HETATM   10  C   UNL     1      24.156  44.262  49.325  1.00  0.00     0.337 C 
BRANCH  10  11
HETATM   11  N   UNL     1      23.613  45.043  48.089  1.00  0.00    -0.060 N 
HETATM   12  H   UNL     1      24.488  45.417  47.687  1.00  0.00     0.280 HD
HETATM   13  C   UNL     1      22.782  46.279  48.414  1.00  0.00     0.263 C 
HETATM   14  C   UNL     1      21.254  46.040  48.507  1.00  0.00     0.262 C 
HETATM   15  N   UNL     1      20.709  45.225  47.340  1.00  0.00    -0.072 N 
HETATM   16  H   UNL     1      20.713  45.820  46.498  1.00  0.00     0.279 HD
HETATM   17  C   UNL     1      19.248  44.884  47.582  1.00  0.00     0.269 C 
HETATM   18  C   UNL     1      21.496  43.956  47.038  1.00  0.00     0.262 C 
HETATM   19  C   UNL     1      23.027  44.187  46.973  1.00  0.00     0.263 C 
ENDBRANCH  10  11
ENDBRANCH   7  10
ENDBRANCH   2   6
BRANCH   1  20
HETATM   20  C   UNL     1      26.839  43.278  52.919  1.00  0.00     0.297 C 
HETATM   21  O   UNL     1      26.665  42.461  53.821  1.00  0.00    -0.259 OA
BRANCH  20  22
HETATM   22  O   UNL     1      27.219  42.975  51.654  1.00  0.00    -0.318 OA
BRANCH  22  23
HETATM   23  C   UNL     1      26.735  41.744  51.095  1.00  0.00     0.174 C 
HETATM   24  C   UNL     1      27.899  40.792  50.907  1.00  0.00     0.034 C 
ENDBRANCH  22  23
ENDBRANCH  20  22
ENDBRANCH   1  20
BRANCH   5  25
HETATM   25  C   UNL     1      28.547  45.214  54.973  1.00  0.00    -0.024 A 
HETATM   26  C   UNL     1      29.411  44.159  54.637  1.00  0.00     0.015 A 
HETATM   27  C   UNL     1      30.444  43.789  55.502  1.00  0.00     0.037 A 
HETATM   28  C   UNL     1      30.617  44.483  56.706  1.00  0.00     0.102 A 
HETATM   29  C   UNL     1      29.762  45.540  57.048  1.00  0.00     0.037 A 
HETATM   30  C   UNL     1      28.725  45.900  56.181  1.00  0.00     0.015 A 
BRANCH  28  31
HETATM   31  N   UNL     1      31.698  44.093  57.619  1.00  0.00    -0.116 N 
HETATM   32  O   UNL     1      32.349  43.078  57.335  1.00  0.00    -0.532 OA
HETATM   33  O   UNL     1      31.891  44.805  58.614  1.00  0.00    -0.532 OA
ENDBRANCH  28  31
ENDBRANCH   5  25
TORSDOF 8
ENDMDL
MODEL 9
REMARK VINA RESULT:      -7.4     12.401     13.347
REMARK  8 active torsions:
REMARK  status: ('A' for Active; 'I' for Inactive)
REMARK    1  A    between atoms: C_2  and  O_3 
REMARK    2  A    between atoms: O_3  and  C_4 
REMARK    3  A    between atoms: C_4  and  C_5 
REMARK    4  A    between atoms: C_6  and  N_7 
REMARK       I    between atoms: N_7  and  C_8 
REMARK    5  A    between atoms: C_8  and  C_9 
REMARK    6  A    between atoms: C_9  and  N_10 
REMARK    7  A    between atoms: C_22  and  C_23 
REMARK    8  A    between atoms: C_26  and  N_27 
ROOT
HETATM    1  C   UNL     1      28.369  50.056  40.589  1.00  0.00     0.085 A 
HETATM    2  C   UNL     1      27.347  49.213  40.176  1.00  0.00     0.093 A 
HETATM    3  S   UNL     1      27.763  47.567  40.240  1.00  0.00    -0.082 SA
HETATM    4  C   UNL     1      29.338  47.927  40.770  1.00  0.00     0.065 A 
HETATM    5  C   UNL     1      29.553  49.286  40.911  1.00  0.00    -0.000 A 
ENDROOT
BRANCH   2   6
HETATM    6  N   UNL     1      26.049  49.573  39.820  1.00  0.00    -0.319 N 
HETATM    7  C   UNL     1      25.669  49.786  38.515  1.00  0.00     0.248 C 
HETATM    8  O   UNL     1      26.426  49.885  37.551  1.00  0.00    -0.271 OA
HETATM    9  H   UNL     1      25.518  50.018  40.576  1.00  0.00     0.169 HD
BRANCH   7  10
HETATM   10  C   UNL     1      24.165  49.888  38.290  1.00  0.00     0.337 C 
BRANCH  10  11
HETATM   11  N   UNL     1      23.297  49.820  39.584  1.00  0.00    -0.060 N 
HETATM   12  H   UNL     1      24.004  50.018  40.311  1.00  0.00     0.280 HD
HETATM   13  C   UNL     1      22.762  48.438  39.937  1.00  0.00     0.263 C 
HETATM   14  C   UNL     1      21.351  48.116  39.382  1.00  0.00     0.262 C 
HETATM   15  N   UNL     1      20.350  49.240  39.621  1.00  0.00    -0.072 N 
HETATM   16  H   UNL     1      20.112  49.256  40.624  1.00  0.00     0.279 HD
HETATM   17  C   UNL     1      19.044  48.933  38.905  1.00  0.00     0.269 C 
HETATM   18  C   UNL     1      20.849  50.622  39.220  1.00  0.00     0.262 C 
HETATM   19  C   UNL     1      22.271  50.935  39.750  1.00  0.00     0.263 C 
ENDBRANCH  10  11
ENDBRANCH   7  10
ENDBRANCH   2   6
BRANCH   1  20
HETATM   20  C   UNL     1      28.183  51.510  40.595  1.00  0.00     0.297 C 
HETATM   21  O   UNL     1      27.331  52.037  41.309  1.00  0.00    -0.259 OA
BRANCH  20  22
HETATM   22  O   UNL     1      28.983  52.167  39.720  1.00  0.00    -0.318 OA
BRANCH  22  23
HETATM   23  C   UNL     1      29.398  53.496  40.072  1.00  0.00     0.174 C 
HETATM   24  C   UNL     1      30.749  53.430  40.754  1.00  0.00     0.034 C 
ENDBRANCH  22  23
ENDBRANCH  20  22
ENDBRANCH   1  20
BRANCH   5  25
HETATM   25  C   UNL     1      30.862  49.743  41.357  1.00  0.00    -0.024 A 
HETATM   26  C   UNL     1      31.054  50.100  42.701  1.00  0.00     0.015 A 
HETATM   27  C   UNL     1      32.292  50.579  43.135  1.00  0.00     0.037 A 
HETATM   28  C   UNL     1      33.346  50.697  42.221  1.00  0.00     0.102 A 
HETATM   29  C   UNL     1      33.165  50.340  40.877  1.00  0.00     0.037 A 
HETATM   30  C   UNL     1      31.921  49.867  40.447  1.00  0.00     0.015 A 
BRANCH  28  31
HETATM   31  N   UNL     1      34.647  51.206  42.672  1.00  0.00    -0.116 N 
HETATM   32  O   UNL     1      34.644  52.118  43.510  1.00  0.00    -0.532 OA
HETATM   33  O   UNL     1      35.662  50.689  42.188  1.00  0.00    -0.532 OA
ENDBRANCH  28  31
ENDBRANCH   5  25
TORSDOF 8
ENDMDL
MODEL 10
REMARK VINA RESULT:      -7.3     12.829     13.852
REMARK  8 active torsions:
REMARK  status: ('A' for Active; 'I' for Inactive)
REMARK    1  A    between atoms: C_2  and  O_3 
REMARK    2  A    between atoms: O_3  and  C_4 
REMARK    3  A    between atoms: C_4  and  C_5 
REMARK    4  A    between atoms: C_6  and  N_7 
REMARK       I    between atoms: N_7  and  C_8 
REMARK    5  A    between atoms: C_8  and  C_9 
REMARK    6  A    between atoms: C_9  and  N_10 
REMARK    7  A    between atoms: C_22  and  C_23 
REMARK    8  A    between atoms: C_26  and  N_27 
ROOT
HETATM    1  C   UNL     1      29.450  50.207  40.423  1.00  0.00     0.085 A 
HETATM    2  C   UNL     1      28.086  50.447  40.344  1.00  0.00     0.093 A 
HETATM    3  S   UNL     1      27.599  51.849  41.173  1.00  0.00    -0.082 SA
HETATM    4  C   UNL     1      29.184  52.151  41.709  1.00  0.00     0.065 A 
HETATM    5  C   UNL     1      30.087  51.205  41.258  1.00  0.00    -0.000 A 
ENDROOT
BRANCH   2   6
HETATM    6  N   UNL     1      27.145  49.732  39.608  1.00  0.00    -0.319 N 
HETATM    7  C   UNL     1      26.798  50.069  38.320  1.00  0.00     0.248 C 
HETATM    8  O   UNL     1      27.098  51.112  37.742  1.00  0.00    -0.271 OA
HETATM    9  H   UNL     1      26.483  49.199  40.182  1.00  0.00     0.169 HD
BRANCH   7  10
HETATM   10  C   UNL     1      25.978  49.021  37.578  1.00  0.00     0.337 C 
BRANCH  10  11
HETATM   11  N   UNL     1      24.474  49.381  37.372  1.00  0.00    -0.060 N 
HETATM   12  H   UNL     1      24.548  50.189  36.732  1.00  0.00     0.280 HD
HETATM   13  C   UNL     1      23.763  49.931  38.602  1.00  0.00     0.263 C 
HETATM   14  C   UNL     1      23.039  48.873  39.472  1.00  0.00     0.262 C 
HETATM   15  N   UNL     1      22.187  47.912  38.651  1.00  0.00    -0.072 N 
HETATM   16  H   UNL     1      21.355  48.419  38.316  1.00  0.00     0.279 HD
HETATM   17  C   UNL     1      21.648  46.804  39.542  1.00  0.00     0.269 C 
HETATM   18  C   UNL     1      22.903  47.309  37.449  1.00  0.00     0.262 C 
HETATM   19  C   UNL     1      23.652  48.362  36.594  1.00  0.00     0.263 C 
ENDBRANCH  10  11
ENDBRANCH   7  10
ENDBRANCH   2   6
BRANCH   1  20
HETATM   20  C   UNL     1      30.043  49.038  39.767  1.00  0.00     0.297 C 
HETATM   21  O   UNL     1      30.090  48.956  38.541  1.00  0.00    -0.259 OA
BRANCH  20  22
HETATM   22  O   UNL     1      30.458  48.079  40.630  1.00  0.00    -0.318 OA
BRANCH  22  23
HETATM   23  C   UNL     1      31.729  47.461  40.371  1.00  0.00     0.174 C 
HETATM   24  C   UNL     1      32.717  47.890  41.436  1.00  0.00     0.034 C 
ENDBRANCH  22  23
ENDBRANCH  20  22
ENDBRANCH   1  20
BRANCH   5  25
HETATM   25  C   UNL     1      31.486  51.336  41.642  1.00  0.00    -0.024 A 
HETATM   26  C   UNL     1      32.468  51.499  40.652  1.00  0.00     0.015 A 
HETATM   27  C   UNL     1      33.817  51.584  41.001  1.00  0.00     0.037 A 
HETATM   28  C   UNL     1      34.186  51.512  42.350  1.00  0.00     0.102 A 
HETATM   29  C   UNL     1      33.213  51.353  43.347  1.00  0.00     0.037 A 
HETATM   30  C   UNL     1      31.864  51.261  42.990  1.00  0.00     0.015 A 
BRANCH  28  31
HETATM   31  N   UNL     1      35.604  51.595  42.721  1.00  0.00    -0.116 N 
HETATM   32  O   UNL     1      36.305  50.592  42.530  1.00  0.00    -0.532 OA
HETATM   33  O   UNL     1      36.008  52.664  43.198  1.00  0.00    -0.532 OA
ENDBRANCH  28  31
ENDBRANCH   5  25
TORSDOF 8
ENDMDL
