MODEL 1
REMARK VINA RESULT:      -8.6      0.000      0.000
REMARK  4 active torsions:
REMARK  status: ('A' for Active; 'I' for Inactive)
REMARK    1  A    between atoms: C_2  and  N_3 
REMARK    2  A    between atoms: C_4  and  C_5 
REMARK    3  A    between atoms: C_6  and  O_7 
REMARK    4  A    between atoms: C_19  and  C_20 
REMARK       I    between atoms: C_20  and  N_21 
ROOT
HETATM    1  C   UNL     1      26.305  41.982  50.692  1.00  0.00     0.034 A 
HETATM    2  C   UNL     1      27.538  41.818  51.337  1.00  0.00     0.057 A 
HETATM    3  C   UNL     1      28.292  40.661  51.105  1.00  0.00     0.048 A 
HETATM    4  C   UNL     1      27.794  39.663  50.243  1.00  0.00     0.030 A 
HETATM    5  C   UNL     1      26.557  39.857  49.642  1.00  0.00     0.063 A 
HETATM    6  N   UNL     1      26.350  38.743  48.876  1.00  0.00    -0.277 N 
HETATM    7  H   UNL     1      25.546  38.539  48.293  1.00  0.00     0.189 HD
HETATM    8  N   UNL     1      27.349  37.845  48.917  1.00  0.00    -0.168 NA
HETATM    9  C   UNL     1      28.251  38.402  49.756  1.00  0.00     0.156 A 
HETATM   10  C   UNL     1      25.781  41.001  49.843  1.00  0.00     0.034 A 
ENDROOT
BRANCH   2  11
HETATM   11  N   UNL     1      28.084  42.819  52.156  1.00  0.00    -0.260 NA
HETATM   12  C   UNL     1      28.373  42.501  53.380  1.00  0.00     0.131 C 
BRANCH  12  13
HETATM   13  C   UNL     1      28.946  43.499  54.307  1.00  0.00     0.016 A 
HETATM   14  C   UNL     1      28.469  44.814  54.365  1.00  0.00     0.077 A 
HETATM   15  C   UNL     1      29.035  45.731  55.248  1.00  0.00     0.039 A 
HETATM   16  C   UNL     1      30.076  45.333  56.088  1.00  0.00     0.022 A 
HETATM   17  C   UNL     1      30.546  44.021  56.034  1.00  0.00     0.012 A 
HETATM   18 BR   UNL     1      31.949  43.482  57.182  1.00  0.00    -0.051 Br
HETATM   19  C   UNL     1      29.992  43.098  55.144  1.00  0.00     0.034 A 
BRANCH  14  20
HETATM   20  O   UNL     1      27.449  45.273  53.578  1.00  0.00    -0.360 OA
HETATM   21  H   UNL     1      26.781  44.551  53.515  1.00  0.00     0.217 HD
ENDBRANCH  14  20
ENDBRANCH  12  13
ENDBRANCH   2  11
BRANCH   9  22
HETATM   22  C   UNL     1      29.522  37.734  50.067  1.00  0.00     0.270 C 
HETATM   23  N   UNL     1      29.412  36.720  50.979  1.00  0.00    -0.365 N 
HETATM   24  H   UNL     1      28.496  36.499  51.352  1.00  0.00     0.159 HD
HETATM   25  H   UNL     1      30.228  36.187  51.235  1.00  0.00     0.159 HD
HETATM   26  O   UNL     1      30.603  38.027  49.568  1.00  0.00    -0.266 OA
ENDBRANCH   9  22
TORSDOF 4
ENDMDL
MODEL 2
REMARK VINA RESULT:      -8.1      5.487      8.126
REMARK  4 active torsions:
REMARK  status: ('A' for Active; 'I' for Inactive)
REMARK    1  A    between atoms: C_2  and  N_3 
REMARK    2  A    between atoms: C_4  and  C_5 
REMARK    3  A    between atoms: C_6  and  O_7 
REMARK    4  A    between atoms: C_19  and  C_20 
REMARK       I    between atoms: C_20  and  N_21 
ROOT
HETATM    1  C   UNL     1      28.967  43.454  53.138  1.00  0.00     0.034 A 
HETATM    2  C   UNL     1      28.181  44.479  53.680  1.00  0.00     0.057 A 
HETATM    3  C   UNL     1      28.523  45.034  54.920  1.00  0.00     0.048 A 
HETATM    4  C   UNL     1      29.643  44.541  55.620  1.00  0.00     0.030 A 
HETATM    5  C   UNL     1      30.382  43.509  55.056  1.00  0.00     0.063 A 
HETATM    6  N   UNL     1      31.386  43.254  55.950  1.00  0.00    -0.277 N 
HETATM    7  H   UNL     1      32.120  42.560  55.867  1.00  0.00     0.189 HD
HETATM    8  N   UNL     1      31.372  44.038  57.041  1.00  0.00    -0.168 NA
HETATM    9  C   UNL     1      30.301  44.841  56.850  1.00  0.00     0.156 A 
HETATM   10  C   UNL     1      30.075  42.936  53.820  1.00  0.00     0.034 A 
ENDROOT
BRANCH   2  11
HETATM   11  N   UNL     1      27.094  45.027  52.980  1.00  0.00    -0.260 NA
HETATM   12  C   UNL     1      27.025  44.799  51.705  1.00  0.00     0.131 C 
BRANCH  12  13
HETATM   13  C   UNL     1      25.915  45.345  50.896  1.00  0.00     0.016 A 
HETATM   14  C   UNL     1      25.450  46.654  51.066  1.00  0.00     0.077 A 
HETATM   15  C   UNL     1      24.399  47.135  50.289  1.00  0.00     0.039 A 
HETATM   16  C   UNL     1      23.813  46.310  49.327  1.00  0.00     0.022 A 
HETATM   17  C   UNL     1      24.282  45.008  49.155  1.00  0.00     0.012 A 
HETATM   18 BR   UNL     1      23.493  43.897  47.842  1.00  0.00    -0.051 Br
HETATM   19  C   UNL     1      25.328  44.514  49.936  1.00  0.00     0.034 A 
BRANCH  14  20
HETATM   20  O   UNL     1      25.979  47.520  51.983  1.00  0.00    -0.360 OA
HETATM   21  H   UNL     1      26.911  47.696  51.715  1.00  0.00     0.217 HD
ENDBRANCH  14  20
ENDBRANCH  12  13
ENDBRANCH   2  11
BRANCH   9  22
HETATM   22  C   UNL     1      29.936  45.875  57.827  1.00  0.00     0.270 C 
HETATM   23  N   UNL     1      30.990  46.349  58.561  1.00  0.00    -0.365 N 
HETATM   24  H   UNL     1      31.914  45.978  58.376  1.00  0.00     0.159 HD
HETATM   25  H   UNL     1      30.839  47.079  59.238  1.00  0.00     0.159 HD
HETATM   26  O   UNL     1      28.799  46.305  57.995  1.00  0.00    -0.266 OA
ENDBRANCH   9  22
TORSDOF 4
ENDMDL
MODEL 3
REMARK VINA RESULT:      -8.1      1.807      2.128
REMARK  4 active torsions:
REMARK  status: ('A' for Active; 'I' for Inactive)
REMARK    1  A    between atoms: C_2  and  N_3 
REMARK    2  A    between atoms: C_4  and  C_5 
REMARK    3  A    between atoms: C_6  and  O_7 
REMARK    4  A    between atoms: C_19  and  C_20 
REMARK       I    between atoms: C_20  and  N_21 
ROOT
HETATM    1  C   UNL     1      26.380  42.001  50.741  1.00  0.00     0.034 A 
HETATM    2  C   UNL     1      27.605  41.802  51.390  1.00  0.00     0.057 A 
HETATM    3  C   UNL     1      28.327  40.623  51.163  1.00  0.00     0.048 A 
HETATM    4  C   UNL     1      27.803  39.639  50.301  1.00  0.00     0.030 A 
HETATM    5  C   UNL     1      26.574  39.868  49.695  1.00  0.00     0.063 A 
HETATM    6  N   UNL     1      26.337  38.759  48.930  1.00  0.00    -0.277 N 
HETATM    7  H   UNL     1      25.530  38.578  48.344  1.00  0.00     0.189 HD
HETATM    8  N   UNL     1      27.310  37.832  48.976  1.00  0.00    -0.168 NA
HETATM    9  C   UNL     1      28.224  38.365  49.817  1.00  0.00     0.156 A 
HETATM   10  C   UNL     1      25.830  41.034  49.891  1.00  0.00     0.034 A 
ENDROOT
BRANCH   2  11
HETATM   11  N   UNL     1      28.177  42.789  52.210  1.00  0.00    -0.260 NA
HETATM   12  C   UNL     1      27.475  43.216  53.213  1.00  0.00     0.131 C 
BRANCH  12  13
HETATM   13  C   UNL     1      28.003  44.257  54.120  1.00  0.00     0.016 A 
HETATM   14  C   UNL     1      29.214  44.096  54.804  1.00  0.00     0.077 A 
HETATM   15  C   UNL     1      29.680  45.096  55.655  1.00  0.00     0.039 A 
HETATM   16  C   UNL     1      28.942  46.269  55.817  1.00  0.00     0.022 A 
HETATM   17  C   UNL     1      27.739  46.430  55.129  1.00  0.00     0.012 A 
HETATM   18 BR   UNL     1      26.747  48.027  55.342  1.00  0.00    -0.051 Br
HETATM   19  C   UNL     1      27.259  45.429  54.283  1.00  0.00     0.034 A 
BRANCH  14  20
HETATM   20  O   UNL     1      29.992  42.978  54.690  1.00  0.00    -0.360 OA
HETATM   21  H   UNL     1      30.076  42.778  53.728  1.00  0.00     0.217 HD
ENDBRANCH  14  20
ENDBRANCH  12  13
ENDBRANCH   2  11
BRANCH   9  22
HETATM   22  C   UNL     1      29.475  37.660  50.134  1.00  0.00     0.270 C 
HETATM   23  N   UNL     1      29.320  36.602  50.988  1.00  0.00    -0.365 N 
HETATM   24  H   UNL     1      28.389  36.378  51.318  1.00  0.00     0.159 HD
HETATM   25  H   UNL     1      30.119  36.043  51.241  1.00  0.00     0.159 HD
HETATM   26  O   UNL     1      30.576  37.962  49.686  1.00  0.00    -0.266 OA
ENDBRANCH   9  22
TORSDOF 4
ENDMDL
MODEL 4
REMARK VINA RESULT:      -7.9      6.388      8.622
REMARK  4 active torsions:
REMARK  status: ('A' for Active; 'I' for Inactive)
REMARK    1  A    between atoms: C_2  and  N_3 
REMARK    2  A    between atoms: C_4  and  C_5 
REMARK    3  A    between atoms: C_6  and  O_7 
REMARK    4  A    between atoms: C_19  and  C_20 
REMARK       I    between atoms: C_20  and  N_21 
ROOT
HETATM    1  C   UNL     1      26.755  48.588  49.567  1.00  0.00     0.034 A 
HETATM    2  C   UNL     1      25.805  47.740  50.152  1.00  0.00     0.057 A 
HETATM    3  C   UNL     1      24.460  47.845  49.779  1.00  0.00     0.048 A 
HETATM    4  C   UNL     1      24.070  48.816  48.835  1.00  0.00     0.030 A 
HETATM    5  C   UNL     1      25.040  49.651  48.297  1.00  0.00     0.063 A 
HETATM    6  N   UNL     1      24.372  50.468  47.428  1.00  0.00    -0.277 N 
HETATM    7  H   UNL     1      24.764  51.205  46.852  1.00  0.00     0.189 HD
HETATM    8  N   UNL     1      23.051  50.231  47.345  1.00  0.00    -0.168 NA
HETATM    9  C   UNL     1      22.851  49.210  48.207  1.00  0.00     0.156 A 
HETATM   10  C   UNL     1      26.393  49.571  48.639  1.00  0.00     0.034 A 
ENDROOT
BRANCH   2  11
HETATM   11  N   UNL     1      26.173  46.727  51.052  1.00  0.00    -0.260 NA
HETATM   12  C   UNL     1      26.066  46.982  52.319  1.00  0.00     0.131 C 
BRANCH  12  13
HETATM   13  C   UNL     1      26.438  45.971  53.331  1.00  0.00     0.016 A 
HETATM   14  C   UNL     1      25.726  44.775  53.477  1.00  0.00     0.077 A 
HETATM   15  C   UNL     1      26.101  43.845  54.444  1.00  0.00     0.039 A 
HETATM   16  C   UNL     1      27.200  44.103  55.265  1.00  0.00     0.022 A 
HETATM   17  C   UNL     1      27.913  45.293  55.114  1.00  0.00     0.012 A 
HETATM   18 BR   UNL     1      29.409  45.633  56.220  1.00  0.00    -0.051 Br
HETATM   19  C   UNL     1      27.537  46.234  54.154  1.00  0.00     0.034 A 
BRANCH  14  20
HETATM   20  O   UNL     1      24.644  44.452  52.706  1.00  0.00    -0.360 OA
HETATM   21  H   UNL     1      24.971  44.319  51.785  1.00  0.00     0.217 HD
ENDBRANCH  14  20
ENDBRANCH  12  13
ENDBRANCH   2  11
BRANCH   9  22
HETATM   22  C   UNL     1      21.516  48.628  48.408  1.00  0.00     0.270 C 
HETATM   23  N   UNL     1      21.010  48.809  49.666  1.00  0.00    -0.365 N 
HETATM   24  H   UNL     1      21.562  49.324  50.341  1.00  0.00     0.159 HD
HETATM   25  H   UNL     1      20.089  48.466  49.889  1.00  0.00     0.159 HD
HETATM   26  O   UNL     1      20.880  48.031  47.545  1.00  0.00    -0.266 OA
ENDBRANCH   9  22
TORSDOF 4
ENDMDL
MODEL 5
REMARK VINA RESULT:      -7.8      5.808      7.517
REMARK  4 active torsions:
REMARK  status: ('A' for Active; 'I' for Inactive)
REMARK    1  A    between atoms: C_2  and  N_3 
REMARK    2  A    between atoms: C_4  and  C_5 
REMARK    3  A    between atoms: C_6  and  O_7 
REMARK    4  A    between atoms: C_19  and  C_20 
REMARK       I    between atoms: C_20  and  N_21 
ROOT
HETATM    1  C   UNL     1      26.836  46.535  53.828  1.00  0.00     0.034 A 
HETATM    2  C   UNL     1      26.490  46.316  52.489  1.00  0.00     0.057 A 
HETATM    3  C   UNL     1      26.607  45.031  51.943  1.00  0.00     0.048 A 
HETATM    4  C   UNL     1      27.092  43.976  52.740  1.00  0.00     0.030 A 
HETATM    5  C   UNL     1      27.445  44.241  54.058  1.00  0.00     0.063 A 
HETATM    6  N   UNL     1      27.869  43.044  54.566  1.00  0.00    -0.277 N 
HETATM    7  H   UNL     1      28.201  42.859  55.506  1.00  0.00     0.189 HD
HETATM    8  N   UNL     1      27.812  42.019  53.698  1.00  0.00    -0.168 NA
HETATM    9  C   UNL     1      27.331  42.580  52.566  1.00  0.00     0.156 A 
HETATM   10  C   UNL     1      27.335  45.507  54.638  1.00  0.00     0.034 A 
ENDROOT
BRANCH   2  11
HETATM   11  N   UNL     1      25.951  47.336  51.687  1.00  0.00    -0.260 NA
HETATM   12  C   UNL     1      26.142  47.258  50.407  1.00  0.00     0.131 C 
BRANCH  12  13
HETATM   13  C   UNL     1      25.612  48.294  49.497  1.00  0.00     0.016 A 
HETATM   14  C   UNL     1      26.452  49.203  48.843  1.00  0.00     0.077 A 
HETATM   15  C   UNL     1      25.918  50.171  47.995  1.00  0.00     0.039 A 
HETATM   16  C   UNL     1      24.539  50.227  47.786  1.00  0.00     0.022 A 
HETATM   17  C   UNL     1      23.704  49.316  48.434  1.00  0.00     0.012 A 
HETATM   18 BR   UNL     1      21.837  49.388  48.140  1.00  0.00    -0.051 Br
HETATM   19  C   UNL     1      24.230  48.350  49.294  1.00  0.00     0.034 A 
BRANCH  14  20
HETATM   20  O   UNL     1      27.811  49.204  48.993  1.00  0.00    -0.360 OA
HETATM   21  H   UNL     1      28.203  48.986  48.115  1.00  0.00     0.217 HD
ENDBRANCH  14  20
ENDBRANCH  12  13
ENDBRANCH   2  11
BRANCH   9  22
HETATM   22  C   UNL     1      27.100  41.781  51.355  1.00  0.00     0.270 C 
HETATM   23  N   UNL     1      26.508  40.569  51.589  1.00  0.00    -0.365 N 
HETATM   24  H   UNL     1      26.266  40.324  52.541  1.00  0.00     0.159 HD
HETATM   25  H   UNL     1      26.287  39.963  50.815  1.00  0.00     0.159 HD
HETATM   26  O   UNL     1      27.393  42.137  50.218  1.00  0.00    -0.266 OA
ENDBRANCH   9  22
TORSDOF 4
ENDMDL
MODEL 6
REMARK VINA RESULT:      -7.8      4.831      8.034
REMARK  4 active torsions:
REMARK  status: ('A' for Active; 'I' for Inactive)
REMARK    1  A    between atoms: C_2  and  N_3 
REMARK    2  A    between atoms: C_4  and  C_5 
REMARK    3  A    between atoms: C_6  and  O_7 
REMARK    4  A    between atoms: C_19  and  C_20 
REMARK       I    between atoms: C_20  and  N_21 
ROOT
HETATM    1  C   UNL     1      29.128  42.795  52.523  1.00  0.00     0.034 A 
HETATM    2  C   UNL     1      28.045  43.653  52.751  1.00  0.00     0.057 A 
HETATM    3  C   UNL     1      28.039  44.477  53.883  1.00  0.00     0.048 A 
HETATM    4  C   UNL     1      29.113  44.420  54.794  1.00  0.00     0.030 A 
HETATM    5  C   UNL     1      30.157  43.539  54.541  1.00  0.00     0.063 A 
HETATM    6  N   UNL     1      31.032  43.710  55.578  1.00  0.00    -0.277 N 
HETATM    7  H   UNL     1      31.913  43.229  55.724  1.00  0.00     0.189 HD
HETATM    8  N   UNL     1      30.655  44.634  56.479  1.00  0.00    -0.168 NA
HETATM    9  C   UNL     1      29.472  45.084  56.005  1.00  0.00     0.156 A 
HETATM   10  C   UNL     1      30.200  42.708  53.419  1.00  0.00     0.034 A 
ENDROOT
BRANCH   2  11
HETATM   11  N   UNL     1      26.989  43.772  51.832  1.00  0.00    -0.260 NA
HETATM   12  C   UNL     1      26.182  44.777  51.972  1.00  0.00     0.131 C 
BRANCH  12  13
HETATM   13  C   UNL     1      25.043  44.969  51.049  1.00  0.00     0.016 A 
HETATM   14  C   UNL     1      24.151  43.933  50.750  1.00  0.00     0.077 A 
HETATM   15  C   UNL     1      23.091  44.148  49.873  1.00  0.00     0.039 A 
HETATM   16  C   UNL     1      22.910  45.406  49.297  1.00  0.00     0.022 A 
HETATM   17  C   UNL     1      23.797  46.440  49.601  1.00  0.00     0.012 A 
HETATM   18 BR   UNL     1      23.543  48.147  48.827  1.00  0.00    -0.051 Br
HETATM   19  C   UNL     1      24.868  46.230  50.471  1.00  0.00     0.034 A 
BRANCH  14  20
HETATM   20  O   UNL     1      24.260  42.678  51.282  1.00  0.00    -0.360 OA
HETATM   21  H   UNL     1      23.841  42.700  52.173  1.00  0.00     0.217 HD
ENDBRANCH  14  20
ENDBRANCH  12  13
ENDBRANCH   2  11
BRANCH   9  22
HETATM   22  C   UNL     1      28.717  46.134  56.703  1.00  0.00     0.270 C 
HETATM   23  N   UNL     1      28.896  46.143  58.060  1.00  0.00    -0.365 N 
HETATM   24  H   UNL     1      29.522  45.462  58.471  1.00  0.00     0.159 HD
HETATM   25  H   UNL     1      28.439  46.845  58.620  1.00  0.00     0.159 HD
HETATM   26  O   UNL     1      27.988  46.951  56.151  1.00  0.00    -0.266 OA
ENDBRANCH   9  22
TORSDOF 4
ENDMDL
MODEL 7
REMARK VINA RESULT:      -7.8      3.581      8.313
REMARK  4 active torsions:
REMARK  status: ('A' for Active; 'I' for Inactive)
REMARK    1  A    between atoms: C_2  and  N_3 
REMARK    2  A    between atoms: C_4  and  C_5 
REMARK    3  A    between atoms: C_6  and  O_7 
REMARK    4  A    between atoms: C_19  and  C_20 
REMARK       I    between atoms: C_20  and  N_21 
ROOT
HETATM    1  C   UNL     1      30.214  42.949  54.149  1.00  0.00     0.034 A 
HETATM    2  C   UNL     1      29.065  43.128  53.368  1.00  0.00     0.057 A 
HETATM    3  C   UNL     1      28.175  44.167  53.672  1.00  0.00     0.048 A 
HETATM    4  C   UNL     1      28.434  45.009  54.772  1.00  0.00     0.030 A 
HETATM    5  C   UNL     1      29.574  44.783  55.532  1.00  0.00     0.063 A 
HETATM    6  N   UNL     1      29.555  45.742  56.506  1.00  0.00    -0.277 N 
HETATM    7  H   UNL     1      30.236  45.883  57.244  1.00  0.00     0.189 HD
HETATM    8  N   UNL     1      28.507  46.582  56.440  1.00  0.00    -0.168 NA
HETATM    9  C   UNL     1      27.807  46.142  55.370  1.00  0.00     0.156 A 
HETATM   10  C   UNL     1      30.487  43.762  55.255  1.00  0.00     0.034 A 
ENDROOT
BRANCH   2  11
HETATM   11  N   UNL     1      28.810  42.340  52.234  1.00  0.00    -0.260 NA
HETATM   12  C   UNL     1      27.604  41.894  52.071  1.00  0.00     0.131 C 
BRANCH  12  13
HETATM   13  C   UNL     1      27.257  41.054  50.906  1.00  0.00     0.016 A 
HETATM   14  C   UNL     1      28.023  39.939  50.544  1.00  0.00     0.077 A 
HETATM   15  C   UNL     1      27.669  39.172  49.437  1.00  0.00     0.039 A 
HETATM   16  C   UNL     1      26.538  39.508  48.691  1.00  0.00     0.022 A 
HETATM   17  C   UNL     1      25.772  40.615  49.057  1.00  0.00     0.012 A 
HETATM   18 BR   UNL     1      24.234  41.061  48.051  1.00  0.00    -0.051 Br
HETATM   19  C   UNL     1      26.125  41.396  50.159  1.00  0.00     0.034 A 
BRANCH  14  20
HETATM   20  O   UNL     1      29.138  39.546  51.230  1.00  0.00    -0.360 OA
HETATM   21  H   UNL     1      28.890  38.754  51.762  1.00  0.00     0.217 HD
ENDBRANCH  14  20
ENDBRANCH  12  13
ENDBRANCH   2  11
BRANCH   9  22
HETATM   22  C   UNL     1      26.572  46.809  54.937  1.00  0.00     0.270 C 
HETATM   23  N   UNL     1      26.576  48.166  55.117  1.00  0.00    -0.365 N 
HETATM   24  H   UNL     1      27.403  48.600  55.508  1.00  0.00     0.159 HD
HETATM   25  H   UNL     1      25.781  48.712  54.825  1.00  0.00     0.159 HD
HETATM   26  O   UNL     1      25.605  46.235  54.447  1.00  0.00    -0.266 OA
ENDBRANCH   9  22
TORSDOF 4
ENDMDL
MODEL 8
REMARK VINA RESULT:      -7.7      6.320      8.798
REMARK  4 active torsions:
REMARK  status: ('A' for Active; 'I' for Inactive)
REMARK    1  A    between atoms: C_2  and  N_3 
REMARK    2  A    between atoms: C_4  and  C_5 
REMARK    3  A    between atoms: C_6  and  O_7 
REMARK    4  A    between atoms: C_19  and  C_20 
REMARK       I    between atoms: C_20  and  N_21 
ROOT
HETATM    1  C   UNL     1      26.979  48.330  49.441  1.00  0.00     0.034 A 
HETATM    2  C   UNL     1      26.024  47.396  49.861  1.00  0.00     0.057 A 
HETATM    3  C   UNL     1      24.681  47.570  49.504  1.00  0.00     0.048 A 
HETATM    4  C   UNL     1      24.300  48.694  48.744  1.00  0.00     0.030 A 
HETATM    5  C   UNL     1      25.276  49.607  48.368  1.00  0.00     0.063 A 
HETATM    6  N   UNL     1      24.615  50.568  47.653  1.00  0.00    -0.277 N 
HETATM    7  H   UNL     1      25.013  51.393  47.219  1.00  0.00     0.189 HD
HETATM    8  N   UNL     1      23.295  50.354  47.521  1.00  0.00    -0.168 NA
HETATM    9  C   UNL     1      23.086  49.197  48.189  1.00  0.00     0.156 A 
HETATM   10  C   UNL     1      26.626  49.463  48.698  1.00  0.00     0.034 A 
ENDROOT
BRANCH   2  11
HETATM   11  N   UNL     1      26.383  46.238  50.570  1.00  0.00    -0.260 NA
HETATM   12  C   UNL     1      26.937  45.274  49.904  1.00  0.00     0.131 C 
BRANCH  12  13
HETATM   13  C   UNL     1      27.339  44.021  50.576  1.00  0.00     0.016 A 
HETATM   14  C   UNL     1      27.222  42.774  49.949  1.00  0.00     0.077 A 
HETATM   15  C   UNL     1      27.607  41.612  50.614  1.00  0.00     0.039 A 
HETATM   16  C   UNL     1      28.122  41.692  51.909  1.00  0.00     0.022 A 
HETATM   17  C   UNL     1      28.244  42.935  52.530  1.00  0.00     0.012 A 
HETATM   18 BR   UNL     1      28.953  43.039  54.280  1.00  0.00    -0.051 Br
HETATM   19  C   UNL     1      27.851  44.103  51.875  1.00  0.00     0.034 A 
BRANCH  14  20
HETATM   20  O   UNL     1      26.734  42.620  48.681  1.00  0.00    -0.360 OA
HETATM   21  H   UNL     1      26.470  43.514  48.359  1.00  0.00     0.217 HD
ENDBRANCH  14  20
ENDBRANCH  12  13
ENDBRANCH   2  11
BRANCH   9  22
HETATM   22  C   UNL     1      21.749  48.593  48.274  1.00  0.00     0.270 C 
HETATM   23  N   UNL     1      21.204  48.618  49.529  1.00  0.00    -0.365 N 
HETATM   24  H   UNL     1      21.733  49.047  50.279  1.00  0.00     0.159 HD
HETATM   25  H   UNL     1      20.278  48.250  49.680  1.00  0.00     0.159 HD
HETATM   26  O   UNL     1      21.142  48.106  47.326  1.00  0.00    -0.266 OA
ENDBRANCH   9  22
TORSDOF 4
ENDMDL
MODEL 9
REMARK VINA RESULT:      -7.7      5.396      7.031
REMARK  4 active torsions:
REMARK  status: ('A' for Active; 'I' for Inactive)
REMARK    1  A    between atoms: C_2  and  N_3 
REMARK    2  A    between atoms: C_4  and  C_5 
REMARK    3  A    between atoms: C_6  and  O_7 
REMARK    4  A    between atoms: C_19  and  C_20 
REMARK       I    between atoms: C_20  and  N_21 
ROOT
HETATM    1  C   UNL     1      25.986  42.975  49.721  1.00  0.00     0.034 A 
HETATM    2  C   UNL     1      26.468  44.208  50.179  1.00  0.00     0.057 A 
HETATM    3  C   UNL     1      27.262  44.257  51.332  1.00  0.00     0.048 A 
HETATM    4  C   UNL     1      27.552  43.068  52.031  1.00  0.00     0.030 A 
HETATM    5  C   UNL     1      27.036  41.870  51.554  1.00  0.00     0.063 A 
HETATM    6  N   UNL     1      27.482  40.913  52.424  1.00  0.00    -0.277 N 
HETATM    7  H   UNL     1      27.301  39.917  52.386  1.00  0.00     0.189 HD
HETATM    8  N   UNL     1      28.253  41.383  53.420  1.00  0.00    -0.168 NA
HETATM    9  C   UNL     1      28.307  42.713  53.188  1.00  0.00     0.156 A 
HETATM   10  C   UNL     1      26.246  41.782  50.405  1.00  0.00     0.034 A 
ENDROOT
BRANCH   2  11
HETATM   11  N   UNL     1      26.241  45.400  49.472  1.00  0.00    -0.260 NA
HETATM   12  C   UNL     1      25.903  46.449  50.155  1.00  0.00     0.131 C 
BRANCH  12  13
HETATM   13  C   UNL     1      25.643  47.739  49.485  1.00  0.00     0.016 A 
HETATM   14  C   UNL     1      26.658  48.456  48.840  1.00  0.00     0.077 A 
HETATM   15  C   UNL     1      26.378  49.673  48.222  1.00  0.00     0.039 A 
HETATM   16  C   UNL     1      25.075  50.174  48.235  1.00  0.00     0.022 A 
HETATM   17  C   UNL     1      24.064  49.456  48.873  1.00  0.00     0.012 A 
HETATM   18 BR   UNL     1      22.298  50.133  48.878  1.00  0.00    -0.051 Br
HETATM   19  C   UNL     1      24.337  48.241  49.504  1.00  0.00     0.034 A 
BRANCH  14  20
HETATM   20  O   UNL     1      27.953  48.024  48.781  1.00  0.00    -0.360 OA
HETATM   21  H   UNL     1      27.944  47.124  48.380  1.00  0.00     0.217 HD
ENDBRANCH  14  20
ENDBRANCH  12  13
ENDBRANCH   2  11
BRANCH   9  22
HETATM   22  C   UNL     1      29.079  43.611  54.058  1.00  0.00     0.270 C 
HETATM   23  N   UNL     1      30.258  43.079  54.505  1.00  0.00    -0.365 N 
HETATM   24  H   UNL     1      30.514  42.146  54.205  1.00  0.00     0.159 HD
HETATM   25  H   UNL     1      30.867  43.632  55.087  1.00  0.00     0.159 HD
HETATM   26  O   UNL     1      28.732  44.744  54.373  1.00  0.00    -0.266 OA
ENDBRANCH   9  22
TORSDOF 4
ENDMDL
MODEL 10
REMARK VINA RESULT:      -7.6      3.746      7.807
REMARK  4 active torsions:
REMARK  status: ('A' for Active; 'I' for Inactive)
REMARK    1  A    between atoms: C_2  and  N_3 
REMARK    2  A    between atoms: C_4  and  C_5 
REMARK    3  A    between atoms: C_6  and  O_7 
REMARK    4  A    between atoms: C_19  and  C_20 
REMARK       I    between atoms: C_20  and  N_21 
ROOT
HETATM    1  C   UNL     1      27.773  43.695  54.069  1.00  0.00     0.034 A 
HETATM    2  C   UNL     1      27.611  43.599  52.681  1.00  0.00     0.057 A 
HETATM    3  C   UNL     1      26.961  44.627  51.987  1.00  0.00     0.048 A 
HETATM    4  C   UNL     1      26.458  45.738  52.693  1.00  0.00     0.030 A 
HETATM    5  C   UNL     1      26.621  45.782  54.072  1.00  0.00     0.063 A 
HETATM    6  N   UNL     1      26.044  46.958  54.466  1.00  0.00    -0.277 N 
HETATM    7  H   UNL     1      25.978  47.323  55.409  1.00  0.00     0.189 HD
HETATM    8  N   UNL     1      25.529  47.689  53.462  1.00  0.00    -0.168 NA
HETATM    9  C   UNL     1      25.780  46.948  52.360  1.00  0.00     0.156 A 
HETATM   10  C   UNL     1      27.270  44.780  54.797  1.00  0.00     0.034 A 
ENDROOT
BRANCH   2  11
HETATM   11  N   UNL     1      28.151  42.532  51.945  1.00  0.00    -0.260 NA
HETATM   12  C   UNL     1      27.462  42.086  50.941  1.00  0.00     0.131 C 
BRANCH  12  13
HETATM   13  C   UNL     1      27.958  40.962  50.120  1.00  0.00     0.016 A 
HETATM   14  C   UNL     1      27.866  40.970  48.723  1.00  0.00     0.077 A 
HETATM   15  C   UNL     1      28.340  39.891  47.980  1.00  0.00     0.039 A 
HETATM   16  C   UNL     1      28.920  38.801  48.631  1.00  0.00     0.022 A 
HETATM   17  C   UNL     1      29.016  38.798  50.022  1.00  0.00     0.012 A 
HETATM   18 BR   UNL     1      29.812  37.324  50.900  1.00  0.00    -0.051 Br
HETATM   19  C   UNL     1      28.534  39.870  50.776  1.00  0.00     0.034 A 
BRANCH  14  20
HETATM   20  O   UNL     1      27.318  42.005  48.017  1.00  0.00    -0.360 OA
HETATM   21  H   UNL     1      27.821  42.819  48.253  1.00  0.00     0.217 HD
ENDBRANCH  14  20
ENDBRANCH  12  13
ENDBRANCH   2  11
BRANCH   9  22
HETATM   22  C   UNL     1      25.383  47.408  51.022  1.00  0.00     0.270 C 
HETATM   23  N   UNL     1      24.124  47.022  50.649  1.00  0.00    -0.365 N 
HETATM   24  H   UNL     1      23.570  46.479  51.301  1.00  0.00     0.159 HD
HETATM   25  H   UNL     1      23.755  47.313  49.758  1.00  0.00     0.159 HD
HETATM   26  O   UNL     1      26.087  48.084  50.280  1.00  0.00    -0.266 OA
ENDBRANCH   9  22
TORSDOF 4
ENDMDL
