MODEL 1
REMARK VINA RESULT:      -9.3      0.000      0.000
REMARK  10 active torsions:
REMARK  status: ('A' for Active; 'I' for Inactive)
REMARK    1  A    between atoms: C_2  and  N_3 
REMARK    2  A    between atoms: N_3  and  C_5 
REMARK    3  A    between atoms: N_3  and  C_35 
REMARK    4  A    between atoms: C_5  and  C_6 
REMARK    5  A    between atoms: C_6  and  C_7 
REMARK    6  A    between atoms: C_7  and  N_8 
REMARK       I    between atoms: N_8  and  C_9 
REMARK    7  A    between atoms: N_8  and  C_19 
REMARK       I    between atoms: C_9  and  N_10 
REMARK    8  A    between atoms: N_10  and  C_11 
REMARK    9  A    between atoms: C_19  and  C_20 
REMARK   10  A    between atoms: C_21  and  O_22 
ROOT
HETATM    1  N   UNL     1      25.071  44.368  50.965  1.00  0.00    -0.330 N 
HETATM    2  C   UNL     1      24.841  45.299  49.926  1.00  0.00     0.323 C 
HETATM    3  N   UNL     1      24.927  46.612  50.335  1.00  0.00    -0.309 N 
HETATM    4  O   UNL     1      24.702  44.952  48.754  1.00  0.00    -0.247 OA
HETATM    5  H   UNL     1      25.498  46.795  51.151  1.00  0.00     0.170 HD
ENDROOT
BRANCH   1   6
HETATM    6  C   UNL     1      25.085  42.907  50.733  1.00  0.00     0.129 C 
BRANCH   6   7
HETATM    7  C   UNL     1      26.408  42.191  50.450  1.00  0.00     0.048 C 
BRANCH   7   8
HETATM    8  C   UNL     1      26.325  40.671  50.569  1.00  0.00     0.236 C 
BRANCH   8   9
HETATM    9  N   UNL     1      27.660  40.089  51.002  1.00  0.00    -0.072 N 
HETATM   10  H   UNL     1      27.392  39.310  51.632  1.00  0.00     0.279 HD
BRANCH   9  11
HETATM   11  C   UNL     1      28.532  41.009  51.834  1.00  0.00     0.230 C 
HETATM   12  C   UNL     1      28.449  40.702  53.319  1.00  0.00     0.034 C 
ENDBRANCH   9  11
BRANCH   9  13
HETATM   13  C   UNL     1      28.426  39.452  49.857  1.00  0.00     0.230 C 
HETATM   14  C   UNL     1      29.381  38.387  50.366  1.00  0.00     0.034 C 
ENDBRANCH   9  13
ENDBRANCH   8   9
ENDBRANCH   7   8
ENDBRANCH   6   7
ENDBRANCH   1   6
BRANCH   1  15
HETATM   15  C   UNL     1      24.816  44.741  52.377  1.00  0.00     0.170 C 
BRANCH  15  16
HETATM   16  C   UNL     1      26.011  45.200  53.175  1.00  0.00     0.013 A 
HETATM   17  C   UNL     1      26.215  46.483  53.662  1.00  0.00     0.170 A 
HETATM   18  N   UNL     1      27.188  46.841  54.515  1.00  0.00    -0.224 NA
HETATM   19  C   UNL     1      28.051  45.903  54.931  1.00  0.00     0.072 A 
HETATM   20  C   UNL     1      27.976  44.571  54.479  1.00  0.00    -0.004 A 
HETATM   21  C   UNL     1      29.039  46.239  55.845  1.00  0.00     0.072 A 
HETATM   22  C   UNL     1      26.937  44.235  53.598  1.00  0.00     0.027 A 
HETATM   23  C   UNL     1      28.908  43.617  54.921  1.00  0.00     0.053 A 
HETATM   24  C   UNL     1      29.901  43.982  55.826  1.00  0.00     0.103 A 
HETATM   25  C   UNL     1      29.946  45.288  56.311  1.00  0.00     0.104 A 
HETATM   26  O   UNL     1      30.782  43.005  56.204  1.00  0.00    -0.346 OA
HETATM   27  O   UNL     1      30.858  45.708  57.244  1.00  0.00    -0.346 OA
HETATM   28  C   UNL     1      31.482  44.597  57.902  1.00  0.00     0.202 C 
HETATM   29  C   UNL     1      31.919  43.557  56.883  1.00  0.00     0.202 C 
BRANCH  17  30
HETATM   30  O   UNL     1      25.406  47.521  53.311  1.00  0.00    -0.344 OA
HETATM   31  H   UNL     1      24.813  47.167  52.635  1.00  0.00     0.219 HD
ENDBRANCH  17  30
ENDBRANCH  15  16
ENDBRANCH   1  15
BRANCH   3  32
HETATM   32  C   UNL     1      24.582  47.768  49.606  1.00  0.00     0.036 A 
HETATM   33  C   UNL     1      23.265  48.135  49.313  1.00  0.00     0.032 A 
HETATM   34  C   UNL     1      23.006  49.317  48.614  1.00  0.00     0.044 A 
HETATM   35  C   UNL     1      24.061  50.131  48.218  1.00  0.00     0.116 A 
HETATM   36  F   UNL     1      23.807  51.265  47.551  1.00  0.00    -0.206 F 
HETATM   37  C   UNL     1      25.373  49.788  48.509  1.00  0.00     0.044 A 
HETATM   38  C   UNL     1      25.633  48.607  49.206  1.00  0.00     0.032 A 
ENDBRANCH   3  32
TORSDOF 10
ENDMDL
MODEL 2
REMARK VINA RESULT:      -8.8      3.312      8.343
REMARK  10 active torsions:
REMARK  status: ('A' for Active; 'I' for Inactive)
REMARK    1  A    between atoms: C_2  and  N_3 
REMARK    2  A    between atoms: N_3  and  C_5 
REMARK    3  A    between atoms: N_3  and  C_35 
REMARK    4  A    between atoms: C_5  and  C_6 
REMARK    5  A    between atoms: C_6  and  C_7 
REMARK    6  A    between atoms: C_7  and  N_8 
REMARK       I    between atoms: N_8  and  C_9 
REMARK    7  A    between atoms: N_8  and  C_19 
REMARK       I    between atoms: C_9  and  N_10 
REMARK    8  A    between atoms: N_10  and  C_11 
REMARK    9  A    between atoms: C_19  and  C_20 
REMARK   10  A    between atoms: C_21  and  O_22 
ROOT
HETATM    1  N   UNL     1      26.364  46.131  53.464  1.00  0.00    -0.330 N 
HETATM    2  C   UNL     1      27.473  46.414  54.293  1.00  0.00     0.323 C 
HETATM    3  N   UNL     1      28.008  45.296  54.896  1.00  0.00    -0.309 N 
HETATM    4  O   UNL     1      27.974  47.536  54.358  1.00  0.00    -0.247 OA
HETATM    5  H   UNL     1      27.854  44.412  54.428  1.00  0.00     0.170 HD
ENDROOT
BRANCH   1   6
HETATM    6  C   UNL     1      25.676  47.177  52.675  1.00  0.00     0.129 C 
BRANCH   6   7
HETATM    7  C   UNL     1      26.042  47.388  51.204  1.00  0.00     0.048 C 
BRANCH   7   8
HETATM    8  C   UNL     1      24.835  47.589  50.290  1.00  0.00     0.236 C 
BRANCH   8   9
HETATM    9  N   UNL     1      25.230  48.343  49.032  1.00  0.00    -0.072 N 
HETATM   10  H   UNL     1      25.113  47.638  48.280  1.00  0.00     0.279 HD
BRANCH   9  11
HETATM   11  C   UNL     1      26.681  48.780  48.962  1.00  0.00     0.230 C 
HETATM   12  C   UNL     1      26.840  50.185  48.407  1.00  0.00     0.034 C 
ENDBRANCH   9  11
BRANCH   9  13
HETATM   13  C   UNL     1      24.275  49.474  48.695  1.00  0.00     0.230 C 
HETATM   14  C   UNL     1      22.918  49.252  49.339  1.00  0.00     0.034 C 
ENDBRANCH   9  13
ENDBRANCH   8   9
ENDBRANCH   7   8
ENDBRANCH   6   7
ENDBRANCH   1   6
BRANCH   1  15
HETATM   15  C   UNL     1      25.530  44.930  53.709  1.00  0.00     0.170 C 
BRANCH  15  16
HETATM   16  C   UNL     1      25.561  43.864  52.643  1.00  0.00     0.013 A 
HETATM   17  C   UNL     1      24.699  43.777  51.559  1.00  0.00     0.170 A 
HETATM   18  N   UNL     1      24.840  42.933  50.525  1.00  0.00    -0.224 NA
HETATM   19  C   UNL     1      25.880  42.087  50.527  1.00  0.00     0.072 A 
HETATM   20  C   UNL     1      26.804  42.047  51.589  1.00  0.00    -0.004 A 
HETATM   21  C   UNL     1      26.070  41.234  49.448  1.00  0.00     0.072 A 
HETATM   22  C   UNL     1      26.629  42.955  52.644  1.00  0.00     0.027 A 
HETATM   23  C   UNL     1      27.873  41.135  51.566  1.00  0.00     0.053 A 
HETATM   24  C   UNL     1      28.033  40.278  50.482  1.00  0.00     0.103 A 
HETATM   25  C   UNL     1      27.147  40.350  49.408  1.00  0.00     0.104 A 
HETATM   26  O   UNL     1      29.088  39.407  50.533  1.00  0.00    -0.346 OA
HETATM   27  O   UNL     1      27.272  39.578  48.282  1.00  0.00    -0.346 OA
HETATM   28  C   UNL     1      28.578  38.992  48.193  1.00  0.00     0.202 C 
HETATM   29  C   UNL     1      28.978  38.388  49.530  1.00  0.00     0.202 C 
BRANCH  17  30
HETATM   30  O   UNL     1      23.607  44.582  51.445  1.00  0.00    -0.344 OA
HETATM   31  H   UNL     1      22.963  44.071  50.936  1.00  0.00     0.219 HD
ENDBRANCH  17  30
ENDBRANCH  15  16
ENDBRANCH   1  15
BRANCH   3  32
HETATM   32  C   UNL     1      28.989  45.246  55.907  1.00  0.00     0.036 A 
HETATM   33  C   UNL     1      28.899  45.952  57.110  1.00  0.00     0.032 A 
HETATM   34  C   UNL     1      29.901  45.820  58.077  1.00  0.00     0.044 A 
HETATM   35  C   UNL     1      30.982  44.980  57.841  1.00  0.00     0.116 A 
HETATM   36  F   UNL     1      31.937  44.855  58.772  1.00  0.00    -0.206 F 
HETATM   37  C   UNL     1      31.083  44.264  56.657  1.00  0.00     0.044 A 
HETATM   38  C   UNL     1      30.084  44.395  55.690  1.00  0.00     0.032 A 
ENDBRANCH   3  32
TORSDOF 10
ENDMDL
MODEL 3
REMARK VINA RESULT:      -8.5      3.413      8.666
REMARK  10 active torsions:
REMARK  status: ('A' for Active; 'I' for Inactive)
REMARK    1  A    between atoms: C_2  and  N_3 
REMARK    2  A    between atoms: N_3  and  C_5 
REMARK    3  A    between atoms: N_3  and  C_35 
REMARK    4  A    between atoms: C_5  and  C_6 
REMARK    5  A    between atoms: C_6  and  C_7 
REMARK    6  A    between atoms: C_7  and  N_8 
REMARK       I    between atoms: N_8  and  C_9 
REMARK    7  A    between atoms: N_8  and  C_19 
REMARK       I    between atoms: C_9  and  N_10 
REMARK    8  A    between atoms: N_10  and  C_11 
REMARK    9  A    between atoms: C_19  and  C_20 
REMARK   10  A    between atoms: C_21  and  O_22 
ROOT
HETATM    1  N   UNL     1      26.368  45.581  53.109  1.00  0.00    -0.330 N 
HETATM    2  C   UNL     1      27.306  46.036  54.064  1.00  0.00     0.323 C 
HETATM    3  N   UNL     1      28.103  45.034  54.574  1.00  0.00    -0.309 N 
HETATM    4  O   UNL     1      27.464  47.231  54.309  1.00  0.00    -0.247 OA
HETATM    5  H   UNL     1      28.231  44.217  53.990  1.00  0.00     0.170 HD
ENDROOT
BRANCH   1   6
HETATM    6  C   UNL     1      25.456  46.499  52.393  1.00  0.00     0.129 C 
BRANCH   6   7
HETATM    7  C   UNL     1      25.290  46.381  50.876  1.00  0.00     0.048 C 
BRANCH   7   8
HETATM    8  C   UNL     1      24.506  47.533  50.249  1.00  0.00     0.236 C 
BRANCH   8   9
HETATM    9  N   UNL     1      25.336  48.237  49.190  1.00  0.00    -0.072 N 
HETATM   10  H   UNL     1      25.339  47.566  48.399  1.00  0.00     0.279 HD
BRANCH   9  11
HETATM   11  C   UNL     1      26.794  48.458  49.545  1.00  0.00     0.230 C 
HETATM   12  C   UNL     1      27.393  49.653  48.823  1.00  0.00     0.034 C 
ENDBRANCH   9  11
BRANCH   9  13
HETATM   13  C   UNL     1      24.677  49.498  48.663  1.00  0.00     0.230 C 
HETATM   14  C   UNL     1      23.270  49.649  49.213  1.00  0.00     0.034 C 
ENDBRANCH   9  13
ENDBRANCH   8   9
ENDBRANCH   7   8
ENDBRANCH   6   7
ENDBRANCH   1   6
BRANCH   1  15
HETATM   15  C   UNL     1      25.897  44.175  53.131  1.00  0.00     0.170 C 
BRANCH  15  16
HETATM   16  C   UNL     1      26.687  43.191  52.304  1.00  0.00     0.013 A 
HETATM   17  C   UNL     1      27.546  42.222  52.801  1.00  0.00     0.170 A 
HETATM   18  N   UNL     1      28.108  41.241  52.076  1.00  0.00    -0.224 NA
HETATM   19  C   UNL     1      27.842  41.184  50.763  1.00  0.00     0.072 A 
HETATM   20  C   UNL     1      27.017  42.133  50.130  1.00  0.00    -0.004 A 
HETATM   21  C   UNL     1      28.377  40.155  50.001  1.00  0.00     0.072 A 
HETATM   22  C   UNL     1      26.439  43.134  50.924  1.00  0.00     0.027 A 
HETATM   23  C   UNL     1      26.773  42.053  48.748  1.00  0.00     0.053 A 
HETATM   24  C   UNL     1      27.334  41.021  48.001  1.00  0.00     0.103 A 
HETATM   25  C   UNL     1      28.113  40.054  48.636  1.00  0.00     0.104 A 
HETATM   26  O   UNL     1      27.066  41.013  46.659  1.00  0.00    -0.346 OA
HETATM   27  O   UNL     1      28.652  38.978  47.979  1.00  0.00    -0.346 OA
HETATM   28  C   UNL     1      28.032  38.783  46.701  1.00  0.00     0.202 C 
HETATM   29  C   UNL     1      27.926  40.104  45.957  1.00  0.00     0.202 C 
BRANCH  17  30
HETATM   30  O   UNL     1      27.893  42.177  54.117  1.00  0.00    -0.344 OA
HETATM   31  H   UNL     1      27.788  43.082  54.441  1.00  0.00     0.219 HD
ENDBRANCH  17  30
ENDBRANCH  15  16
ENDBRANCH   1  15
BRANCH   3  32
HETATM   32  C   UNL     1      29.002  45.112  55.657  1.00  0.00     0.036 A 
HETATM   33  C   UNL     1      28.798  45.922  56.777  1.00  0.00     0.032 A 
HETATM   34  C   UNL     1      29.723  45.915  57.825  1.00  0.00     0.044 A 
HETATM   35  C   UNL     1      30.842  45.095  57.753  1.00  0.00     0.116 A 
HETATM   36  F   UNL     1      31.724  45.089  58.761  1.00  0.00    -0.206 F 
HETATM   37  C   UNL     1      31.056  44.277  56.653  1.00  0.00     0.044 A 
HETATM   38  C   UNL     1      30.133  44.283  55.606  1.00  0.00     0.032 A 
ENDBRANCH   3  32
TORSDOF 10
ENDMDL
MODEL 4
REMARK VINA RESULT:      -8.5      3.530      9.101
REMARK  10 active torsions:
REMARK  status: ('A' for Active; 'I' for Inactive)
REMARK    1  A    between atoms: C_2  and  N_3 
REMARK    2  A    between atoms: N_3  and  C_5 
REMARK    3  A    between atoms: N_3  and  C_35 
REMARK    4  A    between atoms: C_5  and  C_6 
REMARK    5  A    between atoms: C_6  and  C_7 
REMARK    6  A    between atoms: C_7  and  N_8 
REMARK       I    between atoms: N_8  and  C_9 
REMARK    7  A    between atoms: N_8  and  C_19 
REMARK       I    between atoms: C_9  and  N_10 
REMARK    8  A    between atoms: N_10  and  C_11 
REMARK    9  A    between atoms: C_19  and  C_20 
REMARK   10  A    between atoms: C_21  and  O_22 
ROOT
HETATM    1  N   UNL     1      26.393  45.996  53.533  1.00  0.00    -0.330 N 
HETATM    2  C   UNL     1      27.562  46.162  54.310  1.00  0.00     0.323 C 
HETATM    3  N   UNL     1      28.197  44.975  54.609  1.00  0.00    -0.309 N 
HETATM    4  O   UNL     1      28.019  47.272  54.578  1.00  0.00    -0.247 OA
HETATM    5  H   UNL     1      28.037  44.204  53.973  1.00  0.00     0.170 HD
ENDROOT
BRANCH   1   6
HETATM    6  C   UNL     1      25.592  47.142  53.050  1.00  0.00     0.129 C 
BRANCH   6   7
HETATM    7  C   UNL     1      25.048  47.145  51.619  1.00  0.00     0.048 C 
BRANCH   7   8
HETATM    8  C   UNL     1      26.099  47.477  50.561  1.00  0.00     0.236 C 
BRANCH   8   9
HETATM    9  N   UNL     1      25.455  48.118  49.344  1.00  0.00    -0.072 N 
HETATM   10  H   UNL     1      25.494  47.369  48.626  1.00  0.00     0.279 HD
BRANCH   9  11
HETATM   11  C   UNL     1      26.207  49.294  48.751  1.00  0.00     0.230 C 
HETATM   12  C   UNL     1      27.693  49.252  49.066  1.00  0.00     0.034 C 
ENDBRANCH   9  11
BRANCH   9  13
HETATM   13  C   UNL     1      23.982  48.423  49.546  1.00  0.00     0.230 C 
HETATM   14  C   UNL     1      23.124  47.649  48.561  1.00  0.00     0.034 C 
ENDBRANCH   9  13
ENDBRANCH   8   9
ENDBRANCH   7   8
ENDBRANCH   6   7
ENDBRANCH   1   6
BRANCH   1  15
HETATM   15  C   UNL     1      25.637  44.721  53.577  1.00  0.00     0.170 C 
BRANCH  15  16
HETATM   16  C   UNL     1      25.657  43.886  52.322  1.00  0.00     0.013 A 
HETATM   17  C   UNL     1      26.680  43.033  51.933  1.00  0.00     0.170 A 
HETATM   18  N   UNL     1      26.617  42.165  50.911  1.00  0.00    -0.224 NA
HETATM   19  C   UNL     1      25.490  42.113  50.185  1.00  0.00     0.072 A 
HETATM   20  C   UNL     1      24.394  42.955  50.452  1.00  0.00    -0.004 A 
HETATM   21  C   UNL     1      25.386  41.194  49.149  1.00  0.00     0.072 A 
HETATM   22  C   UNL     1      24.495  43.839  51.537  1.00  0.00     0.027 A 
HETATM   23  C   UNL     1      23.235  42.886  49.660  1.00  0.00     0.053 A 
HETATM   24  C   UNL     1      23.160  41.968  48.617  1.00  0.00     0.103 A 
HETATM   25  C   UNL     1      24.226  41.101  48.381  1.00  0.00     0.104 A 
HETATM   26  O   UNL     1      22.007  41.965  47.878  1.00  0.00    -0.346 OA
HETATM   27  O   UNL     1      24.203  40.134  47.410  1.00  0.00    -0.346 OA
HETATM   28  C   UNL     1      22.869  39.894  46.943  1.00  0.00     0.202 C 
HETATM   29  C   UNL     1      22.160  41.210  46.668  1.00  0.00     0.202 C 
BRANCH  17  30
HETATM   30  O   UNL     1      27.871  42.995  52.590  1.00  0.00    -0.344 OA
HETATM   31  H   UNL     1      28.137  42.065  52.589  1.00  0.00     0.219 HD
ENDBRANCH  17  30
ENDBRANCH  15  16
ENDBRANCH   1  15
BRANCH   3  32
HETATM   32  C   UNL     1      29.269  44.770  55.501  1.00  0.00     0.036 A 
HETATM   33  C   UNL     1      29.495  45.556  56.635  1.00  0.00     0.032 A 
HETATM   34  C   UNL     1      30.563  45.264  57.489  1.00  0.00     0.044 A 
HETATM   35  C   UNL     1      31.394  44.185  57.211  1.00  0.00     0.116 A 
HETATM   36  F   UNL     1      32.413  43.908  58.034  1.00  0.00    -0.206 F 
HETATM   37  C   UNL     1      31.179  43.389  56.096  1.00  0.00     0.044 A 
HETATM   38  C   UNL     1      30.113  43.680  55.242  1.00  0.00     0.032 A 
ENDBRANCH   3  32
TORSDOF 10
ENDMDL
MODEL 5
REMARK VINA RESULT:      -8.4      3.161      7.876
REMARK  10 active torsions:
REMARK  status: ('A' for Active; 'I' for Inactive)
REMARK    1  A    between atoms: C_2  and  N_3 
REMARK    2  A    between atoms: N_3  and  C_5 
REMARK    3  A    between atoms: N_3  and  C_35 
REMARK    4  A    between atoms: C_5  and  C_6 
REMARK    5  A    between atoms: C_6  and  C_7 
REMARK    6  A    between atoms: C_7  and  N_8 
REMARK       I    between atoms: N_8  and  C_9 
REMARK    7  A    between atoms: N_8  and  C_19 
REMARK       I    between atoms: C_9  and  N_10 
REMARK    8  A    between atoms: N_10  and  C_11 
REMARK    9  A    between atoms: C_19  and  C_20 
REMARK   10  A    between atoms: C_21  and  O_22 
ROOT
HETATM    1  N   UNL     1      26.976  42.547  51.426  1.00  0.00    -0.330 N 
HETATM    2  C   UNL     1      27.481  42.737  52.733  1.00  0.00     0.323 C 
HETATM    3  N   UNL     1      27.808  44.047  53.012  1.00  0.00    -0.309 N 
HETATM    4  O   UNL     1      27.500  41.832  53.565  1.00  0.00    -0.247 OA
HETATM    5  H   UNL     1      27.326  44.757  52.475  1.00  0.00     0.170 HD
ENDROOT
BRANCH   1   6
HETATM    6  C   UNL     1      26.508  41.231  50.939  1.00  0.00     0.129 C 
BRANCH   6   7
HETATM    7  C   UNL     1      27.400  40.397  50.017  1.00  0.00     0.048 C 
BRANCH   7   8
HETATM    8  C   UNL     1      28.631  39.815  50.710  1.00  0.00     0.236 C 
BRANCH   8   9
HETATM    9  N   UNL     1      28.654  38.301  50.586  1.00  0.00    -0.072 N 
HETATM   10  H   UNL     1      28.034  37.985  51.356  1.00  0.00     0.279 HD
BRANCH   9  11
HETATM   11  C   UNL     1      29.997  37.646  50.847  1.00  0.00     0.230 C 
HETATM   12  C   UNL     1      29.870  36.348  51.625  1.00  0.00     0.034 C 
ENDBRANCH   9  11
BRANCH   9  13
HETATM   13  C   UNL     1      28.012  37.802  49.305  1.00  0.00     0.230 C 
HETATM   14  C   UNL     1      26.805  36.930  49.602  1.00  0.00     0.034 C 
ENDBRANCH   9  13
ENDBRANCH   8   9
ENDBRANCH   7   8
ENDBRANCH   6   7
ENDBRANCH   1   6
BRANCH   1  15
HETATM   15  C   UNL     1      27.341  43.486  50.338  1.00  0.00     0.170 C 
BRANCH  15  16
HETATM   16  C   UNL     1      26.204  44.242  49.696  1.00  0.00     0.013 A 
HETATM   17  C   UNL     1      25.241  43.699  48.859  1.00  0.00     0.170 A 
HETATM   18  N   UNL     1      24.138  44.335  48.434  1.00  0.00    -0.224 NA
HETATM   19  C   UNL     1      23.939  45.602  48.826  1.00  0.00     0.072 A 
HETATM   20  C   UNL     1      24.864  46.281  49.644  1.00  0.00    -0.004 A 
HETATM   21  C   UNL     1      22.786  46.267  48.434  1.00  0.00     0.072 A 
HETATM   22  C   UNL     1      25.997  45.576  50.077  1.00  0.00     0.027 A 
HETATM   23  C   UNL     1      24.632  47.615  50.022  1.00  0.00     0.053 A 
HETATM   24  C   UNL     1      23.476  48.266  49.602  1.00  0.00     0.103 A 
HETATM   25  C   UNL     1      22.537  47.580  48.833  1.00  0.00     0.104 A 
HETATM   26  O   UNL     1      23.322  49.567  49.997  1.00  0.00    -0.346 OA
HETATM   27  O   UNL     1      21.351  48.135  48.430  1.00  0.00    -0.346 OA
HETATM   28  C   UNL     1      21.047  49.319  49.179  1.00  0.00     0.202 C 
HETATM   29  C   UNL     1      22.270  50.217  49.269  1.00  0.00     0.202 C 
BRANCH  17  30
HETATM   30  O   UNL     1      25.332  42.423  48.392  1.00  0.00    -0.344 OA
HETATM   31  H   UNL     1      25.178  41.857  49.161  1.00  0.00     0.219 HD
ENDBRANCH  17  30
ENDBRANCH  15  16
ENDBRANCH   1  15
BRANCH   3  32
HETATM   32  C   UNL     1      28.493  44.544  54.139  1.00  0.00     0.036 A 
HETATM   33  C   UNL     1      29.646  43.956  54.667  1.00  0.00     0.032 A 
HETATM   34  C   UNL     1      30.285  44.535  55.768  1.00  0.00     0.044 A 
HETATM   35  C   UNL     1      29.776  45.699  56.330  1.00  0.00     0.116 A 
HETATM   36  F   UNL     1      30.394  46.250  57.383  1.00  0.00    -0.206 F 
HETATM   37  C   UNL     1      28.639  46.301  55.813  1.00  0.00     0.044 A 
HETATM   38  C   UNL     1      27.998  45.725  54.714  1.00  0.00     0.032 A 
ENDBRANCH   3  32
TORSDOF 10
ENDMDL
MODEL 6
REMARK VINA RESULT:      -8.3      3.281      6.641
REMARK  10 active torsions:
REMARK  status: ('A' for Active; 'I' for Inactive)
REMARK    1  A    between atoms: C_2  and  N_3 
REMARK    2  A    between atoms: N_3  and  C_5 
REMARK    3  A    between atoms: N_3  and  C_35 
REMARK    4  A    between atoms: C_5  and  C_6 
REMARK    5  A    between atoms: C_6  and  C_7 
REMARK    6  A    between atoms: C_7  and  N_8 
REMARK       I    between atoms: N_8  and  C_9 
REMARK    7  A    between atoms: N_8  and  C_19 
REMARK       I    between atoms: C_9  and  N_10 
REMARK    8  A    between atoms: N_10  and  C_11 
REMARK    9  A    between atoms: C_19  and  C_20 
REMARK   10  A    between atoms: C_21  and  O_22 
ROOT
HETATM    1  N   UNL     1      25.988  42.686  50.433  1.00  0.00    -0.330 N 
HETATM    2  C   UNL     1      25.946  41.709  49.413  1.00  0.00     0.323 C 
HETATM    3  N   UNL     1      27.188  41.220  49.067  1.00  0.00    -0.309 N 
HETATM    4  O   UNL     1      24.886  41.261  48.978  1.00  0.00    -0.247 OA
HETATM    5  H   UNL     1      27.910  41.279  49.774  1.00  0.00     0.170 HD
ENDROOT
BRANCH   1   6
HETATM    6  C   UNL     1      24.765  43.299  50.996  1.00  0.00     0.129 C 
BRANCH   6   7
HETATM    7  C   UNL     1      23.866  44.163  50.109  1.00  0.00     0.048 C 
BRANCH   7   8
HETATM    8  C   UNL     1      24.583  45.355  49.478  1.00  0.00     0.236 C 
BRANCH   8   9
HETATM    9  N   UNL     1      24.485  46.579  50.372  1.00  0.00    -0.072 N 
HETATM   10  H   UNL     1      23.781  46.303  51.083  1.00  0.00     0.279 HD
BRANCH   9  11
HETATM   11  C   UNL     1      23.932  47.826  49.710  1.00  0.00     0.230 C 
HETATM   12  C   UNL     1      25.026  48.721  49.151  1.00  0.00     0.034 C 
ENDBRANCH   9  11
BRANCH   9  13
HETATM   13  C   UNL     1      25.764  46.856  51.140  1.00  0.00     0.230 C 
HETATM   14  C   UNL     1      25.507  46.895  52.635  1.00  0.00     0.034 C 
ENDBRANCH   9  13
ENDBRANCH   8   9
ENDBRANCH   7   8
ENDBRANCH   6   7
ENDBRANCH   1   6
BRANCH   1  15
HETATM   15  C   UNL     1      27.209  43.503  50.639  1.00  0.00     0.170 C 
BRANCH  15  16
HETATM   16  C   UNL     1      27.956  43.276  51.930  1.00  0.00     0.013 A 
HETATM   17  C   UNL     1      28.801  42.209  52.199  1.00  0.00     0.170 A 
HETATM   18  N   UNL     1      29.595  42.104  53.277  1.00  0.00    -0.224 NA
HETATM   19  C   UNL     1      29.575  43.090  54.184  1.00  0.00     0.072 A 
HETATM   20  C   UNL     1      28.731  44.210  54.047  1.00  0.00    -0.004 A 
HETATM   21  C   UNL     1      30.418  43.025  55.285  1.00  0.00     0.072 A 
HETATM   22  C   UNL     1      27.926  44.288  52.901  1.00  0.00     0.027 A 
HETATM   23  C   UNL     1      28.723  45.217  55.027  1.00  0.00     0.053 A 
HETATM   24  C   UNL     1      29.565  45.121  56.131  1.00  0.00     0.103 A 
HETATM   25  C   UNL     1      30.435  44.038  56.243  1.00  0.00     0.104 A 
HETATM   26  O   UNL     1      29.495  46.132  57.051  1.00  0.00    -0.346 OA
HETATM   27  O   UNL     1      31.332  43.902  57.271  1.00  0.00    -0.346 OA
HETATM   28  C   UNL     1      31.514  45.139  57.972  1.00  0.00     0.202 C 
HETATM   29  C   UNL     1      30.168  45.781  58.269  1.00  0.00     0.202 C 
BRANCH  17  30
HETATM   30  O   UNL     1      28.907  41.146  51.354  1.00  0.00    -0.344 OA
HETATM   31  H   UNL     1      29.608  41.382  50.732  1.00  0.00     0.219 HD
ENDBRANCH  17  30
ENDBRANCH  15  16
ENDBRANCH   1  15
BRANCH   3  32
HETATM   32  C   UNL     1      27.515  40.382  47.982  1.00  0.00     0.036 A 
HETATM   33  C   UNL     1      27.516  40.805  46.649  1.00  0.00     0.032 A 
HETATM   34  C   UNL     1      27.888  39.918  45.634  1.00  0.00     0.044 A 
HETATM   35  C   UNL     1      28.262  38.618  45.953  1.00  0.00     0.116 A 
HETATM   36  F   UNL     1      28.619  37.774  44.977  1.00  0.00    -0.206 F 
HETATM   37  C   UNL     1      28.275  38.185  47.271  1.00  0.00     0.044 A 
HETATM   38  C   UNL     1      27.905  39.069  48.287  1.00  0.00     0.032 A 
ENDBRANCH   3  32
TORSDOF 10
ENDMDL
MODEL 7
REMARK VINA RESULT:      -8.2      3.631      8.750
REMARK  10 active torsions:
REMARK  status: ('A' for Active; 'I' for Inactive)
REMARK    1  A    between atoms: C_2  and  N_3 
REMARK    2  A    between atoms: N_3  and  C_5 
REMARK    3  A    between atoms: N_3  and  C_35 
REMARK    4  A    between atoms: C_5  and  C_6 
REMARK    5  A    between atoms: C_6  and  C_7 
REMARK    6  A    between atoms: C_7  and  N_8 
REMARK       I    between atoms: N_8  and  C_9 
REMARK    7  A    between atoms: N_8  and  C_19 
REMARK       I    between atoms: C_9  and  N_10 
REMARK    8  A    between atoms: N_10  and  C_11 
REMARK    9  A    between atoms: C_19  and  C_20 
REMARK   10  A    between atoms: C_21  and  O_22 
ROOT
HETATM    1  N   UNL     1      23.947  44.985  50.298  1.00  0.00    -0.330 N 
HETATM    2  C   UNL     1      24.585  44.835  51.550  1.00  0.00     0.323 C 
HETATM    3  N   UNL     1      25.222  45.978  51.983  1.00  0.00    -0.309 N 
HETATM    4  O   UNL     1      24.467  43.816  52.228  1.00  0.00    -0.247 OA
HETATM    5  H   UNL     1      24.872  46.856  51.620  1.00  0.00     0.170 HD
ENDROOT
BRANCH   1   6
HETATM    6  C   UNL     1      23.155  43.900  49.676  1.00  0.00     0.129 C 
BRANCH   6   7
HETATM    7  C   UNL     1      23.731  43.115  48.495  1.00  0.00     0.048 C 
BRANCH   7   8
HETATM    8  C   UNL     1      24.649  41.966  48.907  1.00  0.00     0.236 C 
BRANCH   8   9
HETATM    9  N   UNL     1      26.083  42.247  48.492  1.00  0.00    -0.072 N 
HETATM   10  H   UNL     1      25.985  42.978  47.762  1.00  0.00     0.279 HD
BRANCH   9  11
HETATM   11  C   UNL     1      26.805  41.093  47.823  1.00  0.00     0.230 C 
HETATM   12  C   UNL     1      25.995  39.808  47.845  1.00  0.00     0.034 C 
ENDBRANCH   9  11
BRANCH   9  13
HETATM   13  C   UNL     1      26.908  42.875  49.600  1.00  0.00     0.230 C 
HETATM   14  C   UNL     1      27.050  41.928  50.778  1.00  0.00     0.034 C 
ENDBRANCH   9  13
ENDBRANCH   8   9
ENDBRANCH   7   8
ENDBRANCH   6   7
ENDBRANCH   1   6
BRANCH   1  15
HETATM   15  C   UNL     1      24.425  46.000  49.329  1.00  0.00     0.170 C 
BRANCH  15  16
HETATM   16  C   UNL     1      23.733  47.340  49.366  1.00  0.00     0.013 A 
HETATM   17  C   UNL     1      24.363  48.574  49.437  1.00  0.00     0.170 A 
HETATM   18  N   UNL     1      23.754  49.762  49.295  1.00  0.00    -0.224 NA
HETATM   19  C   UNL     1      22.431  49.781  49.081  1.00  0.00     0.072 A 
HETATM   20  C   UNL     1      21.669  48.597  49.029  1.00  0.00    -0.004 A 
HETATM   21  C   UNL     1      21.786  50.995  48.889  1.00  0.00     0.072 A 
HETATM   22  C   UNL     1      22.345  47.376  49.169  1.00  0.00     0.027 A 
HETATM   23  C   UNL     1      20.280  48.655  48.821  1.00  0.00     0.053 A 
HETATM   24  C   UNL     1      19.653  49.885  48.647  1.00  0.00     0.103 A 
HETATM   25  C   UNL     1      20.413  51.054  48.651  1.00  0.00     0.104 A 
HETATM   26  O   UNL     1      18.297  49.867  48.463  1.00  0.00    -0.346 OA
HETATM   27  O   UNL     1      19.876  52.296  48.431  1.00  0.00    -0.346 OA
HETATM   28  C   UNL     1      18.567  52.204  47.853  1.00  0.00     0.202 C 
HETATM   29  C   UNL     1      17.730  51.178  48.599  1.00  0.00     0.202 C 
BRANCH  17  30
HETATM   30  O   UNL     1      25.703  48.685  49.651  1.00  0.00    -0.344 OA
HETATM   31  H   UNL     1      25.980  47.825  49.998  1.00  0.00     0.219 HD
ENDBRANCH  17  30
ENDBRANCH  15  16
ENDBRANCH   1  15
BRANCH   3  32
HETATM   32  C   UNL     1      26.091  46.118  53.084  1.00  0.00     0.036 A 
HETATM   33  C   UNL     1      27.070  45.180  53.423  1.00  0.00     0.032 A 
HETATM   34  C   UNL     1      27.916  45.413  54.512  1.00  0.00     0.044 A 
HETATM   35  C   UNL     1      27.785  46.582  55.252  1.00  0.00     0.116 A 
HETATM   36  F   UNL     1      28.600  46.800  56.292  1.00  0.00    -0.206 F 
HETATM   37  C   UNL     1      26.825  47.528  54.924  1.00  0.00     0.044 A 
HETATM   38  C   UNL     1      25.980  47.298  53.837  1.00  0.00     0.032 A 
ENDBRANCH   3  32
TORSDOF 10
ENDMDL
MODEL 8
REMARK VINA RESULT:      -7.9      3.253      8.320
REMARK  10 active torsions:
REMARK  status: ('A' for Active; 'I' for Inactive)
REMARK    1  A    between atoms: C_2  and  N_3 
REMARK    2  A    between atoms: N_3  and  C_5 
REMARK    3  A    between atoms: N_3  and  C_35 
REMARK    4  A    between atoms: C_5  and  C_6 
REMARK    5  A    between atoms: C_6  and  C_7 
REMARK    6  A    between atoms: C_7  and  N_8 
REMARK       I    between atoms: N_8  and  C_9 
REMARK    7  A    between atoms: N_8  and  C_19 
REMARK       I    between atoms: C_9  and  N_10 
REMARK    8  A    between atoms: N_10  and  C_11 
REMARK    9  A    between atoms: C_19  and  C_20 
REMARK   10  A    between atoms: C_21  and  O_22 
ROOT
HETATM    1  N   UNL     1      24.991  45.678  50.611  1.00  0.00    -0.330 N 
HETATM    2  C   UNL     1      25.891  46.275  51.522  1.00  0.00     0.323 C 
HETATM    3  N   UNL     1      26.332  45.414  52.505  1.00  0.00    -0.309 N 
HETATM    4  O   UNL     1      26.324  47.415  51.364  1.00  0.00    -0.247 OA
HETATM    5  H   UNL     1      26.312  44.427  52.283  1.00  0.00     0.170 HD
ENDROOT
BRANCH   1   6
HETATM    6  C   UNL     1      24.443  46.405  49.445  1.00  0.00     0.129 C 
BRANCH   6   7
HETATM    7  C   UNL     1      23.727  47.742  49.647  1.00  0.00     0.048 C 
BRANCH   7   8
HETATM    8  C   UNL     1      22.445  47.886  48.829  1.00  0.00     0.236 C 
BRANCH   8   9
HETATM    9  N   UNL     1      21.419  48.721  49.575  1.00  0.00    -0.072 N 
HETATM   10  H   UNL     1      21.499  48.386  50.554  1.00  0.00     0.279 HD
BRANCH   9  11
HETATM   11  C   UNL     1      19.974  48.487  49.179  1.00  0.00     0.230 C 
HETATM   12  C   UNL     1      19.004  48.789  50.308  1.00  0.00     0.034 C 
ENDBRANCH   9  11
BRANCH   9  13
HETATM   13  C   UNL     1      21.771  50.197  49.611  1.00  0.00     0.230 C 
HETATM   14  C   UNL     1      21.546  50.845  48.257  1.00  0.00     0.034 C 
ENDBRANCH   9  13
ENDBRANCH   8   9
ENDBRANCH   7   8
ENDBRANCH   6   7
ENDBRANCH   1   6
BRANCH   1  15
HETATM   15  C   UNL     1      24.171  44.513  51.022  1.00  0.00     0.170 C 
BRANCH  15  16
HETATM   16  C   UNL     1      24.586  43.172  50.468  1.00  0.00     0.013 A 
HETATM   17  C   UNL     1      23.983  42.512  49.408  1.00  0.00     0.170 A 
HETATM   18  N   UNL     1      24.462  41.409  48.810  1.00  0.00    -0.224 NA
HETATM   19  C   UNL     1      25.605  40.879  49.268  1.00  0.00     0.072 A 
HETATM   20  C   UNL     1      26.295  41.432  50.364  1.00  0.00    -0.004 A 
HETATM   21  C   UNL     1      26.142  39.764  48.639  1.00  0.00     0.072 A 
HETATM   22  C   UNL     1      25.768  42.592  50.953  1.00  0.00     0.027 A 
HETATM   23  C   UNL     1      27.482  40.840  50.829  1.00  0.00     0.053 A 
HETATM   24  C   UNL     1      27.992  39.713  50.193  1.00  0.00     0.103 A 
HETATM   25  C   UNL     1      27.336  39.193  49.077  1.00  0.00     0.104 A 
HETATM   26  O   UNL     1      29.144  39.181  50.706  1.00  0.00    -0.346 OA
HETATM   27  O   UNL     1      27.807  38.120  48.365  1.00  0.00    -0.346 OA
HETATM   28  C   UNL     1      29.182  37.854  48.671  1.00  0.00     0.202 C 
HETATM   29  C   UNL     1      29.403  37.874  50.175  1.00  0.00     0.202 C 
BRANCH  17  30
HETATM   30  O   UNL     1      22.818  42.952  48.858  1.00  0.00    -0.344 OA
HETATM   31  H   UNL     1      22.155  42.290  49.096  1.00  0.00     0.219 HD
ENDBRANCH  17  30
ENDBRANCH  15  16
ENDBRANCH   1  15
BRANCH   3  32
HETATM   32  C   UNL     1      27.082  45.729  53.656  1.00  0.00     0.036 A 
HETATM   33  C   UNL     1      26.877  46.878  54.425  1.00  0.00     0.032 A 
HETATM   34  C   UNL     1      27.642  47.098  55.574  1.00  0.00     0.044 A 
HETATM   35  C   UNL     1      28.602  46.168  55.954  1.00  0.00     0.116 A 
HETATM   36  F   UNL     1      29.330  46.383  57.057  1.00  0.00    -0.206 F 
HETATM   37  C   UNL     1      28.812  45.017  55.209  1.00  0.00     0.044 A 
HETATM   38  C   UNL     1      28.049  44.796  54.061  1.00  0.00     0.032 A 
ENDBRANCH   3  32
TORSDOF 10
ENDMDL
MODEL 9
REMARK VINA RESULT:      -7.8      1.551      2.138
REMARK  10 active torsions:
REMARK  status: ('A' for Active; 'I' for Inactive)
REMARK    1  A    between atoms: C_2  and  N_3 
REMARK    2  A    between atoms: N_3  and  C_5 
REMARK    3  A    between atoms: N_3  and  C_35 
REMARK    4  A    between atoms: C_5  and  C_6 
REMARK    5  A    between atoms: C_6  and  C_7 
REMARK    6  A    between atoms: C_7  and  N_8 
REMARK       I    between atoms: N_8  and  C_9 
REMARK    7  A    between atoms: N_8  and  C_19 
REMARK       I    between atoms: C_9  and  N_10 
REMARK    8  A    between atoms: N_10  and  C_11 
REMARK    9  A    between atoms: C_19  and  C_20 
REMARK   10  A    between atoms: C_21  and  O_22 
ROOT
HETATM    1  N   UNL     1      25.216  44.388  50.968  1.00  0.00    -0.330 N 
HETATM    2  C   UNL     1      24.955  45.313  49.932  1.00  0.00     0.323 C 
HETATM    3  N   UNL     1      24.985  46.627  50.347  1.00  0.00    -0.309 N 
HETATM    4  O   UNL     1      24.839  44.966  48.757  1.00  0.00    -0.247 OA
HETATM    5  H   UNL     1      25.542  46.829  51.169  1.00  0.00     0.170 HD
ENDROOT
BRANCH   1   6
HETATM    6  C   UNL     1      25.291  42.929  50.729  1.00  0.00     0.129 C 
BRANCH   6   7
HETATM    7  C   UNL     1      26.013  42.395  49.489  1.00  0.00     0.048 C 
BRANCH   7   8
HETATM    8  C   UNL     1      25.491  41.042  49.007  1.00  0.00     0.236 C 
BRANCH   8   9
HETATM    9  N   UNL     1      25.901  40.789  47.567  1.00  0.00    -0.072 N 
HETATM   10  H   UNL     1      26.683  41.454  47.417  1.00  0.00     0.279 HD
BRANCH   9  11
HETATM   11  C   UNL     1      24.859  41.140  46.522  1.00  0.00     0.230 C 
HETATM   12  C   UNL     1      24.349  39.918  45.776  1.00  0.00     0.034 C 
ENDBRANCH   9  11
BRANCH   9  13
HETATM   13  C   UNL     1      26.485  39.404  47.352  1.00  0.00     0.230 C 
HETATM   14  C   UNL     1      27.981  39.475  47.106  1.00  0.00     0.034 C 
ENDBRANCH   9  13
ENDBRANCH   8   9
ENDBRANCH   7   8
ENDBRANCH   6   7
ENDBRANCH   1   6
BRANCH   1  15
HETATM   15  C   UNL     1      24.936  44.743  52.380  1.00  0.00     0.170 C 
BRANCH  15  16
HETATM   16  C   UNL     1      26.117  45.185  53.207  1.00  0.00     0.013 A 
HETATM   17  C   UNL     1      26.307  46.455  53.733  1.00  0.00     0.170 A 
HETATM   18  N   UNL     1      27.266  46.794  54.609  1.00  0.00    -0.224 NA
HETATM   19  C   UNL     1      28.130  45.849  55.009  1.00  0.00     0.072 A 
HETATM   20  C   UNL     1      28.069  44.530  54.517  1.00  0.00    -0.004 A 
HETATM   21  C   UNL     1      29.104  46.164  55.945  1.00  0.00     0.072 A 
HETATM   22  C   UNL     1      27.044  44.214  53.614  1.00  0.00     0.027 A 
HETATM   23  C   UNL     1      29.001  43.569  54.945  1.00  0.00     0.053 A 
HETATM   24  C   UNL     1      29.980  43.914  55.872  1.00  0.00     0.103 A 
HETATM   25  C   UNL     1      30.011  45.206  56.396  1.00  0.00     0.104 A 
HETATM   26  O   UNL     1      30.862  42.932  56.234  1.00  0.00    -0.346 OA
HETATM   27  O   UNL     1      30.908  45.604  57.353  1.00  0.00    -0.346 OA
HETATM   28  C   UNL     1      31.530  44.478  57.986  1.00  0.00     0.202 C 
HETATM   29  C   UNL     1      31.986  43.470  56.943  1.00  0.00     0.202 C 
BRANCH  17  30
HETATM   30  O   UNL     1      25.496  47.497  53.402  1.00  0.00    -0.344 OA
HETATM   31  H   UNL     1      25.043  47.741  54.221  1.00  0.00     0.219 HD
ENDBRANCH  17  30
ENDBRANCH  15  16
ENDBRANCH   1  15
BRANCH   3  32
HETATM   32  C   UNL     1      24.598  47.772  49.621  1.00  0.00     0.036 A 
HETATM   33  C   UNL     1      23.267  48.118  49.374  1.00  0.00     0.032 A 
HETATM   34  C   UNL     1      22.967  49.291  48.674  1.00  0.00     0.044 A 
HETATM   35  C   UNL     1      23.995  50.115  48.232  1.00  0.00     0.116 A 
HETATM   36  F   UNL     1      23.702  51.238  47.566  1.00  0.00    -0.206 F 
HETATM   37  C   UNL     1      25.322  49.791  48.478  1.00  0.00     0.044 A 
HETATM   38  C   UNL     1      25.623  48.620  49.176  1.00  0.00     0.032 A 
ENDBRANCH   3  32
TORSDOF 10
ENDMDL
MODEL 10
REMARK VINA RESULT:      -7.6      1.443      2.143
REMARK  10 active torsions:
REMARK  status: ('A' for Active; 'I' for Inactive)
REMARK    1  A    between atoms: C_2  and  N_3 
REMARK    2  A    between atoms: N_3  and  C_5 
REMARK    3  A    between atoms: N_3  and  C_35 
REMARK    4  A    between atoms: C_5  and  C_6 
REMARK    5  A    between atoms: C_6  and  C_7 
REMARK    6  A    between atoms: C_7  and  N_8 
REMARK       I    between atoms: N_8  and  C_9 
REMARK    7  A    between atoms: N_8  and  C_19 
REMARK       I    between atoms: C_9  and  N_10 
REMARK    8  A    between atoms: N_10  and  C_11 
REMARK    9  A    between atoms: C_19  and  C_20 
REMARK   10  A    between atoms: C_21  and  O_22 
ROOT
HETATM    1  N   UNL     1      25.446  44.334  50.210  1.00  0.00    -0.330 N 
HETATM    2  C   UNL     1      24.693  45.091  49.284  1.00  0.00     0.323 C 
HETATM    3  N   UNL     1      24.081  46.193  49.844  1.00  0.00    -0.309 N 
HETATM    4  O   UNL     1      24.698  44.847  48.079  1.00  0.00    -0.247 OA
HETATM    5  H   UNL     1      24.508  46.571  50.681  1.00  0.00     0.170 HD
ENDROOT
BRANCH   1   6
HETATM    6  C   UNL     1      26.231  43.145  49.810  1.00  0.00     0.129 C 
BRANCH   6   7
HETATM    7  C   UNL     1      25.578  41.761  49.816  1.00  0.00     0.048 C 
BRANCH   7   8
HETATM    8  C   UNL     1      26.475  40.658  50.375  1.00  0.00     0.236 C 
BRANCH   8   9
HETATM    9  N   UNL     1      27.030  39.794  49.255  1.00  0.00    -0.072 N 
HETATM   10  H   UNL     1      26.272  39.802  48.546  1.00  0.00     0.279 HD
BRANCH   9  11
HETATM   11  C   UNL     1      27.249  38.335  49.606  1.00  0.00     0.230 C 
HETATM   12  C   UNL     1      26.585  37.393  48.615  1.00  0.00     0.034 C 
ENDBRANCH   9  11
BRANCH   9  13
HETATM   13  C   UNL     1      28.240  40.409  48.577  1.00  0.00     0.230 C 
HETATM   14  C   UNL     1      27.912  40.837  47.158  1.00  0.00     0.034 C 
ENDBRANCH   9  13
ENDBRANCH   8   9
ENDBRANCH   7   8
ENDBRANCH   6   7
ENDBRANCH   1   6
BRANCH   1  15
HETATM   15  C   UNL     1      25.108  44.362  51.653  1.00  0.00     0.170 C 
BRANCH  15  16
HETATM   16  C   UNL     1      26.171  44.900  52.579  1.00  0.00     0.013 A 
HETATM   17  C   UNL     1      26.214  46.184  53.103  1.00  0.00     0.170 A 
HETATM   18  N   UNL     1      27.059  46.602  54.059  1.00  0.00    -0.224 NA
HETATM   19  C   UNL     1      27.952  45.729  54.549  1.00  0.00     0.072 A 
HETATM   20  C   UNL     1      28.037  44.407  54.072  1.00  0.00    -0.004 A 
HETATM   21  C   UNL     1      28.808  46.126  55.567  1.00  0.00     0.072 A 
HETATM   22  C   UNL     1      27.127  44.006  53.083  1.00  0.00     0.027 A 
HETATM   23  C   UNL     1      28.997  43.524  54.597  1.00  0.00     0.053 A 
HETATM   24  C   UNL     1      29.856  43.949  55.605  1.00  0.00     0.103 A 
HETATM   25  C   UNL     1      29.740  45.243  56.112  1.00  0.00     0.104 A 
HETATM   26  O   UNL     1      30.774  43.040  56.060  1.00  0.00    -0.346 OA
HETATM   27  O   UNL     1      30.512  45.715  57.141  1.00  0.00    -0.346 OA
HETATM   28  C   UNL     1      31.156  44.645  57.844  1.00  0.00     0.202 C 
HETATM   29  C   UNL     1      31.783  43.669  56.862  1.00  0.00     0.202 C 
BRANCH  17  30
HETATM   30  O   UNL     1      25.360  47.159  52.685  1.00  0.00    -0.344 OA
HETATM   31  H   UNL     1      25.706  47.455  51.832  1.00  0.00     0.219 HD
ENDBRANCH  17  30
ENDBRANCH  15  16
ENDBRANCH   1  15
BRANCH   3  32
HETATM   32  C   UNL     1      23.128  47.045  49.251  1.00  0.00     0.036 A 
HETATM   33  C   UNL     1      23.337  48.410  49.032  1.00  0.00     0.032 A 
HETATM   34  C   UNL     1      22.352  49.178  48.405  1.00  0.00     0.044 A 
HETATM   35  C   UNL     1      21.167  48.580  47.993  1.00  0.00     0.116 A 
HETATM   36  F   UNL     1      20.228  49.320  47.391  1.00  0.00    -0.206 F 
HETATM   37  C   UNL     1      20.946  47.226  48.194  1.00  0.00     0.044 A 
HETATM   38  C   UNL     1      21.929  46.457  48.820  1.00  0.00     0.032 A 
ENDBRANCH   3  32
TORSDOF 10
ENDMDL
