MODEL 1
REMARK VINA RESULT:      -8.7      0.000      0.000
REMARK  3 active torsions:
REMARK  status: ('A' for Active; 'I' for Inactive)
REMARK    1  A    between atoms: C_2  and  N_3 
REMARK       I    between atoms: N_3  and  C_4 
REMARK    2  A    between atoms: C_4  and  C_5 
REMARK    3  A    between atoms: C_5  and  C_6 
ROOT
HETATM    1  C   UNL     1      26.720  42.719  51.308  1.00  0.00     0.286 C 
HETATM    2  N   UNL     1      25.623  43.259  52.223  1.00  0.00    -0.056 N 
HETATM    3  H   UNL     1      24.826  42.615  52.140  1.00  0.00     0.278 HD
HETATM    4  H   UNL     1      25.937  43.131  53.208  1.00  0.00     0.278 HD
HETATM    5  C   UNL     1      25.126  44.653  51.980  1.00  0.00     0.209 C 
HETATM    6  C   UNL     1      24.819  44.832  50.475  1.00  0.00     0.115 C 
HETATM    7  N   UNL     1      25.909  44.370  49.621  1.00  0.00    -0.353 N 
HETATM    8  C   UNL     1      26.616  43.218  49.858  1.00  0.00     0.249 C 
HETATM    9  O   UNL     1      27.225  42.674  48.942  1.00  0.00    -0.271 OA
HETATM   10  C   UNL     1      26.105  45.686  52.535  1.00  0.00     0.035 C 
HETATM   11  C   UNL     1      25.646  47.106  52.215  1.00  0.00     0.002 C 
HETATM   12  C   UNL     1      25.444  47.293  50.715  1.00  0.00     0.002 C 
HETATM   13  C   UNL     1      24.444  46.283  50.153  1.00  0.00     0.027 C 
HETATM   14  H   UNL     1      25.864  44.596  48.628  1.00  0.00     0.163 HD
ENDROOT
BRANCH   1  15
HETATM   15  C   UNL     1      28.149  43.002  51.804  1.00  0.00     0.146 C 
BRANCH  15  16
HETATM   16  C   UNL     1      28.732  41.884  52.622  1.00  0.00     0.224 C 
HETATM   17  N   UNL     1      29.334  42.090  53.820  1.00  0.00    -0.327 N 
HETATM   18  H   UNL     1      29.688  41.217  54.204  1.00  0.00     0.169 HD
HETATM   19  O   UNL     1      28.619  40.721  52.208  1.00  0.00    -0.273 OA
BRANCH  17  20
HETATM   20  C   UNL     1      29.552  43.218  54.637  1.00  0.00     0.034 A 
HETATM   21  C   UNL     1      28.721  44.336  54.739  1.00  0.00     0.032 A 
HETATM   22  C   UNL     1      29.043  45.387  55.608  1.00  0.00     0.044 A 
HETATM   23  C   UNL     1      30.195  45.326  56.378  1.00  0.00     0.116 A 
HETATM   24  C   UNL     1      31.036  44.229  56.295  1.00  0.00     0.044 A 
HETATM   25  F   UNL     1      30.492  46.332  57.207  1.00  0.00    -0.206 F 
HETATM   26  C   UNL     1      30.715  43.180  55.430  1.00  0.00     0.032 A 
ENDBRANCH  17  20
ENDBRANCH  15  16
ENDBRANCH   1  15
TORSDOF 3
ENDMDL
MODEL 2
REMARK VINA RESULT:      -8.5      3.532      7.117
REMARK  3 active torsions:
REMARK  status: ('A' for Active; 'I' for Inactive)
REMARK    1  A    between atoms: C_2  and  N_3 
REMARK       I    between atoms: N_3  and  C_4 
REMARK    2  A    between atoms: C_4  and  C_5 
REMARK    3  A    between atoms: C_5  and  C_6 
ROOT
HETATM    1  C   UNL     1      26.131  45.244  53.585  1.00  0.00     0.286 C 
HETATM    2  N   UNL     1      26.070  43.735  53.809  1.00  0.00    -0.056 N 
HETATM    3  H   UNL     1      25.592  43.588  54.708  1.00  0.00     0.278 HD
HETATM    4  H   UNL     1      25.405  43.335  53.113  1.00  0.00     0.278 HD
HETATM    5  C   UNL     1      27.362  42.973  53.836  1.00  0.00     0.209 C 
HETATM    6  C   UNL     1      28.362  43.696  54.767  1.00  0.00     0.115 C 
HETATM    7  N   UNL     1      28.453  45.127  54.491  1.00  0.00    -0.353 N 
HETATM    8  C   UNL     1      27.362  45.913  54.216  1.00  0.00     0.249 C 
HETATM    9  O   UNL     1      27.425  47.127  54.381  1.00  0.00    -0.271 OA
HETATM   10  C   UNL     1      27.892  42.747  52.421  1.00  0.00     0.035 C 
HETATM   11  C   UNL     1      29.248  42.049  52.447  1.00  0.00     0.002 C 
HETATM   12  C   UNL     1      30.252  42.830  53.290  1.00  0.00     0.002 C 
HETATM   13  C   UNL     1      29.745  43.037  54.717  1.00  0.00     0.027 C 
HETATM   14  H   UNL     1      29.201  45.653  54.943  1.00  0.00     0.163 HD
ENDROOT
BRANCH   1  15
HETATM   15  C   UNL     1      26.070  45.663  52.105  1.00  0.00     0.146 C 
BRANCH  15  16
HETATM   16  C   UNL     1      24.721  45.455  51.478  1.00  0.00     0.224 C 
HETATM   17  N   UNL     1      24.223  46.281  50.523  1.00  0.00    -0.327 N 
HETATM   18  H   UNL     1      23.288  45.992  50.244  1.00  0.00     0.169 HD
HETATM   19  O   UNL     1      24.054  44.465  51.812  1.00  0.00    -0.273 OA
BRANCH  17  20
HETATM   20  C   UNL     1      24.714  47.409  49.835  1.00  0.00     0.034 A 
HETATM   21  C   UNL     1      26.055  47.783  49.715  1.00  0.00     0.032 A 
HETATM   22  C   UNL     1      26.414  48.923  48.984  1.00  0.00     0.044 A 
HETATM   23  C   UNL     1      25.437  49.693  48.370  1.00  0.00     0.116 A 
HETATM   24  C   UNL     1      24.101  49.344  48.474  1.00  0.00     0.044 A 
HETATM   25  F   UNL     1      25.790  50.777  47.671  1.00  0.00    -0.206 F 
HETATM   26  C   UNL     1      23.742  48.207  49.202  1.00  0.00     0.032 A 
ENDBRANCH  17  20
ENDBRANCH  15  16
ENDBRANCH   1  15
TORSDOF 3
ENDMDL
MODEL 3
REMARK VINA RESULT:      -8.3      2.641      4.003
REMARK  3 active torsions:
REMARK  status: ('A' for Active; 'I' for Inactive)
REMARK    1  A    between atoms: C_2  and  N_3 
REMARK       I    between atoms: N_3  and  C_4 
REMARK    2  A    between atoms: C_4  and  C_5 
REMARK    3  A    between atoms: C_5  and  C_6 
ROOT
HETATM    1  C   UNL     1      26.438  45.118  52.566  1.00  0.00     0.286 C 
HETATM    2  N   UNL     1      26.991  44.927  51.155  1.00  0.00    -0.056 N 
HETATM    3  H   UNL     1      26.481  45.581  50.547  1.00  0.00     0.278 HD
HETATM    4  H   UNL     1      27.966  45.294  51.141  1.00  0.00     0.278 HD
HETATM    5  C   UNL     1      26.908  43.559  50.545  1.00  0.00     0.209 C 
HETATM    6  C   UNL     1      25.477  43.003  50.729  1.00  0.00     0.115 C 
HETATM    7  N   UNL     1      24.995  43.136  52.100  1.00  0.00    -0.353 N 
HETATM    8  C   UNL     1      25.203  44.254  52.867  1.00  0.00     0.249 C 
HETATM    9  O   UNL     1      24.472  44.485  53.826  1.00  0.00    -0.271 OA
HETATM   10  C   UNL     1      27.999  42.647  51.102  1.00  0.00     0.035 C 
HETATM   11  C   UNL     1      27.867  41.231  50.549  1.00  0.00     0.002 C 
HETATM   12  C   UNL     1      26.479  40.660  50.827  1.00  0.00     0.002 C 
HETATM   13  C   UNL     1      25.379  41.550  50.249  1.00  0.00     0.027 C 
HETATM   14  H   UNL     1      24.132  42.654  52.351  1.00  0.00     0.163 HD
ENDROOT
BRANCH   1  15
HETATM   15  C   UNL     1      27.469  44.877  53.683  1.00  0.00     0.146 C 
BRANCH  15  16
HETATM   16  C   UNL     1      27.746  46.097  54.515  1.00  0.00     0.224 C 
HETATM   17  N   UNL     1      28.688  46.117  55.492  1.00  0.00    -0.327 N 
HETATM   18  H   UNL     1      28.707  47.020  55.961  1.00  0.00     0.169 HD
HETATM   19  O   UNL     1      27.123  47.140  54.272  1.00  0.00    -0.273 OA
BRANCH  17  20
HETATM   20  C   UNL     1      29.636  45.190  55.973  1.00  0.00     0.034 A 
HETATM   21  C   UNL     1      30.112  44.068  55.291  1.00  0.00     0.032 A 
HETATM   22  C   UNL     1      31.074  43.234  55.876  1.00  0.00     0.044 A 
HETATM   23  C   UNL     1      31.563  43.516  57.143  1.00  0.00     0.116 A 
HETATM   24  C   UNL     1      31.107  44.622  57.841  1.00  0.00     0.044 A 
HETATM   25  F   UNL     1      32.483  42.716  57.692  1.00  0.00    -0.206 F 
HETATM   26  C   UNL     1      30.148  45.455  57.257  1.00  0.00     0.032 A 
ENDBRANCH  17  20
ENDBRANCH  15  16
ENDBRANCH   1  15
TORSDOF 3
ENDMDL
MODEL 4
REMARK VINA RESULT:      -8.1      2.610      4.417
REMARK  3 active torsions:
REMARK  status: ('A' for Active; 'I' for Inactive)
REMARK    1  A    between atoms: C_2  and  N_3 
REMARK       I    between atoms: N_3  and  C_4 
REMARK    2  A    between atoms: C_4  and  C_5 
REMARK    3  A    between atoms: C_5  and  C_6 
ROOT
HETATM    1  C   UNL     1      26.365  45.099  52.691  1.00  0.00     0.286 C 
HETATM    2  N   UNL     1      27.783  44.987  52.134  1.00  0.00    -0.056 N 
HETATM    3  H   UNL     1      27.750  45.339  51.168  1.00  0.00     0.278 HD
HETATM    4  H   UNL     1      28.377  45.688  52.627  1.00  0.00     0.278 HD
HETATM    5  C   UNL     1      28.428  43.633  52.116  1.00  0.00     0.209 C 
HETATM    6  C   UNL     1      27.444  42.605  51.513  1.00  0.00     0.115 C 
HETATM    7  N   UNL     1      26.113  42.686  52.107  1.00  0.00    -0.353 N 
HETATM    8  C   UNL     1      25.487  43.873  52.396  1.00  0.00     0.249 C 
HETATM    9  O   UNL     1      24.266  43.909  52.513  1.00  0.00    -0.271 OA
HETATM   10  C   UNL     1      28.938  43.254  53.506  1.00  0.00     0.035 C 
HETATM   11  C   UNL     1      29.518  41.843  53.512  1.00  0.00     0.002 C 
HETATM   12  C   UNL     1      28.498  40.827  53.006  1.00  0.00     0.002 C 
HETATM   13  C   UNL     1      28.001  41.180  51.604  1.00  0.00     0.027 C 
HETATM   14  H   UNL     1      25.447  41.945  51.888  1.00  0.00     0.163 HD
ENDROOT
BRANCH   1  15
HETATM   15  C   UNL     1      26.304  45.374  54.204  1.00  0.00     0.146 C 
BRANCH  15  16
HETATM   16  C   UNL     1      26.518  46.817  54.560  1.00  0.00     0.224 C 
HETATM   17  N   UNL     1      27.442  47.217  55.470  1.00  0.00    -0.327 N 
HETATM   18  H   UNL     1      27.417  48.227  55.595  1.00  0.00     0.169 HD
HETATM   19  O   UNL     1      25.856  47.682  53.969  1.00  0.00    -0.273 OA
BRANCH  17  20
HETATM   20  C   UNL     1      28.420  46.559  56.243  1.00  0.00     0.034 A 
HETATM   21  C   UNL     1      28.396  46.385  57.629  1.00  0.00     0.032 A 
HETATM   22  C   UNL     1      29.426  45.690  58.278  1.00  0.00     0.044 A 
HETATM   23  C   UNL     1      30.482  45.168  57.546  1.00  0.00     0.116 A 
HETATM   24  C   UNL     1      30.530  45.327  56.172  1.00  0.00     0.044 A 
HETATM   25  F   UNL     1      31.458  44.504  58.174  1.00  0.00    -0.206 F 
HETATM   26  C   UNL     1      29.503  46.019  55.524  1.00  0.00     0.032 A 
ENDBRANCH  17  20
ENDBRANCH  15  16
ENDBRANCH   1  15
TORSDOF 3
ENDMDL
MODEL 5
REMARK VINA RESULT:      -8.1      1.878      2.768
REMARK  3 active torsions:
REMARK  status: ('A' for Active; 'I' for Inactive)
REMARK    1  A    between atoms: C_2  and  N_3 
REMARK       I    between atoms: N_3  and  C_4 
REMARK    2  A    between atoms: C_4  and  C_5 
REMARK    3  A    between atoms: C_5  and  C_6 
ROOT
HETATM    1  C   UNL     1      27.142  44.602  52.574  1.00  0.00     0.286 C 
HETATM    2  N   UNL     1      27.282  44.436  51.062  1.00  0.00    -0.056 N 
HETATM    3  H   UNL     1      27.587  45.346  50.692  1.00  0.00     0.278 HD
HETATM    4  H   UNL     1      28.099  43.815  50.882  1.00  0.00     0.278 HD
HETATM    5  C   UNL     1      26.076  43.997  50.287  1.00  0.00     0.209 C 
HETATM    6  C   UNL     1      24.859  44.853  50.705  1.00  0.00     0.115 C 
HETATM    7  N   UNL     1      24.706  44.942  52.154  1.00  0.00    -0.353 N 
HETATM    8  C   UNL     1      25.762  45.113  53.014  1.00  0.00     0.249 C 
HETATM    9  O   UNL     1      25.569  45.569  54.137  1.00  0.00    -0.271 OA
HETATM   10  C   UNL     1      25.850  42.493  50.436  1.00  0.00     0.035 C 
HETATM   11  C   UNL     1      24.575  42.055  49.720  1.00  0.00     0.002 C 
HETATM   12  C   UNL     1      23.367  42.843  50.217  1.00  0.00     0.002 C 
HETATM   13  C   UNL     1      23.569  44.348  50.046  1.00  0.00     0.027 C 
HETATM   14  H   UNL     1      23.845  45.349  52.518  1.00  0.00     0.163 HD
ENDROOT
BRANCH   1  15
HETATM   15  C   UNL     1      27.454  43.327  53.377  1.00  0.00     0.146 C 
BRANCH  15  16
HETATM   16  C   UNL     1      28.824  42.771  53.113  1.00  0.00     0.224 C 
HETATM   17  N   UNL     1      29.895  43.064  53.894  1.00  0.00    -0.327 N 
HETATM   18  H   UNL     1      30.738  42.617  53.539  1.00  0.00     0.169 HD
HETATM   19  O   UNL     1      28.976  41.979  52.173  1.00  0.00    -0.273 OA
BRANCH  17  20
HETATM   20  C   UNL     1      30.086  43.815  55.072  1.00  0.00     0.034 A 
HETATM   21  C   UNL     1      29.444  45.011  55.401  1.00  0.00     0.032 A 
HETATM   22  C   UNL     1      29.710  45.651  56.618  1.00  0.00     0.044 A 
HETATM   23  C   UNL     1      30.617  45.100  57.511  1.00  0.00     0.116 A 
HETATM   24  C   UNL     1      31.267  43.915  57.210  1.00  0.00     0.044 A 
HETATM   25  F   UNL     1      30.861  45.716  58.673  1.00  0.00    -0.206 F 
HETATM   26  C   UNL     1      31.002  43.276  55.996  1.00  0.00     0.032 A 
ENDBRANCH  17  20
ENDBRANCH  15  16
ENDBRANCH   1  15
TORSDOF 3
ENDMDL
MODEL 6
REMARK VINA RESULT:      -8.0     13.164     14.946
REMARK  3 active torsions:
REMARK  status: ('A' for Active; 'I' for Inactive)
REMARK    1  A    between atoms: C_2  and  N_3 
REMARK       I    between atoms: N_3  and  C_4 
REMARK    2  A    between atoms: C_4  and  C_5 
REMARK    3  A    between atoms: C_5  and  C_6 
ROOT
HETATM    1  C   UNL     1      31.760  48.816  40.486  1.00  0.00     0.286 C 
HETATM    2  N   UNL     1      31.794  50.322  40.236  1.00  0.00    -0.056 N 
HETATM    3  H   UNL     1      32.355  50.468  39.387  1.00  0.00     0.278 HD
HETATM    4  H   UNL     1      30.838  50.620  39.949  1.00  0.00     0.278 HD
HETATM    5  C   UNL     1      32.344  51.203  41.318  1.00  0.00     0.209 C 
HETATM    6  C   UNL     1      33.692  50.628  41.810  1.00  0.00     0.115 C 
HETATM    7  N   UNL     1      33.618  49.200  42.106  1.00  0.00    -0.353 N 
HETATM    8  C   UNL     1      32.944  48.301  41.319  1.00  0.00     0.249 C 
HETATM    9  O   UNL     1      33.228  47.108  41.371  1.00  0.00    -0.271 OA
HETATM   10  C   UNL     1      31.318  51.406  42.431  1.00  0.00     0.035 C 
HETATM   11  C   UNL     1      31.902  52.231  43.574  1.00  0.00     0.002 C 
HETATM   12  C   UNL     1      33.179  51.594  44.114  1.00  0.00     0.002 C 
HETATM   13  C   UNL     1      34.225  51.413  43.015  1.00  0.00     0.027 C 
HETATM   14  H   UNL     1      34.409  48.772  42.587  1.00  0.00     0.163 HD
ENDROOT
BRANCH   1  15
HETATM   15  C   UNL     1      30.463  48.317  41.147  1.00  0.00     0.146 C 
BRANCH  15  16
HETATM   16  C   UNL     1      29.388  47.955  40.162  1.00  0.00     0.224 C 
HETATM   17  N   UNL     1      28.661  48.889  39.497  1.00  0.00    -0.327 N 
HETATM   18  H   UNL     1      27.966  48.449  38.898  1.00  0.00     0.169 HD
HETATM   19  O   UNL     1      29.187  46.759  39.911  1.00  0.00    -0.273 OA
BRANCH  17  20
HETATM   20  C   UNL     1      28.673  50.298  39.440  1.00  0.00     0.034 A 
HETATM   21  C   UNL     1      28.293  51.168  40.464  1.00  0.00     0.032 A 
HETATM   22  C   UNL     1      28.371  52.555  40.285  1.00  0.00     0.044 A 
HETATM   23  C   UNL     1      28.828  53.078  39.085  1.00  0.00     0.116 A 
HETATM   24  C   UNL     1      29.211  52.238  38.054  1.00  0.00     0.044 A 
HETATM   25  F   UNL     1      28.902  54.404  38.925  1.00  0.00    -0.206 F 
HETATM   26  C   UNL     1      29.134  50.853  38.231  1.00  0.00     0.032 A 
ENDBRANCH  17  20
ENDBRANCH  15  16
ENDBRANCH   1  15
TORSDOF 3
ENDMDL
MODEL 7
REMARK VINA RESULT:      -7.9      1.638      2.034
REMARK  3 active torsions:
REMARK  status: ('A' for Active; 'I' for Inactive)
REMARK    1  A    between atoms: C_2  and  N_3 
REMARK       I    between atoms: N_3  and  C_4 
REMARK    2  A    between atoms: C_4  and  C_5 
REMARK    3  A    between atoms: C_5  and  C_6 
ROOT
HETATM    1  C   UNL     1      24.988  42.723  50.431  1.00  0.00     0.286 C 
HETATM    2  N   UNL     1      24.568  43.608  51.602  1.00  0.00    -0.056 N 
HETATM    3  H   UNL     1      23.591  43.369  51.818  1.00  0.00     0.278 HD
HETATM    4  H   UNL     1      25.087  43.288  52.448  1.00  0.00     0.278 HD
HETATM    5  C   UNL     1      24.658  45.095  51.430  1.00  0.00     0.209 C 
HETATM    6  C   UNL     1      24.004  45.495  50.087  1.00  0.00     0.115 C 
HETATM    7  N   UNL     1      24.471  44.679  48.970  1.00  0.00    -0.353 N 
HETATM    8  C   UNL     1      24.659  43.322  49.055  1.00  0.00     0.249 C 
HETATM    9  O   UNL     1      24.662  42.639  48.035  1.00  0.00    -0.271 OA
HETATM   10  C   UNL     1      26.101  45.574  51.579  1.00  0.00     0.035 C 
HETATM   11  C   UNL     1      26.211  47.074  51.319  1.00  0.00     0.002 C 
HETATM   12  C   UNL     1      25.651  47.437  49.947  1.00  0.00     0.002 C 
HETATM   13  C   UNL     1      24.198  46.988  49.797  1.00  0.00     0.027 C 
HETATM   14  H   UNL     1      24.219  44.973  48.027  1.00  0.00     0.163 HD
ENDROOT
BRANCH   1  15
HETATM   15  C   UNL     1      26.478  42.338  50.437  1.00  0.00     0.146 C 
BRANCH  15  16
HETATM   16  C   UNL     1      26.770  41.081  51.205  1.00  0.00     0.224 C 
HETATM   17  N   UNL     1      27.492  41.076  52.354  1.00  0.00    -0.327 N 
HETATM   18  H   UNL     1      27.605  40.128  52.708  1.00  0.00     0.169 HD
HETATM   19  O   UNL     1      26.296  40.010  50.799  1.00  0.00    -0.273 OA
BRANCH  17  20
HETATM   20  C   UNL     1      28.086  42.073  53.154  1.00  0.00     0.034 A 
HETATM   21  C   UNL     1      27.411  43.020  53.929  1.00  0.00     0.032 A 
HETATM   22  C   UNL     1      28.123  43.949  54.698  1.00  0.00     0.044 A 
HETATM   23  C   UNL     1      29.510  43.937  54.698  1.00  0.00     0.116 A 
HETATM   24  C   UNL     1      30.203  43.010  53.938  1.00  0.00     0.044 A 
HETATM   25  F   UNL     1      30.180  44.826  55.438  1.00  0.00    -0.206 F 
HETATM   26  C   UNL     1      29.494  42.081  53.171  1.00  0.00     0.032 A 
ENDBRANCH  17  20
ENDBRANCH  15  16
ENDBRANCH   1  15
TORSDOF 3
ENDMDL
MODEL 8
REMARK VINA RESULT:      -7.9      2.389      4.365
REMARK  3 active torsions:
REMARK  status: ('A' for Active; 'I' for Inactive)
REMARK    1  A    between atoms: C_2  and  N_3 
REMARK       I    between atoms: N_3  and  C_4 
REMARK    2  A    between atoms: C_4  and  C_5 
REMARK    3  A    between atoms: C_5  and  C_6 
ROOT
HETATM    1  C   UNL     1      27.244  41.763  51.991  1.00  0.00     0.286 C 
HETATM    2  N   UNL     1      26.035  41.569  51.078  1.00  0.00    -0.056 N 
HETATM    3  H   UNL     1      25.347  41.021  51.611  1.00  0.00     0.278 HD
HETATM    4  H   UNL     1      25.570  42.495  50.963  1.00  0.00     0.278 HD
HETATM    5  C   UNL     1      26.251  40.893  49.757  1.00  0.00     0.209 C 
HETATM    6  C   UNL     1      27.076  39.603  49.971  1.00  0.00     0.115 C 
HETATM    7  N   UNL     1      28.263  39.826  50.792  1.00  0.00    -0.353 N 
HETATM    8  C   UNL     1      28.267  40.619  51.912  1.00  0.00     0.249 C 
HETATM    9  O   UNL     1      29.135  40.468  52.766  1.00  0.00    -0.271 OA
HETATM   10  C   UNL     1      26.867  41.857  48.745  1.00  0.00     0.035 C 
HETATM   11  C   UNL     1      27.168  41.151  47.426  1.00  0.00     0.002 C 
HETATM   12  C   UNL     1      28.066  39.937  47.645  1.00  0.00     0.002 C 
HETATM   13  C   UNL     1      27.446  38.950  48.634  1.00  0.00     0.027 C 
HETATM   14  H   UNL     1      28.948  39.074  50.852  1.00  0.00     0.163 HD
ENDROOT
BRANCH   1  15
HETATM   15  C   UNL     1      27.995  43.087  51.767  1.00  0.00     0.146 C 
BRANCH  15  16
HETATM   16  C   UNL     1      27.327  44.271  52.406  1.00  0.00     0.224 C 
HETATM   17  N   UNL     1      27.745  44.799  53.585  1.00  0.00    -0.327 N 
HETATM   18  H   UNL     1      27.150  45.575  53.866  1.00  0.00     0.169 HD
HETATM   19  O   UNL     1      26.385  44.816  51.814  1.00  0.00    -0.273 OA
BRANCH  17  20
HETATM   20  C   UNL     1      28.808  44.528  54.470  1.00  0.00     0.034 A 
HETATM   21  C   UNL     1      29.606  43.381  54.473  1.00  0.00     0.032 A 
HETATM   22  C   UNL     1      30.649  43.242  55.399  1.00  0.00     0.044 A 
HETATM   23  C   UNL     1      30.899  44.246  56.322  1.00  0.00     0.116 A 
HETATM   24  C   UNL     1      30.123  45.392  56.340  1.00  0.00     0.044 A 
HETATM   25  F   UNL     1      31.899  44.106  57.199  1.00  0.00    -0.206 F 
HETATM   26  C   UNL     1      29.083  45.532  55.417  1.00  0.00     0.032 A 
ENDBRANCH  17  20
ENDBRANCH  15  16
ENDBRANCH   1  15
TORSDOF 3
ENDMDL
MODEL 9
REMARK VINA RESULT:      -7.9     13.087     14.077
REMARK  3 active torsions:
REMARK  status: ('A' for Active; 'I' for Inactive)
REMARK    1  A    between atoms: C_2  and  N_3 
REMARK       I    between atoms: N_3  and  C_4 
REMARK    2  A    between atoms: C_4  and  C_5 
REMARK    3  A    between atoms: C_5  and  C_6 
ROOT
HETATM    1  C   UNL     1      29.917  47.686  40.985  1.00  0.00     0.286 C 
HETATM    2  N   UNL     1      29.328  48.963  41.580  1.00  0.00    -0.056 N 
HETATM    3  H   UNL     1      28.909  48.702  42.482  1.00  0.00     0.278 HD
HETATM    4  H   UNL     1      30.119  49.584  41.851  1.00  0.00     0.278 HD
HETATM    5  C   UNL     1      28.296  49.701  40.781  1.00  0.00     0.209 C 
HETATM    6  C   UNL     1      27.228  48.703  40.277  1.00  0.00     0.115 C 
HETATM    7  N   UNL     1      27.814  47.521  39.653  1.00  0.00    -0.353 N 
HETATM    8  C   UNL     1      28.914  46.872  40.153  1.00  0.00     0.249 C 
HETATM    9  O   UNL     1      29.126  45.702  39.848  1.00  0.00    -0.271 OA
HETATM   10  C   UNL     1      28.950  50.516  39.666  1.00  0.00     0.035 C 
HETATM   11  C   UNL     1      27.899  51.201  38.797  1.00  0.00     0.002 C 
HETATM   12  C   UNL     1      26.911  50.187  38.228  1.00  0.00     0.002 C 
HETATM   13  C   UNL     1      26.228  49.386  39.335  1.00  0.00     0.027 C 
HETATM   14  H   UNL     1      27.191  46.889  39.151  1.00  0.00     0.163 HD
ENDROOT
BRANCH   1  15
HETATM   15  C   UNL     1      31.172  47.914  40.124  1.00  0.00     0.146 C 
BRANCH  15  16
HETATM   16  C   UNL     1      32.423  48.120  40.930  1.00  0.00     0.224 C 
HETATM   17  N   UNL     1      32.885  49.352  41.263  1.00  0.00    -0.327 N 
HETATM   18  H   UNL     1      33.757  49.284  41.784  1.00  0.00     0.169 HD
HETATM   19  O   UNL     1      33.034  47.125  41.347  1.00  0.00    -0.273 OA
BRANCH  17  20
HETATM   20  C   UNL     1      32.422  50.669  41.068  1.00  0.00     0.034 A 
HETATM   21  C   UNL     1      32.571  51.432  39.908  1.00  0.00     0.032 A 
HETATM   22  C   UNL     1      32.044  52.729  39.836  1.00  0.00     0.044 A 
HETATM   23  C   UNL     1      31.368  53.267  40.921  1.00  0.00     0.116 A 
HETATM   24  C   UNL     1      31.208  52.532  42.083  1.00  0.00     0.044 A 
HETATM   25  F   UNL     1      30.866  54.504  40.841  1.00  0.00    -0.206 F 
HETATM   26  C   UNL     1      31.732  51.238  42.155  1.00  0.00     0.032 A 
ENDBRANCH  17  20
ENDBRANCH  15  16
ENDBRANCH   1  15
TORSDOF 3
ENDMDL
MODEL 10
REMARK VINA RESULT:      -7.9     13.747     15.563
REMARK  3 active torsions:
REMARK  status: ('A' for Active; 'I' for Inactive)
REMARK    1  A    between atoms: C_2  and  N_3 
REMARK       I    between atoms: N_3  and  C_4 
REMARK    2  A    between atoms: C_4  and  C_5 
REMARK    3  A    between atoms: C_5  and  C_6 
ROOT
HETATM    1  C   UNL     1      32.617  52.051  41.203  1.00  0.00     0.286 C 
HETATM    2  N   UNL     1      31.750  51.309  42.217  1.00  0.00    -0.056 N 
HETATM    3  H   UNL     1      32.192  51.440  43.137  1.00  0.00     0.278 HD
HETATM    4  H   UNL     1      30.848  51.825  42.306  1.00  0.00     0.278 HD
HETATM    5  C   UNL     1      31.526  49.840  42.012  1.00  0.00     0.209 C 
HETATM    6  C   UNL     1      32.881  49.150  41.735  1.00  0.00     0.115 C 
HETATM    7  N   UNL     1      33.664  49.840  40.714  1.00  0.00    -0.353 N 
HETATM    8  C   UNL     1      33.770  51.206  40.641  1.00  0.00     0.249 C 
HETATM    9  O   UNL     1      34.716  51.716  40.048  1.00  0.00    -0.271 OA
HETATM   10  C   UNL     1      30.477  49.595  40.927  1.00  0.00     0.035 C 
HETATM   11  C   UNL     1      30.308  48.103  40.654  1.00  0.00     0.002 C 
HETATM   12  C   UNL     1      31.641  47.458  40.285  1.00  0.00     0.002 C 
HETATM   13  C   UNL     1      32.689  47.671  41.376  1.00  0.00     0.027 C 
HETATM   14  H   UNL     1      34.494  49.370  40.353  1.00  0.00     0.163 HD
ENDROOT
BRANCH   1  15
HETATM   15  C   UNL     1      31.834  52.635  40.014  1.00  0.00     0.146 C 
BRANCH  15  16
HETATM   16  C   UNL     1      30.898  53.745  40.399  1.00  0.00     0.224 C 
HETATM   17  N   UNL     1      29.548  53.612  40.355  1.00  0.00    -0.327 N 
HETATM   18  H   UNL     1      29.088  54.479  40.625  1.00  0.00     0.169 HD
HETATM   19  O   UNL     1      31.375  54.810  40.818  1.00  0.00    -0.273 OA
BRANCH  17  20
HETATM   20  C   UNL     1      28.666  52.557  40.044  1.00  0.00     0.034 A 
HETATM   21  C   UNL     1      28.422  52.033  38.773  1.00  0.00     0.032 A 
HETATM   22  C   UNL     1      27.532  50.965  38.601  1.00  0.00     0.044 A 
HETATM   23  C   UNL     1      26.884  50.416  39.697  1.00  0.00     0.116 A 
HETATM   24  C   UNL     1      27.108  50.917  40.969  1.00  0.00     0.044 A 
HETATM   25  F   UNL     1      26.039  49.394  39.524  1.00  0.00    -0.206 F 
HETATM   26  C   UNL     1      27.996  51.982  41.141  1.00  0.00     0.032 A 
ENDBRANCH  17  20
ENDBRANCH  15  16
ENDBRANCH   1  15
TORSDOF 3
ENDMDL
