MODEL 1
REMARK VINA RESULT:     -10.1      0.000      0.000
REMARK  4 active torsions:
REMARK  status: ('A' for Active; 'I' for Inactive)
REMARK    1  A    between atoms: C_4  and  C_5 
REMARK    2  A    between atoms: C_5  and  C_6 
REMARK    3  A    between atoms: C_7  and  N_8 
REMARK       I    between atoms: N_8  and  C_9 
REMARK    4  A    between atoms: C_9  and  C_10 
ROOT
HETATM    1  N   UNL     1      26.434  43.490  54.732  1.00  0.00    -0.321 N 
HETATM    2  C   UNL     1      25.304  44.058  54.180  1.00  0.00     0.277 C 
HETATM    3  O   UNL     1      24.358  44.411  54.879  1.00  0.00    -0.266 OA
HETATM    4  H   UNL     1      26.243  43.074  55.635  1.00  0.00     0.169 HD
ENDROOT
BRANCH   1   5
HETATM    5  C   UNL     1      27.537  42.998  54.023  1.00  0.00     0.041 A 
HETATM    6  C   UNL     1      28.715  43.754  53.883  1.00  0.00    -0.027 A 
HETATM    7  C   UNL     1      29.796  43.181  53.188  1.00  0.00     0.010 A 
HETATM    8  C   UNL     1      29.719  41.882  52.682  1.00  0.00     0.001 A 
HETATM    9  C   UNL     1      28.568  41.127  52.881  1.00  0.00     0.002 A 
HETATM   10  C   UNL     1      27.484  41.677  53.565  1.00  0.00     0.030 A 
BRANCH   6  11
HETATM   11  C   UNL     1      28.918  45.102  54.552  1.00  0.00     0.079 C 
BRANCH  11  12
HETATM   12  C   UNL     1      29.675  45.035  55.862  1.00  0.00    -0.054 A 
HETATM   13  C   UNL     1      29.382  45.919  56.910  1.00  0.00     0.007 A 
HETATM   14  C   UNL     1      30.079  45.842  58.117  1.00  0.00     0.001 A 
HETATM   15  C   UNL     1      31.077  44.884  58.290  1.00  0.00     0.000 A 
HETATM   16  C   UNL     1      31.381  44.003  57.255  1.00  0.00     0.001 A 
HETATM   17  C   UNL     1      30.684  44.077  56.048  1.00  0.00     0.007 A 
ENDBRANCH  11  12
ENDBRANCH   6  11
ENDBRANCH   1   5
BRANCH   2  18
HETATM   18  C   UNL     1      25.148  44.119  52.667  1.00  0.00     0.156 A 
HETATM   19  N   UNL     1      24.690  43.066  52.053  1.00  0.00    -0.166 NA
HETATM   20  N   UNL     1      24.560  43.114  50.699  1.00  0.00    -0.242 N 
HETATM   21  C   UNL     1      24.897  44.174  49.890  1.00  0.00     0.272 A 
HETATM   22  H   UNL     1      24.183  42.287  50.247  1.00  0.00     0.192 HD
HETATM   23  O   UNL     1      24.753  44.144  48.674  1.00  0.00    -0.266 OA
HETATM   24  C   UNL     1      25.452  45.356  50.571  1.00  0.00     0.046 A 
HETATM   25  C   UNL     1      25.568  45.349  51.960  1.00  0.00     0.016 A 
HETATM   26  C   UNL     1      25.868  46.465  49.826  1.00  0.00     0.018 A 
HETATM   27  C   UNL     1      26.098  46.470  52.611  1.00  0.00     0.015 A 
HETATM   28  C   UNL     1      26.517  47.578  51.867  1.00  0.00     0.001 A 
HETATM   29  C   UNL     1      26.404  47.575  50.477  1.00  0.00     0.001 A 
ENDBRANCH   2  18
TORSDOF 4
ENDMDL
MODEL 2
REMARK VINA RESULT:      -9.9      1.403      2.185
REMARK  4 active torsions:
REMARK  status: ('A' for Active; 'I' for Inactive)
REMARK    1  A    between atoms: C_4  and  C_5 
REMARK    2  A    between atoms: C_5  and  C_6 
REMARK    3  A    between atoms: C_7  and  N_8 
REMARK       I    between atoms: N_8  and  C_9 
REMARK    4  A    between atoms: C_9  and  C_10 
ROOT
HETATM    1  N   UNL     1      26.359  43.361  54.609  1.00  0.00    -0.321 N 
HETATM    2  C   UNL     1      25.453  44.323  54.212  1.00  0.00     0.277 C 
HETATM    3  O   UNL     1      24.397  44.495  54.815  1.00  0.00    -0.266 OA
HETATM    4  H   UNL     1      25.917  42.627  55.147  1.00  0.00     0.169 HD
ENDROOT
BRANCH   1   5
HETATM    5  C   UNL     1      27.557  43.043  53.957  1.00  0.00     0.041 A 
HETATM    6  C   UNL     1      28.689  43.874  54.056  1.00  0.00    -0.027 A 
HETATM    7  C   UNL     1      29.869  43.472  53.404  1.00  0.00     0.010 A 
HETATM    8  C   UNL     1      29.931  42.264  52.709  1.00  0.00     0.001 A 
HETATM    9  C   UNL     1      28.821  41.426  52.671  1.00  0.00     0.002 A 
HETATM   10  C   UNL     1      27.640  41.807  53.309  1.00  0.00     0.030 A 
BRANCH   6  11
HETATM   11  C   UNL     1      28.731  45.113  54.933  1.00  0.00     0.079 C 
BRANCH  11  12
HETATM   12  C   UNL     1      29.669  45.002  56.117  1.00  0.00    -0.054 A 
HETATM   13  C   UNL     1      29.580  45.896  57.193  1.00  0.00     0.007 A 
HETATM   14  C   UNL     1      30.442  45.778  58.285  1.00  0.00     0.001 A 
HETATM   15  C   UNL     1      31.402  44.768  58.313  1.00  0.00     0.000 A 
HETATM   16  C   UNL     1      31.504  43.876  57.248  1.00  0.00     0.001 A 
HETATM   17  C   UNL     1      30.642  43.991  56.156  1.00  0.00     0.007 A 
ENDBRANCH  11  12
ENDBRANCH   6  11
ENDBRANCH   1   5
BRANCH   2  18
HETATM   18  C   UNL     1      25.679  45.092  52.918  1.00  0.00     0.156 A 
HETATM   19  N   UNL     1      26.131  46.310  52.998  1.00  0.00    -0.166 NA
HETATM   20  N   UNL     1      26.324  47.004  51.842  1.00  0.00    -0.242 N 
HETATM   21  C   UNL     1      26.056  46.551  50.572  1.00  0.00     0.272 A 
HETATM   22  H   UNL     1      26.695  47.945  51.931  1.00  0.00     0.192 HD
HETATM   23  O   UNL     1      26.254  47.235  49.575  1.00  0.00    -0.266 OA
HETATM   24  C   UNL     1      25.509  45.188  50.473  1.00  0.00     0.046 A 
HETATM   25  C   UNL     1      25.330  44.440  51.636  1.00  0.00     0.016 A 
HETATM   26  C   UNL     1      25.161  44.658  49.225  1.00  0.00     0.018 A 
HETATM   27  C   UNL     1      24.806  43.145  51.548  1.00  0.00     0.015 A 
HETATM   28  C   UNL     1      24.456  42.615  50.301  1.00  0.00     0.001 A 
HETATM   29  C   UNL     1      24.631  43.371  49.142  1.00  0.00     0.001 A 
ENDBRANCH   2  18
TORSDOF 4
ENDMDL
MODEL 3
REMARK VINA RESULT:      -9.2     12.971     15.312
REMARK  4 active torsions:
REMARK  status: ('A' for Active; 'I' for Inactive)
REMARK    1  A    between atoms: C_4  and  C_5 
REMARK    2  A    between atoms: C_5  and  C_6 
REMARK    3  A    between atoms: C_7  and  N_8 
REMARK       I    between atoms: N_8  and  C_9 
REMARK    4  A    between atoms: C_9  and  C_10 
ROOT
HETATM    1  N   UNL     1      26.890  51.209  40.469  1.00  0.00    -0.321 N 
HETATM    2  C   UNL     1      27.935  52.079  40.702  1.00  0.00     0.277 C 
HETATM    3  O   UNL     1      27.803  53.058  41.431  1.00  0.00    -0.266 OA
HETATM    4  H   UNL     1      25.992  51.649  40.628  1.00  0.00     0.169 HD
ENDROOT
BRANCH   1   5
HETATM    5  C   UNL     1      26.916  50.104  39.609  1.00  0.00     0.041 A 
HETATM    6  C   UNL     1      27.524  48.893  39.991  1.00  0.00    -0.027 A 
HETATM    7  C   UNL     1      27.480  47.814  39.090  1.00  0.00     0.010 A 
HETATM    8  C   UNL     1      26.820  47.924  37.865  1.00  0.00     0.001 A 
HETATM    9  C   UNL     1      26.173  49.109  37.530  1.00  0.00     0.002 A 
HETATM   10  C   UNL     1      26.207  50.193  38.408  1.00  0.00     0.030 A 
BRANCH   6  11
HETATM   11  C   UNL     1      28.110  48.660  41.372  1.00  0.00     0.079 C 
BRANCH  11  12
HETATM   12  C   UNL     1      29.614  48.486  41.384  1.00  0.00    -0.054 A 
HETATM   13  C   UNL     1      30.341  48.575  42.579  1.00  0.00     0.007 A 
HETATM   14  C   UNL     1      31.726  48.401  42.581  1.00  0.00     0.001 A 
HETATM   15  C   UNL     1      32.400  48.139  41.390  1.00  0.00     0.000 A 
HETATM   16  C   UNL     1      31.691  48.053  40.195  1.00  0.00     0.001 A 
HETATM   17  C   UNL     1      30.306  48.224  40.191  1.00  0.00     0.007 A 
ENDBRANCH  11  12
ENDBRANCH   6  11
ENDBRANCH   1   5
BRANCH   2  18
HETATM   18  C   UNL     1      29.239  51.922  39.931  1.00  0.00     0.156 A 
HETATM   19  N   UNL     1      29.174  51.755  38.642  1.00  0.00    -0.166 NA
HETATM   20  N   UNL     1      30.338  51.604  37.951  1.00  0.00    -0.242 N 
HETATM   21  C   UNL     1      31.602  51.578  38.492  1.00  0.00     0.272 A 
HETATM   22  H   UNL     1      30.261  51.495  36.945  1.00  0.00     0.192 HD
HETATM   23  O   UNL     1      32.607  51.435  37.806  1.00  0.00    -0.266 OA
HETATM   24  C   UNL     1      31.683  51.727  39.954  1.00  0.00     0.046 A 
HETATM   25  C   UNL     1      30.512  51.916  40.685  1.00  0.00     0.016 A 
HETATM   26  C   UNL     1      32.924  51.666  40.600  1.00  0.00     0.018 A 
HETATM   27  C   UNL     1      30.584  52.055  42.077  1.00  0.00     0.015 A 
HETATM   28  C   UNL     1      31.823  51.991  42.723  1.00  0.00     0.001 A 
HETATM   29  C   UNL     1      32.991  51.795  41.986  1.00  0.00     0.001 A 
ENDBRANCH   2  18
TORSDOF 4
ENDMDL
MODEL 4
REMARK VINA RESULT:      -9.1      2.247      6.955
REMARK  4 active torsions:
REMARK  status: ('A' for Active; 'I' for Inactive)
REMARK    1  A    between atoms: C_4  and  C_5 
REMARK    2  A    between atoms: C_5  and  C_6 
REMARK    3  A    between atoms: C_7  and  N_8 
REMARK       I    between atoms: N_8  and  C_9 
REMARK    4  A    between atoms: C_9  and  C_10 
ROOT
HETATM    1  N   UNL     1      24.790  44.819  52.744  1.00  0.00    -0.321 N 
HETATM    2  C   UNL     1      25.187  44.610  54.048  1.00  0.00     0.277 C 
HETATM    3  O   UNL     1      24.414  44.159  54.889  1.00  0.00    -0.266 OA
HETATM    4  H   UNL     1      23.785  44.927  52.670  1.00  0.00     0.169 HD
ENDROOT
BRANCH   1   5
HETATM    5  C   UNL     1      25.570  45.385  51.728  1.00  0.00     0.041 A 
HETATM    6  C   UNL     1      26.331  44.584  50.856  1.00  0.00    -0.027 A 
HETATM    7  C   UNL     1      27.063  45.220  49.837  1.00  0.00     0.010 A 
HETATM    8  C   UNL     1      27.007  46.604  49.666  1.00  0.00     0.001 A 
HETATM    9  C   UNL     1      26.201  47.374  50.499  1.00  0.00     0.002 A 
HETATM   10  C   UNL     1      25.471  46.764  51.519  1.00  0.00     0.030 A 
BRANCH   6  11
HETATM   11  C   UNL     1      26.301  43.067  50.888  1.00  0.00     0.079 C 
BRANCH  11  12
HETATM   12  C   UNL     1      25.298  42.448  49.937  1.00  0.00    -0.054 A 
HETATM   13  C   UNL     1      23.937  42.778  50.009  1.00  0.00     0.007 A 
HETATM   14  C   UNL     1      23.022  42.211  49.121  1.00  0.00     0.001 A 
HETATM   15  C   UNL     1      23.455  41.306  48.153  1.00  0.00     0.000 A 
HETATM   16  C   UNL     1      24.803  40.966  48.073  1.00  0.00     0.001 A 
HETATM   17  C   UNL     1      25.720  41.534  48.959  1.00  0.00     0.007 A 
ENDBRANCH  11  12
ENDBRANCH   6  11
ENDBRANCH   1   5
BRANCH   2  18
HETATM   18  C   UNL     1      26.560  45.080  54.508  1.00  0.00     0.156 A 
HETATM   19  N   UNL     1      26.691  46.320  54.882  1.00  0.00    -0.166 NA
HETATM   20  N   UNL     1      27.921  46.746  55.284  1.00  0.00    -0.242 N 
HETATM   21  C   UNL     1      29.071  45.994  55.306  1.00  0.00     0.272 A 
HETATM   22  H   UNL     1      27.992  47.712  55.589  1.00  0.00     0.192 HD
HETATM   23  O   UNL     1      30.146  46.447  55.679  1.00  0.00    -0.266 OA
HETATM   24  C   UNL     1      28.941  44.600  54.848  1.00  0.00     0.046 A 
HETATM   25  C   UNL     1      27.689  44.125  54.462  1.00  0.00     0.016 A 
HETATM   26  C   UNL     1      30.067  43.771  54.791  1.00  0.00     0.018 A 
HETATM   27  C   UNL     1      27.561  42.801  54.022  1.00  0.00     0.015 A 
HETATM   28  C   UNL     1      28.687  41.972  53.962  1.00  0.00     0.001 A 
HETATM   29  C   UNL     1      29.938  42.457  54.344  1.00  0.00     0.001 A 
ENDBRANCH   2  18
TORSDOF 4
ENDMDL
MODEL 5
REMARK VINA RESULT:      -8.6     13.136     15.731
REMARK  4 active torsions:
REMARK  status: ('A' for Active; 'I' for Inactive)
REMARK    1  A    between atoms: C_4  and  C_5 
REMARK    2  A    between atoms: C_5  and  C_6 
REMARK    3  A    between atoms: C_7  and  N_8 
REMARK       I    between atoms: N_8  and  C_9 
REMARK    4  A    between atoms: C_9  and  C_10 
ROOT
HETATM    1  N   UNL     1      29.274  52.786  42.030  1.00  0.00    -0.321 N 
HETATM    2  C   UNL     1      30.468  52.517  42.667  1.00  0.00     0.277 C 
HETATM    3  O   UNL     1      30.619  52.736  43.865  1.00  0.00    -0.266 OA
HETATM    4  H   UNL     1      28.733  53.485  42.526  1.00  0.00     0.169 HD
ENDROOT
BRANCH   1   5
HETATM    5  C   UNL     1      29.019  52.633  40.662  1.00  0.00     0.041 A 
HETATM    6  C   UNL     1      28.562  51.412  40.133  1.00  0.00    -0.027 A 
HETATM    7  C   UNL     1      28.293  51.342  38.755  1.00  0.00     0.010 A 
HETATM    8  C   UNL     1      28.436  52.463  37.935  1.00  0.00     0.001 A 
HETATM    9  C   UNL     1      28.831  53.678  38.485  1.00  0.00     0.002 A 
HETATM   10  C   UNL     1      29.107  53.768  39.850  1.00  0.00     0.030 A 
BRANCH   6  11
HETATM   11  C   UNL     1      28.229  50.209  40.998  1.00  0.00     0.079 C 
BRANCH  11  12
HETATM   12  C   UNL     1      28.744  48.893  40.454  1.00  0.00    -0.054 A 
HETATM   13  C   UNL     1      28.145  47.679  40.816  1.00  0.00     0.007 A 
HETATM   14  C   UNL     1      28.621  46.472  40.300  1.00  0.00     0.001 A 
HETATM   15  C   UNL     1      29.701  46.465  39.419  1.00  0.00     0.000 A 
HETATM   16  C   UNL     1      30.308  47.664  39.054  1.00  0.00     0.001 A 
HETATM   17  C   UNL     1      29.833  48.872  39.568  1.00  0.00     0.007 A 
ENDBRANCH  11  12
ENDBRANCH   6  11
ENDBRANCH   1   5
BRANCH   2  18
HETATM   18  C   UNL     1      31.680  52.081  41.854  1.00  0.00     0.156 A 
HETATM   19  N   UNL     1      32.287  52.975  41.129  1.00  0.00    -0.166 NA
HETATM   20  N   UNL     1      33.364  52.584  40.392  1.00  0.00    -0.242 N 
HETATM   21  C   UNL     1      33.869  51.309  40.310  1.00  0.00     0.272 A 
HETATM   22  H   UNL     1      33.832  53.305  39.851  1.00  0.00     0.192 HD
HETATM   23  O   UNL     1      34.844  51.031  39.622  1.00  0.00    -0.266 OA
HETATM   24  C   UNL     1      33.165  50.282  41.096  1.00  0.00     0.046 A 
HETATM   25  C   UNL     1      32.079  50.656  41.886  1.00  0.00     0.016 A 
HETATM   26  C   UNL     1      33.578  48.946  41.039  1.00  0.00     0.018 A 
HETATM   27  C   UNL     1      31.404  49.683  42.633  1.00  0.00     0.015 A 
HETATM   28  C   UNL     1      31.814  48.347  42.574  1.00  0.00     0.001 A 
HETATM   29  C   UNL     1      32.897  47.979  41.777  1.00  0.00     0.001 A 
ENDBRANCH   2  18
TORSDOF 4
ENDMDL
MODEL 6
REMARK VINA RESULT:      -8.5      2.257      5.106
REMARK  4 active torsions:
REMARK  status: ('A' for Active; 'I' for Inactive)
REMARK    1  A    between atoms: C_4  and  C_5 
REMARK    2  A    between atoms: C_5  and  C_6 
REMARK    3  A    between atoms: C_7  and  N_8 
REMARK       I    between atoms: N_8  and  C_9 
REMARK    4  A    between atoms: C_9  and  C_10 
ROOT
HETATM    1  N   UNL     1      26.392  43.120  54.670  1.00  0.00    -0.321 N 
HETATM    2  C   UNL     1      25.432  44.067  54.374  1.00  0.00     0.277 C 
HETATM    3  O   UNL     1      24.298  43.996  54.839  1.00  0.00    -0.266 OA
HETATM    4  H   UNL     1      25.977  42.242  54.956  1.00  0.00     0.169 HD
ENDROOT
BRANCH   1   5
HETATM    5  C   UNL     1      27.689  43.074  54.145  1.00  0.00     0.041 A 
HETATM    6  C   UNL     1      27.987  42.324  52.992  1.00  0.00    -0.027 A 
HETATM    7  C   UNL     1      29.304  42.354  52.500  1.00  0.00     0.010 A 
HETATM    8  C   UNL     1      30.285  43.136  53.114  1.00  0.00     0.001 A 
HETATM    9  C   UNL     1      29.958  43.918  54.217  1.00  0.00     0.002 A 
HETATM   10  C   UNL     1      28.658  43.900  54.723  1.00  0.00     0.030 A 
BRANCH   6  11
HETATM   11  C   UNL     1      26.930  41.590  52.186  1.00  0.00     0.079 C 
BRANCH  11  12
HETATM   12  C   UNL     1      27.390  41.156  50.811  1.00  0.00    -0.054 A 
HETATM   13  C   UNL     1      28.162  39.998  50.640  1.00  0.00     0.007 A 
HETATM   14  C   UNL     1      28.572  39.601  49.367  1.00  0.00     0.001 A 
HETATM   15  C   UNL     1      28.218  40.356  48.250  1.00  0.00     0.000 A 
HETATM   16  C   UNL     1      27.456  41.511  48.406  1.00  0.00     0.001 A 
HETATM   17  C   UNL     1      27.043  41.909  49.678  1.00  0.00     0.007 A 
ENDBRANCH  11  12
ENDBRANCH   6  11
ENDBRANCH   1   5
BRANCH   2  18
HETATM   18  C   UNL     1      25.721  45.142  53.336  1.00  0.00     0.156 A 
HETATM   19  N   UNL     1      26.337  46.221  53.723  1.00  0.00    -0.166 NA
HETATM   20  N   UNL     1      26.587  47.189  52.799  1.00  0.00    -0.242 N 
HETATM   21  C   UNL     1      26.221  47.158  51.474  1.00  0.00     0.272 A 
HETATM   22  H   UNL     1      27.086  48.012  53.123  1.00  0.00     0.192 HD
HETATM   23  O   UNL     1      26.479  48.070  50.699  1.00  0.00    -0.266 OA
HETATM   24  C   UNL     1      25.489  45.958  51.034  1.00  0.00     0.046 A 
HETATM   25  C   UNL     1      25.247  44.935  51.949  1.00  0.00     0.016 A 
HETATM   26  C   UNL     1      25.034  45.856  49.715  1.00  0.00     0.018 A 
HETATM   27  C   UNL     1      24.548  43.794  51.536  1.00  0.00     0.015 A 
HETATM   28  C   UNL     1      24.090  43.692  50.218  1.00  0.00     0.001 A 
HETATM   29  C   UNL     1      24.331  44.723  49.310  1.00  0.00     0.001 A 
ENDBRANCH   2  18
TORSDOF 4
ENDMDL
MODEL 7
REMARK VINA RESULT:      -8.5      2.168      3.384
REMARK  4 active torsions:
REMARK  status: ('A' for Active; 'I' for Inactive)
REMARK    1  A    between atoms: C_4  and  C_5 
REMARK    2  A    between atoms: C_5  and  C_6 
REMARK    3  A    between atoms: C_7  and  N_8 
REMARK       I    between atoms: N_8  and  C_9 
REMARK    4  A    between atoms: C_9  and  C_10 
ROOT
HETATM    1  N   UNL     1      27.276  45.240  51.555  1.00  0.00    -0.321 N 
HETATM    2  C   UNL     1      26.929  44.984  50.244  1.00  0.00     0.277 C 
HETATM    3  O   UNL     1      27.499  45.541  49.310  1.00  0.00    -0.266 OA
HETATM    4  H   UNL     1      27.726  46.141  51.655  1.00  0.00     0.169 HD
ENDROOT
BRANCH   1   5
HETATM    5  C   UNL     1      26.649  44.709  52.689  1.00  0.00     0.041 A 
HETATM    6  C   UNL     1      27.354  43.910  53.609  1.00  0.00    -0.027 A 
HETATM    7  C   UNL     1      26.669  43.441  54.744  1.00  0.00     0.010 A 
HETATM    8  C   UNL     1      25.337  43.788  54.976  1.00  0.00     0.001 A 
HETATM    9  C   UNL     1      24.673  44.627  54.087  1.00  0.00     0.002 A 
HETATM   10  C   UNL     1      25.333  45.100  52.953  1.00  0.00     0.030 A 
BRANCH   6  11
HETATM   11  C   UNL     1      28.844  43.638  53.498  1.00  0.00     0.079 C 
BRANCH  11  12
HETATM   12  C   UNL     1      29.624  43.943  54.759  1.00  0.00    -0.054 A 
HETATM   13  C   UNL     1      29.454  45.158  55.436  1.00  0.00     0.007 A 
HETATM   14  C   UNL     1      30.171  45.425  56.604  1.00  0.00     0.001 A 
HETATM   15  C   UNL     1      31.066  44.483  57.107  1.00  0.00     0.000 A 
HETATM   16  C   UNL     1      31.248  43.273  56.441  1.00  0.00     0.001 A 
HETATM   17  C   UNL     1      30.531  43.003  55.274  1.00  0.00     0.007 A 
ENDBRANCH  11  12
ENDBRANCH   6  11
ENDBRANCH   1   5
BRANCH   2  18
HETATM   18  C   UNL     1      25.720  44.111  49.935  1.00  0.00     0.156 A 
HETATM   19  N   UNL     1      25.862  42.819  50.002  1.00  0.00    -0.166 NA
HETATM   20  N   UNL     1      24.785  42.036  49.715  1.00  0.00    -0.242 N 
HETATM   21  C   UNL     1      23.544  42.479  49.324  1.00  0.00     0.272 A 
HETATM   22  H   UNL     1      24.917  41.032  49.793  1.00  0.00     0.192 HD
HETATM   23  O   UNL     1      22.619  41.712  49.080  1.00  0.00    -0.266 OA
HETATM   24  C   UNL     1      23.384  43.938  49.208  1.00  0.00     0.046 A 
HETATM   25  C   UNL     1      24.458  44.767  49.526  1.00  0.00     0.016 A 
HETATM   26  C   UNL     1      22.170  44.480  48.771  1.00  0.00     0.018 A 
HETATM   27  C   UNL     1      24.313  46.155  49.414  1.00  0.00     0.015 A 
HETATM   28  C   UNL     1      23.100  46.698  48.974  1.00  0.00     0.001 A 
HETATM   29  C   UNL     1      22.032  45.862  48.652  1.00  0.00     0.001 A 
ENDBRANCH   2  18
TORSDOF 4
ENDMDL
MODEL 8
REMARK VINA RESULT:      -8.5     13.243     15.207
REMARK  4 active torsions:
REMARK  status: ('A' for Active; 'I' for Inactive)
REMARK    1  A    between atoms: C_4  and  C_5 
REMARK    2  A    between atoms: C_5  and  C_6 
REMARK    3  A    between atoms: C_7  and  N_8 
REMARK       I    between atoms: N_8  and  C_9 
REMARK    4  A    between atoms: C_9  and  C_10 
ROOT
HETATM    1  N   UNL     1      31.967  51.693  43.062  1.00  0.00    -0.321 N 
HETATM    2  C   UNL     1      30.974  52.358  42.371  1.00  0.00     0.277 C 
HETATM    3  O   UNL     1      30.155  53.065  42.951  1.00  0.00    -0.266 OA
HETATM    4  H   UNL     1      31.718  51.550  44.033  1.00  0.00     0.169 HD
ENDROOT
BRANCH   1   5
HETATM    5  C   UNL     1      32.907  50.816  42.506  1.00  0.00     0.041 A 
HETATM    6  C   UNL     1      32.586  49.473  42.237  1.00  0.00    -0.027 A 
HETATM    7  C   UNL     1      33.569  48.659  41.645  1.00  0.00     0.010 A 
HETATM    8  C   UNL     1      34.818  49.177  41.297  1.00  0.00     0.001 A 
HETATM    9  C   UNL     1      35.097  50.522  41.516  1.00  0.00     0.002 A 
HETATM   10  C   UNL     1      34.137  51.345  42.105  1.00  0.00     0.030 A 
BRANCH   6  11
HETATM   11  C   UNL     1      31.196  48.897  42.439  1.00  0.00     0.079 C 
BRANCH  11  12
HETATM   12  C   UNL     1      30.551  48.378  41.171  1.00  0.00    -0.054 A 
HETATM   13  C   UNL     1      31.228  48.429  39.944  1.00  0.00     0.007 A 
HETATM   14  C   UNL     1      30.629  47.938  38.783  1.00  0.00     0.001 A 
HETATM   15  C   UNL     1      29.347  47.393  38.834  1.00  0.00     0.000 A 
HETATM   16  C   UNL     1      28.661  47.340  40.045  1.00  0.00     0.001 A 
HETATM   17  C   UNL     1      29.259  47.829  41.207  1.00  0.00     0.007 A 
ENDBRANCH  11  12
ENDBRANCH   6  11
ENDBRANCH   1   5
BRANCH   2  18
HETATM   18  C   UNL     1      30.783  52.102  40.883  1.00  0.00     0.156 A 
HETATM   19  N   UNL     1      31.759  52.403  40.077  1.00  0.00    -0.166 NA
HETATM   20  N   UNL     1      31.587  52.186  38.744  1.00  0.00    -0.242 N 
HETATM   21  C   UNL     1      30.450  51.699  38.144  1.00  0.00     0.272 A 
HETATM   22  H   UNL     1      32.371  52.411  38.140  1.00  0.00     0.192 HD
HETATM   23  O   UNL     1      30.366  51.531  36.933  1.00  0.00    -0.266 OA
HETATM   24  C   UNL     1      29.325  51.392  39.043  1.00  0.00     0.046 A 
HETATM   25  C   UNL     1      29.482  51.573  40.416  1.00  0.00     0.016 A 
HETATM   26  C   UNL     1      28.110  50.935  38.519  1.00  0.00     0.018 A 
HETATM   27  C   UNL     1      28.414  51.285  41.274  1.00  0.00     0.015 A 
HETATM   28  C   UNL     1      27.198  50.832  40.751  1.00  0.00     0.001 A 
HETATM   29  C   UNL     1      27.046  50.659  39.375  1.00  0.00     0.001 A 
ENDBRANCH   2  18
TORSDOF 4
ENDMDL
MODEL 9
REMARK VINA RESULT:      -8.5      8.822     12.188
REMARK  4 active torsions:
REMARK  status: ('A' for Active; 'I' for Inactive)
REMARK    1  A    between atoms: C_4  and  C_5 
REMARK    2  A    between atoms: C_5  and  C_6 
REMARK    3  A    between atoms: C_7  and  N_8 
REMARK       I    between atoms: N_8  and  C_9 
REMARK    4  A    between atoms: C_9  and  C_10 
ROOT
HETATM    1  N   UNL     1      20.139  49.902  50.677  1.00  0.00    -0.321 N 
HETATM    2  C   UNL     1      19.051  49.053  50.682  1.00  0.00     0.277 C 
HETATM    3  O   UNL     1      18.315  48.962  51.661  1.00  0.00    -0.266 OA
HETATM    4  H   UNL     1      20.456  50.112  51.615  1.00  0.00     0.169 HD
ENDROOT
BRANCH   1   5
HETATM    5  C   UNL     1      21.073  50.033  49.642  1.00  0.00     0.041 A 
HETATM    6  C   UNL     1      20.835  50.879  48.542  1.00  0.00    -0.027 A 
HETATM    7  C   UNL     1      21.834  50.989  47.558  1.00  0.00     0.010 A 
HETATM    8  C   UNL     1      23.046  50.309  47.684  1.00  0.00     0.001 A 
HETATM    9  C   UNL     1      23.289  49.525  48.807  1.00  0.00     0.002 A 
HETATM   10  C   UNL     1      22.311  49.400  49.793  1.00  0.00     0.030 A 
BRANCH   6  11
HETATM   11  C   UNL     1      19.609  51.769  48.433  1.00  0.00     0.079 C 
BRANCH  11  12
HETATM   12  C   UNL     1      18.793  51.547  47.177  1.00  0.00    -0.054 A 
HETATM   13  C   UNL     1      19.120  50.524  46.276  1.00  0.00     0.007 A 
HETATM   14  C   UNL     1      18.355  50.321  45.127  1.00  0.00     0.001 A 
HETATM   15  C   UNL     1      17.256  51.137  44.864  1.00  0.00     0.000 A 
HETATM   16  C   UNL     1      16.923  52.160  45.748  1.00  0.00     0.001 A 
HETATM   17  C   UNL     1      17.686  52.364  46.899  1.00  0.00     0.007 A 
ENDBRANCH  11  12
ENDBRANCH   6  11
ENDBRANCH   1   5
BRANCH   2  18
HETATM   18  C   UNL     1      18.830  48.094  49.520  1.00  0.00     0.156 A 
HETATM   19  N   UNL     1      19.721  47.169  49.309  1.00  0.00    -0.166 NA
HETATM   20  N   UNL     1      19.532  46.317  48.264  1.00  0.00    -0.242 N 
HETATM   21  C   UNL     1      18.488  46.353  47.369  1.00  0.00     0.272 A 
HETATM   22  H   UNL     1      20.231  45.593  48.133  1.00  0.00     0.192 HD
HETATM   23  O   UNL     1      18.385  45.552  46.448  1.00  0.00    -0.266 OA
HETATM   24  C   UNL     1      17.496  47.420  47.576  1.00  0.00     0.046 A 
HETATM   25  C   UNL     1      17.644  48.288  48.657  1.00  0.00     0.016 A 
HETATM   26  C   UNL     1      16.423  47.565  46.688  1.00  0.00     0.018 A 
HETATM   27  C   UNL     1      16.704  49.307  48.856  1.00  0.00     0.015 A 
HETATM   28  C   UNL     1      15.634  49.455  47.967  1.00  0.00     0.001 A 
HETATM   29  C   UNL     1      15.495  48.587  46.884  1.00  0.00     0.001 A 
ENDBRANCH   2  18
TORSDOF 4
ENDMDL
MODEL 10
REMARK VINA RESULT:      -8.2     14.677     16.936
REMARK  4 active torsions:
REMARK  status: ('A' for Active; 'I' for Inactive)
REMARK    1  A    between atoms: C_4  and  C_5 
REMARK    2  A    between atoms: C_5  and  C_6 
REMARK    3  A    between atoms: C_7  and  N_8 
REMARK       I    between atoms: N_8  and  C_9 
REMARK    4  A    between atoms: C_9  and  C_10 
ROOT
HETATM    1  N   UNL     1      37.847  48.859  64.310  1.00  0.00    -0.321 N 
HETATM    2  C   UNL     1      36.947  47.895  63.906  1.00  0.00     0.277 C 
HETATM    3  O   UNL     1      36.412  47.941  62.802  1.00  0.00    -0.266 OA
HETATM    4  H   UNL     1      37.719  49.728  63.806  1.00  0.00     0.169 HD
ENDROOT
BRANCH   1   5
HETATM    5  C   UNL     1      38.463  48.933  65.566  1.00  0.00     0.041 A 
HETATM    6  C   UNL     1      39.700  48.311  65.813  1.00  0.00    -0.027 A 
HETATM    7  C   UNL     1      40.276  48.459  67.088  1.00  0.00     0.010 A 
HETATM    8  C   UNL     1      39.659  49.233  68.072  1.00  0.00     0.001 A 
HETATM    9  C   UNL     1      38.465  49.890  67.791  1.00  0.00     0.002 A 
HETATM   10  C   UNL     1      37.875  49.754  66.534  1.00  0.00     0.030 A 
BRANCH   6  11
HETATM   11  C   UNL     1      40.498  47.598  64.736  1.00  0.00     0.079 C 
BRANCH  11  12
HETATM   12  C   UNL     1      40.550  46.093  64.898  1.00  0.00    -0.054 A 
HETATM   13  C   UNL     1      41.135  45.282  63.916  1.00  0.00     0.007 A 
HETATM   14  C   UNL     1      41.187  43.897  64.081  1.00  0.00     0.001 A 
HETATM   15  C   UNL     1      40.654  43.307  65.225  1.00  0.00     0.000 A 
HETATM   16  C   UNL     1      40.065  44.101  66.207  1.00  0.00     0.001 A 
HETATM   17  C   UNL     1      40.014  45.487  66.045  1.00  0.00     0.007 A 
ENDBRANCH  11  12
ENDBRANCH   6  11
ENDBRANCH   1   5
BRANCH   2  18
HETATM   18  C   UNL     1      36.483  46.829  64.889  1.00  0.00     0.156 A 
HETATM   19  N   UNL     1      35.922  47.218  65.997  1.00  0.00    -0.166 NA
HETATM   20  N   UNL     1      35.516  46.267  66.884  1.00  0.00    -0.242 N 
HETATM   21  C   UNL     1      35.669  44.908  66.740  1.00  0.00     0.272 A 
HETATM   22  H   UNL     1      35.064  46.596  67.731  1.00  0.00     0.192 HD
HETATM   23  O   UNL     1      35.280  44.110  67.584  1.00  0.00    -0.266 OA
HETATM   24  C   UNL     1      36.338  44.460  65.507  1.00  0.00     0.046 A 
HETATM   25  C   UNL     1      36.736  45.407  64.565  1.00  0.00     0.016 A 
HETATM   26  C   UNL     1      36.580  43.098  65.294  1.00  0.00     0.018 A 
HETATM   27  C   UNL     1      37.376  44.986  63.393  1.00  0.00     0.015 A 
HETATM   28  C   UNL     1      37.621  43.625  63.180  1.00  0.00     0.001 A 
HETATM   29  C   UNL     1      37.226  42.683  64.130  1.00  0.00     0.001 A 
ENDBRANCH   2  18
TORSDOF 4
ENDMDL
