MODEL 1
REMARK VINA RESULT:      -9.8      0.000      0.000
REMARK  8 active torsions:
REMARK  status: ('A' for Active; 'I' for Inactive)
REMARK    1  A    between atoms: C_4  and  N_5 
REMARK    2  A    between atoms: C_8  and  C_9 
REMARK    3  A    between atoms: C_9  and  N_10 
REMARK       I    between atoms: N_10  and  C_11 
REMARK       I    between atoms: C_11  and  N_12 
REMARK    4  A    between atoms: N_12  and  C_13 
REMARK    5  A    between atoms: C_13  and  C_14 
REMARK    6  A    between atoms: C_14  and  N_15 
REMARK       I    between atoms: N_15  and  C_16 
REMARK    7  A    between atoms: C_16  and  C_17 
REMARK    8  A    between atoms: C_18  and  O_19 
ROOT
HETATM    1  N   UNL     1      26.723  45.153  51.550  1.00  0.00    -0.339 N 
HETATM    2  C   UNL     1      26.244  45.825  50.461  1.00  0.00     0.316 C 
HETATM    3  N   UNL     1      25.611  46.984  50.806  1.00  0.00    -0.342 N 
HETATM    4  O   UNL     1      26.408  45.451  49.307  1.00  0.00    -0.248 OA
HETATM    5  H   UNL     1      26.290  45.334  52.441  1.00  0.00     0.164 HD
HETATM    6  H   UNL     1      25.305  47.113  51.757  1.00  0.00     0.164 HD
ENDROOT
BRANCH   1   7
HETATM    7  C   UNL     1      27.410  43.897  51.368  1.00  0.00     0.166 C 
BRANCH   7   8
HETATM    8  C   UNL     1      28.402  43.724  52.456  1.00  0.00    -0.004 A 
HETATM    9  C   UNL     1      29.517  42.865  52.470  1.00  0.00     0.149 A 
HETATM   10  N   UNL     1      30.227  42.952  53.594  1.00  0.00    -0.180 NA
HETATM   11  N   UNL     1      29.588  43.894  54.337  1.00  0.00    -0.245 N 
HETATM   12  C   UNL     1      28.478  44.373  53.673  1.00  0.00     0.129 A 
BRANCH  11  13
HETATM   13  C   UNL     1      30.076  44.269  55.621  1.00  0.00     0.058 A 
HETATM   14  C   UNL     1      31.024  43.455  56.262  1.00  0.00     0.031 A 
HETATM   15  C   UNL     1      31.519  43.805  57.520  1.00  0.00     0.002 A 
HETATM   16  C   UNL     1      31.072  44.965  58.148  1.00  0.00     0.000 A 
HETATM   17  C   UNL     1      30.130  45.778  57.519  1.00  0.00     0.002 A 
HETATM   18  C   UNL     1      29.631  45.435  56.258  1.00  0.00     0.031 A 
ENDBRANCH  11  13
ENDBRANCH   7   8
ENDBRANCH   1   7
BRANCH   3  19
HETATM   19  C   UNL     1      25.013  47.850  49.803  1.00  0.00     0.144 C 
BRANCH  19  20
HETATM   20  C   UNL     1      23.591  47.416  49.425  1.00  0.00     0.142 C 
BRANCH  20  21
HETATM   21  N   UNL     1      22.596  48.455  49.633  1.00  0.00    -0.355 N 
HETATM   22  C   UNL     1      21.840  48.966  48.605  1.00  0.00     0.254 C 
HETATM   23  O   UNL     1      22.046  48.676  47.430  1.00  0.00    -0.268 OA
HETATM   24  H   UNL     1      22.299  48.667  50.582  1.00  0.00     0.162 HD
BRANCH  22  25
HETATM   25  C   UNL     1      20.738  49.914  48.966  1.00  0.00     0.065 A 
HETATM   26  C   UNL     1      19.697  49.624  49.862  1.00  0.00     0.081 A 
HETATM   27  C   UNL     1      18.705  50.573  50.131  1.00  0.00     0.037 A 
HETATM   28  C   UNL     1      18.744  51.822  49.508  1.00  0.00     0.003 A 
HETATM   29  C   UNL     1      19.769  52.123  48.615  1.00  0.00     0.001 A 
HETATM   30  C   UNL     1      20.758  51.175  48.346  1.00  0.00     0.020 A 
BRANCH  26  31
HETATM   31  O   UNL     1      19.623  48.406  50.489  1.00  0.00    -0.360 OA
HETATM   32  H   UNL     1      19.545  48.553  51.448  1.00  0.00     0.217 HD
ENDBRANCH  26  31
ENDBRANCH  22  25
ENDBRANCH  20  21
ENDBRANCH  19  20
ENDBRANCH   3  19
TORSDOF 8
ENDMDL
MODEL 2
REMARK VINA RESULT:      -9.7      1.232      1.771
REMARK  8 active torsions:
REMARK  status: ('A' for Active; 'I' for Inactive)
REMARK    1  A    between atoms: C_4  and  N_5 
REMARK    2  A    between atoms: C_8  and  C_9 
REMARK    3  A    between atoms: C_9  and  N_10 
REMARK       I    between atoms: N_10  and  C_11 
REMARK       I    between atoms: C_11  and  N_12 
REMARK    4  A    between atoms: N_12  and  C_13 
REMARK    5  A    between atoms: C_13  and  C_14 
REMARK    6  A    between atoms: C_14  and  N_15 
REMARK       I    between atoms: N_15  and  C_16 
REMARK    7  A    between atoms: C_16  and  C_17 
REMARK    8  A    between atoms: C_18  and  O_19 
ROOT
HETATM    1  N   UNL     1      25.471  44.517  51.218  1.00  0.00    -0.339 N 
HETATM    2  C   UNL     1      25.154  45.293  50.138  1.00  0.00     0.316 C 
HETATM    3  N   UNL     1      23.856  45.713  50.167  1.00  0.00    -0.342 N 
HETATM    4  O   UNL     1      25.959  45.613  49.273  1.00  0.00    -0.248 OA
HETATM    5  H   UNL     1      24.719  44.044  51.692  1.00  0.00     0.164 HD
HETATM    6  H   UNL     1      23.196  45.234  50.760  1.00  0.00     0.164 HD
ENDROOT
BRANCH   1   7
HETATM    7  C   UNL     1      26.802  43.975  51.340  1.00  0.00     0.166 C 
BRANCH   7   8
HETATM    8  C   UNL     1      27.406  44.452  52.608  1.00  0.00    -0.004 A 
HETATM    9  C   UNL     1      27.018  45.566  53.376  1.00  0.00     0.149 A 
HETATM   10  N   UNL     1      27.755  45.722  54.474  1.00  0.00    -0.180 NA
HETATM   11  N   UNL     1      28.638  44.689  54.451  1.00  0.00    -0.245 N 
HETATM   12  C   UNL     1      28.451  43.909  53.330  1.00  0.00     0.129 A 
BRANCH  11  13
HETATM   13  C   UNL     1      29.593  44.519  55.493  1.00  0.00     0.058 A 
HETATM   14  C   UNL     1      29.638  45.448  56.546  1.00  0.00     0.031 A 
HETATM   15  C   UNL     1      30.565  45.299  57.579  1.00  0.00     0.002 A 
HETATM   16  C   UNL     1      31.454  44.226  57.571  1.00  0.00     0.000 A 
HETATM   17  C   UNL     1      31.417  43.301  56.529  1.00  0.00     0.002 A 
HETATM   18  C   UNL     1      30.490  43.442  55.491  1.00  0.00     0.031 A 
ENDBRANCH  11  13
ENDBRANCH   7   8
ENDBRANCH   1   7
BRANCH   3  19
HETATM   19  C   UNL     1      23.302  46.541  49.108  1.00  0.00     0.144 C 
BRANCH  19  20
HETATM   20  C   UNL     1      23.396  48.039  49.424  1.00  0.00     0.142 C 
BRANCH  20  21
HETATM   21  N   UNL     1      22.102  48.694  49.504  1.00  0.00    -0.355 N 
HETATM   22  C   UNL     1      21.971  50.063  49.534  1.00  0.00     0.254 C 
HETATM   23  O   UNL     1      22.937  50.814  49.627  1.00  0.00    -0.268 OA
HETATM   24  H   UNL     1      21.263  48.148  49.326  1.00  0.00     0.162 HD
BRANCH  22  25
HETATM   25  C   UNL     1      20.584  50.623  49.454  1.00  0.00     0.065 A 
HETATM   26  C   UNL     1      19.463  50.080  50.102  1.00  0.00     0.081 A 
HETATM   27  C   UNL     1      18.203  50.670  49.960  1.00  0.00     0.037 A 
HETATM   28  C   UNL     1      18.050  51.811  49.171  1.00  0.00     0.003 A 
HETATM   29  C   UNL     1      19.151  52.361  48.520  1.00  0.00     0.001 A 
HETATM   30  C   UNL     1      20.408  51.770  48.660  1.00  0.00     0.020 A 
BRANCH  26  31
HETATM   31  O   UNL     1      19.575  48.957  50.882  1.00  0.00    -0.360 OA
HETATM   32  H   UNL     1      20.455  48.564  50.740  1.00  0.00     0.217 HD
ENDBRANCH  26  31
ENDBRANCH  22  25
ENDBRANCH  20  21
ENDBRANCH  19  20
ENDBRANCH   3  19
TORSDOF 8
ENDMDL
MODEL 3
REMARK VINA RESULT:      -9.4      1.925      2.464
REMARK  8 active torsions:
REMARK  status: ('A' for Active; 'I' for Inactive)
REMARK    1  A    between atoms: C_4  and  N_5 
REMARK    2  A    between atoms: C_8  and  C_9 
REMARK    3  A    between atoms: C_9  and  N_10 
REMARK       I    between atoms: N_10  and  C_11 
REMARK       I    between atoms: C_11  and  N_12 
REMARK    4  A    between atoms: N_12  and  C_13 
REMARK    5  A    between atoms: C_13  and  C_14 
REMARK    6  A    between atoms: C_14  and  N_15 
REMARK       I    between atoms: N_15  and  C_16 
REMARK    7  A    between atoms: C_16  and  C_17 
REMARK    8  A    between atoms: C_18  and  O_19 
ROOT
HETATM    1  N   UNL     1      26.003  46.176  50.063  1.00  0.00    -0.339 N 
HETATM    2  C   UNL     1      25.628  47.490  50.031  1.00  0.00     0.316 C 
HETATM    3  N   UNL     1      26.410  48.230  49.192  1.00  0.00    -0.342 N 
HETATM    4  O   UNL     1      24.670  47.938  50.648  1.00  0.00    -0.248 OA
HETATM    5  H   UNL     1      26.950  45.952  49.805  1.00  0.00     0.164 HD
HETATM    6  H   UNL     1      27.306  47.868  48.906  1.00  0.00     0.164 HD
ENDROOT
BRANCH   1   7
HETATM    7  C   UNL     1      25.290  45.252  50.911  1.00  0.00     0.166 C 
BRANCH   7   8
HETATM    8  C   UNL     1      25.981  45.162  52.220  1.00  0.00    -0.004 A 
HETATM    9  C   UNL     1      25.419  45.336  53.499  1.00  0.00     0.149 A 
HETATM   10  N   UNL     1      26.304  45.176  54.481  1.00  0.00    -0.180 NA
HETATM   11  N   UNL     1      27.472  44.876  53.853  1.00  0.00    -0.245 N 
HETATM   12  C   UNL     1      27.304  44.866  52.484  1.00  0.00     0.129 A 
BRANCH  11  13
HETATM   13  C   UNL     1      28.659  44.622  54.597  1.00  0.00     0.058 A 
HETATM   14  C   UNL     1      29.406  43.464  54.329  1.00  0.00     0.031 A 
HETATM   15  C   UNL     1      30.575  43.196  55.045  1.00  0.00     0.002 A 
HETATM   16  C   UNL     1      31.005  44.079  56.032  1.00  0.00     0.000 A 
HETATM   17  C   UNL     1      30.269  45.231  56.305  1.00  0.00     0.002 A 
HETATM   18  C   UNL     1      29.099  45.506  55.591  1.00  0.00     0.031 A 
ENDBRANCH  11  13
ENDBRANCH   7   8
ENDBRANCH   1   7
BRANCH   3  19
HETATM   19  C   UNL     1      26.196  49.657  49.015  1.00  0.00     0.144 C 
BRANCH  19  20
HETATM   20  C   UNL     1      25.398  49.978  47.744  1.00  0.00     0.142 C 
BRANCH  20  21
HETATM   21  N   UNL     1      24.074  50.511  48.013  1.00  0.00    -0.355 N 
HETATM   22  C   UNL     1      22.949  49.720  48.020  1.00  0.00     0.254 C 
HETATM   23  O   UNL     1      22.971  48.544  47.672  1.00  0.00    -0.268 OA
HETATM   24  H   UNL     1      23.991  51.445  48.409  1.00  0.00     0.162 HD
BRANCH  22  25
HETATM   25  C   UNL     1      21.666  50.351  48.468  1.00  0.00     0.065 A 
HETATM   26  C   UNL     1      21.396  50.767  49.781  1.00  0.00     0.081 A 
HETATM   27  C   UNL     1      20.162  51.341  50.106  1.00  0.00     0.037 A 
HETATM   28  C   UNL     1      19.186  51.504  49.123  1.00  0.00     0.003 A 
HETATM   29  C   UNL     1      19.438  51.094  47.816  1.00  0.00     0.001 A 
HETATM   30  C   UNL     1      20.668  50.521  47.492  1.00  0.00     0.020 A 
BRANCH  26  31
HETATM   31  O   UNL     1      22.330  50.618  50.775  1.00  0.00    -0.360 OA
HETATM   32  H   UNL     1      22.051  49.891  51.359  1.00  0.00     0.217 HD
ENDBRANCH  26  31
ENDBRANCH  22  25
ENDBRANCH  20  21
ENDBRANCH  19  20
ENDBRANCH   3  19
TORSDOF 8
ENDMDL
MODEL 4
REMARK VINA RESULT:      -9.4      2.545     10.788
REMARK  8 active torsions:
REMARK  status: ('A' for Active; 'I' for Inactive)
REMARK    1  A    between atoms: C_4  and  N_5 
REMARK    2  A    between atoms: C_8  and  C_9 
REMARK    3  A    between atoms: C_9  and  N_10 
REMARK       I    between atoms: N_10  and  C_11 
REMARK       I    between atoms: C_11  and  N_12 
REMARK    4  A    between atoms: N_12  and  C_13 
REMARK    5  A    between atoms: C_13  and  C_14 
REMARK    6  A    between atoms: C_14  and  N_15 
REMARK       I    between atoms: N_15  and  C_16 
REMARK    7  A    between atoms: C_16  and  C_17 
REMARK    8  A    between atoms: C_18  and  O_19 
ROOT
HETATM    1  N   UNL     1      25.858  46.988  49.942  1.00  0.00    -0.339 N 
HETATM    2  C   UNL     1      26.671  45.904  49.762  1.00  0.00     0.316 C 
HETATM    3  N   UNL     1      26.081  44.741  50.166  1.00  0.00    -0.342 N 
HETATM    4  O   UNL     1      27.783  45.967  49.252  1.00  0.00    -0.248 OA
HETATM    5  H   UNL     1      25.129  46.917  50.633  1.00  0.00     0.164 HD
HETATM    6  H   UNL     1      25.283  44.782  50.781  1.00  0.00     0.164 HD
ENDROOT
BRANCH   1   7
HETATM    7  C   UNL     1      26.330  48.302  49.580  1.00  0.00     0.166 C 
BRANCH   7   8
HETATM    8  C   UNL     1      25.235  49.045  48.913  1.00  0.00    -0.004 A 
HETATM    9  C   UNL     1      25.345  49.964  47.852  1.00  0.00     0.149 A 
HETATM   10  N   UNL     1      24.169  50.454  47.464  1.00  0.00    -0.180 NA
HETATM   11  N   UNL     1      23.255  49.842  48.265  1.00  0.00    -0.245 N 
HETATM   12  C   UNL     1      23.876  48.989  49.153  1.00  0.00     0.129 A 
BRANCH  11  13
HETATM   13  C   UNL     1      21.865  50.113  48.128  1.00  0.00     0.058 A 
HETATM   14  C   UNL     1      21.026  49.143  47.556  1.00  0.00     0.031 A 
HETATM   15  C   UNL     1      19.658  49.387  47.415  1.00  0.00     0.002 A 
HETATM   16  C   UNL     1      19.118  50.599  47.841  1.00  0.00     0.000 A 
HETATM   17  C   UNL     1      19.944  51.568  48.408  1.00  0.00     0.002 A 
HETATM   18  C   UNL     1      21.314  51.330  48.555  1.00  0.00     0.031 A 
ENDBRANCH  11  13
ENDBRANCH   7   8
ENDBRANCH   1   7
BRANCH   3  19
HETATM   19  C   UNL     1      26.773  43.467  50.076  1.00  0.00     0.144 C 
BRANCH  19  20
HETATM   20  C   UNL     1      26.721  42.677  51.390  1.00  0.00     0.142 C 
BRANCH  20  21
HETATM   21  N   UNL     1      27.767  43.048  52.328  1.00  0.00    -0.355 N 
HETATM   22  C   UNL     1      27.599  44.044  53.261  1.00  0.00     0.254 C 
HETATM   23  O   UNL     1      26.610  44.770  53.277  1.00  0.00    -0.268 OA
HETATM   24  H   UNL     1      28.565  42.428  52.445  1.00  0.00     0.162 HD
BRANCH  22  25
HETATM   25  C   UNL     1      28.685  44.226  54.277  1.00  0.00     0.065 A 
HETATM   26  C   UNL     1      28.852  45.371  55.071  1.00  0.00     0.081 A 
HETATM   27  C   UNL     1      29.905  45.453  55.989  1.00  0.00     0.037 A 
HETATM   28  C   UNL     1      30.801  44.391  56.123  1.00  0.00     0.003 A 
HETATM   29  C   UNL     1      30.649  43.249  55.340  1.00  0.00     0.001 A 
HETATM   30  C   UNL     1      29.600  43.169  54.423  1.00  0.00     0.020 A 
BRANCH  26  31
HETATM   31  O   UNL     1      27.994  46.436  54.964  1.00  0.00    -0.360 OA
HETATM   32  H   UNL     1      28.121  47.018  55.735  1.00  0.00     0.217 HD
ENDBRANCH  26  31
ENDBRANCH  22  25
ENDBRANCH  20  21
ENDBRANCH  19  20
ENDBRANCH   3  19
TORSDOF 8
ENDMDL
MODEL 5
REMARK VINA RESULT:      -9.1     12.308     13.347
REMARK  8 active torsions:
REMARK  status: ('A' for Active; 'I' for Inactive)
REMARK    1  A    between atoms: C_4  and  N_5 
REMARK    2  A    between atoms: C_8  and  C_9 
REMARK    3  A    between atoms: C_9  and  N_10 
REMARK       I    between atoms: N_10  and  C_11 
REMARK       I    between atoms: C_11  and  N_12 
REMARK    4  A    between atoms: N_12  and  C_13 
REMARK    5  A    between atoms: C_13  and  C_14 
REMARK    6  A    between atoms: C_14  and  N_15 
REMARK       I    between atoms: N_15  and  C_16 
REMARK    7  A    between atoms: C_16  and  C_17 
REMARK    8  A    between atoms: C_18  and  O_19 
ROOT
HETATM    1  N   UNL     1      27.487  46.286  38.943  1.00  0.00    -0.339 N 
HETATM    2  C   UNL     1      26.526  47.081  39.501  1.00  0.00     0.316 C 
HETATM    3  N   UNL     1      25.511  47.355  38.630  1.00  0.00    -0.342 N 
HETATM    4  O   UNL     1      26.551  47.462  40.665  1.00  0.00    -0.248 OA
HETATM    5  H   UNL     1      27.568  46.283  37.939  1.00  0.00     0.164 HD
HETATM    6  H   UNL     1      25.660  47.218  37.643  1.00  0.00     0.164 HD
ENDROOT
BRANCH   1   7
HETATM    7  C   UNL     1      28.642  45.910  39.722  1.00  0.00     0.166 C 
BRANCH   7   8
HETATM    8  C   UNL     1      29.583  47.054  39.779  1.00  0.00    -0.004 A 
HETATM    9  C   UNL     1      30.165  47.740  38.697  1.00  0.00     0.149 A 
HETATM   10  N   UNL     1      30.961  48.736  39.081  1.00  0.00    -0.180 NA
HETATM   11  N   UNL     1      30.900  48.728  40.439  1.00  0.00    -0.245 N 
HETATM   12  C   UNL     1      30.077  47.716  40.887  1.00  0.00     0.129 A 
BRANCH  11  13
HETATM   13  C   UNL     1      31.627  49.679  41.211  1.00  0.00     0.058 A 
HETATM   14  C   UNL     1      31.473  49.696  42.606  1.00  0.00     0.031 A 
HETATM   15  C   UNL     1      32.179  50.618  43.382  1.00  0.00     0.002 A 
HETATM   16  C   UNL     1      33.039  51.529  42.773  1.00  0.00     0.000 A 
HETATM   17  C   UNL     1      33.196  51.519  41.388  1.00  0.00     0.002 A 
HETATM   18  C   UNL     1      32.494  50.597  40.605  1.00  0.00     0.031 A 
ENDBRANCH  11  13
ENDBRANCH   7   8
ENDBRANCH   1   7
BRANCH   3  19
HETATM   19  C   UNL     1      24.388  48.195  39.012  1.00  0.00     0.144 C 
BRANCH  19  20
HETATM   20  C   UNL     1      24.588  49.661  38.609  1.00  0.00     0.142 C 
BRANCH  20  21
HETATM   21  N   UNL     1      25.640  50.327  39.359  1.00  0.00    -0.355 N 
HETATM   22  C   UNL     1      26.904  50.509  38.849  1.00  0.00     0.254 C 
HETATM   23  O   UNL     1      27.263  50.008  37.788  1.00  0.00    -0.268 OA
HETATM   24  H   UNL     1      25.391  50.855  40.191  1.00  0.00     0.162 HD
BRANCH  22  25
HETATM   25  C   UNL     1      27.854  51.349  39.647  1.00  0.00     0.065 A 
HETATM   26  C   UNL     1      28.045  51.241  41.033  1.00  0.00     0.081 A 
HETATM   27  C   UNL     1      28.951  52.077  41.694  1.00  0.00     0.037 A 
HETATM   28  C   UNL     1      29.675  53.030  40.976  1.00  0.00     0.003 A 
HETATM   29  C   UNL     1      29.495  53.151  39.601  1.00  0.00     0.001 A 
HETATM   30  C   UNL     1      28.589  52.318  38.942  1.00  0.00     0.020 A 
BRANCH  26  31
HETATM   31  O   UNL     1      27.348  50.319  41.772  1.00  0.00    -0.360 OA
HETATM   32  H   UNL     1      27.633  49.426  41.507  1.00  0.00     0.217 HD
ENDBRANCH  26  31
ENDBRANCH  22  25
ENDBRANCH  20  21
ENDBRANCH  19  20
ENDBRANCH   3  19
TORSDOF 8
ENDMDL
MODEL 6
REMARK VINA RESULT:      -8.9      2.601     10.534
REMARK  8 active torsions:
REMARK  status: ('A' for Active; 'I' for Inactive)
REMARK    1  A    between atoms: C_4  and  N_5 
REMARK    2  A    between atoms: C_8  and  C_9 
REMARK    3  A    between atoms: C_9  and  N_10 
REMARK       I    between atoms: N_10  and  C_11 
REMARK       I    between atoms: C_11  and  N_12 
REMARK    4  A    between atoms: N_12  and  C_13 
REMARK    5  A    between atoms: C_13  and  C_14 
REMARK    6  A    between atoms: C_14  and  N_15 
REMARK       I    between atoms: N_15  and  C_16 
REMARK    7  A    between atoms: C_16  and  C_17 
REMARK    8  A    between atoms: C_18  and  O_19 
ROOT
HETATM    1  N   UNL     1      26.007  45.239  51.102  1.00  0.00    -0.339 N 
HETATM    2  C   UNL     1      26.574  44.084  50.638  1.00  0.00     0.316 C 
HETATM    3  N   UNL     1      26.360  43.030  51.478  1.00  0.00    -0.342 N 
HETATM    4  O   UNL     1      27.163  44.000  49.568  1.00  0.00    -0.248 OA
HETATM    5  H   UNL     1      25.834  45.311  52.091  1.00  0.00     0.164 HD
HETATM    6  H   UNL     1      26.085  43.207  52.431  1.00  0.00     0.164 HD
ENDROOT
BRANCH   1   7
HETATM    7  C   UNL     1      26.149  46.457  50.343  1.00  0.00     0.166 C 
BRANCH   7   8
HETATM    8  C   UNL     1      24.833  46.825  49.767  1.00  0.00    -0.004 A 
HETATM    9  C   UNL     1      23.818  45.957  49.323  1.00  0.00     0.149 A 
HETATM   10  N   UNL     1      22.745  46.601  48.868  1.00  0.00    -0.180 NA
HETATM   11  N   UNL     1      23.038  47.920  49.023  1.00  0.00    -0.245 N 
HETATM   12  C   UNL     1      24.297  48.082  49.560  1.00  0.00     0.129 A 
BRANCH  11  13
HETATM   13  C   UNL     1      22.102  48.926  48.650  1.00  0.00     0.058 A 
HETATM   14  C   UNL     1      22.312  50.250  49.066  1.00  0.00     0.031 A 
HETATM   15  C   UNL     1      21.409  51.254  48.709  1.00  0.00     0.002 A 
HETATM   16  C   UNL     1      20.291  50.944  47.938  1.00  0.00     0.000 A 
HETATM   17  C   UNL     1      20.075  49.631  47.522  1.00  0.00     0.002 A 
HETATM   18  C   UNL     1      20.976  48.621  47.873  1.00  0.00     0.031 A 
ENDBRANCH  11  13
ENDBRANCH   7   8
ENDBRANCH   1   7
BRANCH   3  19
HETATM   19  C   UNL     1      26.887  41.707  51.185  1.00  0.00     0.144 C 
BRANCH  19  20
HETATM   20  C   UNL     1      27.928  41.248  52.214  1.00  0.00     0.142 C 
BRANCH  20  21
HETATM   21  N   UNL     1      28.145  42.209  53.283  1.00  0.00    -0.355 N 
HETATM   22  C   UNL     1      29.380  42.753  53.543  1.00  0.00     0.254 C 
HETATM   23  O   UNL     1      30.400  42.367  52.980  1.00  0.00    -0.268 OA
HETATM   24  H   UNL     1      27.338  42.651  53.717  1.00  0.00     0.162 HD
BRANCH  22  25
HETATM   25  C   UNL     1      29.449  43.849  54.562  1.00  0.00     0.065 A 
HETATM   26  C   UNL     1      28.545  44.921  54.644  1.00  0.00     0.081 A 
HETATM   27  C   UNL     1      28.695  45.904  55.628  1.00  0.00     0.037 A 
HETATM   28  C   UNL     1      29.750  45.827  56.539  1.00  0.00     0.003 A 
HETATM   29  C   UNL     1      30.656  44.771  56.468  1.00  0.00     0.001 A 
HETATM   30  C   UNL     1      30.507  43.792  55.486  1.00  0.00     0.020 A 
BRANCH  26  31
HETATM   31  O   UNL     1      27.499  45.032  53.763  1.00  0.00    -0.360 OA
HETATM   32  H   UNL     1      27.086  45.906  53.878  1.00  0.00     0.217 HD
ENDBRANCH  26  31
ENDBRANCH  22  25
ENDBRANCH  20  21
ENDBRANCH  19  20
ENDBRANCH   3  19
TORSDOF 8
ENDMDL
MODEL 7
REMARK VINA RESULT:      -8.9      2.144     11.442
REMARK  8 active torsions:
REMARK  status: ('A' for Active; 'I' for Inactive)
REMARK    1  A    between atoms: C_4  and  N_5 
REMARK    2  A    between atoms: C_8  and  C_9 
REMARK    3  A    between atoms: C_9  and  N_10 
REMARK       I    between atoms: N_10  and  C_11 
REMARK       I    between atoms: C_11  and  N_12 
REMARK    4  A    between atoms: N_12  and  C_13 
REMARK    5  A    between atoms: C_13  and  C_14 
REMARK    6  A    between atoms: C_14  and  N_15 
REMARK       I    between atoms: N_15  and  C_16 
REMARK    7  A    between atoms: C_16  and  C_17 
REMARK    8  A    between atoms: C_18  and  O_19 
ROOT
HETATM    1  N   UNL     1      23.094  46.000  49.540  1.00  0.00    -0.339 N 
HETATM    2  C   UNL     1      24.344  46.046  50.093  1.00  0.00     0.316 C 
HETATM    3  N   UNL     1      24.374  45.511  51.348  1.00  0.00    -0.342 N 
HETATM    4  O   UNL     1      25.330  46.475  49.507  1.00  0.00    -0.248 OA
HETATM    5  H   UNL     1      22.307  45.942  50.165  1.00  0.00     0.164 HD
HETATM    6  H   UNL     1      23.510  45.397  51.856  1.00  0.00     0.164 HD
ENDROOT
BRANCH   1   7
HETATM    7  C   UNL     1      22.879  46.537  48.218  1.00  0.00     0.166 C 
BRANCH   7   8
HETATM    8  C   UNL     1      22.324  47.906  48.335  1.00  0.00    -0.004 A 
HETATM    9  C   UNL     1      22.975  49.122  48.055  1.00  0.00     0.149 A 
HETATM   10  N   UNL     1      22.197  50.186  48.247  1.00  0.00    -0.180 NA
HETATM   11  N   UNL     1      21.001  49.675  48.646  1.00  0.00    -0.245 N 
HETATM   12  C   UNL     1      21.054  48.298  48.712  1.00  0.00     0.129 A 
BRANCH  11  13
HETATM   13  C   UNL     1      19.900  50.530  48.936  1.00  0.00     0.058 A 
HETATM   14  C   UNL     1      19.836  51.797  48.335  1.00  0.00     0.031 A 
HETATM   15  C   UNL     1      18.763  52.651  48.603  1.00  0.00     0.002 A 
HETATM   16  C   UNL     1      17.751  52.248  49.471  1.00  0.00     0.000 A 
HETATM   17  C   UNL     1      17.808  50.992  50.072  1.00  0.00     0.002 A 
HETATM   18  C   UNL     1      18.878  50.131  49.807  1.00  0.00     0.031 A 
ENDBRANCH  11  13
ENDBRANCH   7   8
ENDBRANCH   1   7
BRANCH   3  19
HETATM   19  C   UNL     1      25.600  45.469  52.127  1.00  0.00     0.144 C 
BRANCH  19  20
HETATM   20  C   UNL     1      25.795  44.127  52.843  1.00  0.00     0.142 C 
BRANCH  20  21
HETATM   21  N   UNL     1      26.826  44.163  53.867  1.00  0.00    -0.355 N 
HETATM   22  C   UNL     1      28.159  43.991  53.576  1.00  0.00     0.254 C 
HETATM   23  O   UNL     1      28.551  43.665  52.460  1.00  0.00    -0.268 OA
HETATM   24  H   UNL     1      26.591  44.529  54.787  1.00  0.00     0.162 HD
BRANCH  22  25
HETATM   25  C   UNL     1      29.139  44.210  54.687  1.00  0.00     0.065 A 
HETATM   26  C   UNL     1      29.221  45.377  55.463  1.00  0.00     0.081 A 
HETATM   27  C   UNL     1      30.178  45.492  56.477  1.00  0.00     0.037 A 
HETATM   28  C   UNL     1      31.064  44.442  56.725  1.00  0.00     0.003 A 
HETATM   29  C   UNL     1      30.997  43.279  55.962  1.00  0.00     0.001 A 
HETATM   30  C   UNL     1      30.043  43.165  54.950  1.00  0.00     0.020 A 
BRANCH  26  31
HETATM   31  O   UNL     1      28.370  46.431  55.244  1.00  0.00    -0.360 OA
HETATM   32  H   UNL     1      28.094  46.421  54.311  1.00  0.00     0.217 HD
ENDBRANCH  26  31
ENDBRANCH  22  25
ENDBRANCH  20  21
ENDBRANCH  19  20
ENDBRANCH   3  19
TORSDOF 8
ENDMDL
MODEL 8
REMARK VINA RESULT:      -8.8      4.244      5.101
REMARK  8 active torsions:
REMARK  status: ('A' for Active; 'I' for Inactive)
REMARK    1  A    between atoms: C_4  and  N_5 
REMARK    2  A    between atoms: C_8  and  C_9 
REMARK    3  A    between atoms: C_9  and  N_10 
REMARK       I    between atoms: N_10  and  C_11 
REMARK       I    between atoms: C_11  and  N_12 
REMARK    4  A    between atoms: N_12  and  C_13 
REMARK    5  A    between atoms: C_13  and  C_14 
REMARK    6  A    between atoms: C_14  and  N_15 
REMARK       I    between atoms: N_15  and  C_16 
REMARK    7  A    between atoms: C_16  and  C_17 
REMARK    8  A    between atoms: C_18  and  O_19 
ROOT
HETATM    1  N   UNL     1      27.597  41.584  49.953  1.00  0.00    -0.339 N 
HETATM    2  C   UNL     1      26.242  41.700  49.811  1.00  0.00     0.316 C 
HETATM    3  N   UNL     1      25.893  42.243  48.608  1.00  0.00    -0.342 N 
HETATM    4  O   UNL     1      25.436  41.316  50.649  1.00  0.00    -0.248 OA
HETATM    5  H   UNL     1      28.180  42.189  49.399  1.00  0.00     0.164 HD
HETATM    6  H   UNL     1      26.586  42.747  48.076  1.00  0.00     0.164 HD
ENDROOT
BRANCH   1   7
HETATM    7  C   UNL     1      28.141  41.040  51.174  1.00  0.00     0.166 C 
BRANCH   7   8
HETATM    8  C   UNL     1      28.511  42.155  52.079  1.00  0.00    -0.004 A 
HETATM    9  C   UNL     1      28.287  43.530  51.880  1.00  0.00     0.149 A 
HETATM   10  N   UNL     1      28.728  44.280  52.889  1.00  0.00    -0.180 NA
HETATM   11  N   UNL     1      29.240  43.393  53.784  1.00  0.00    -0.245 N 
HETATM   12  C   UNL     1      29.125  42.102  53.315  1.00  0.00     0.129 A 
BRANCH  11  13
HETATM   13  C   UNL     1      29.800  43.837  55.016  1.00  0.00     0.058 A 
HETATM   14  C   UNL     1      30.767  43.047  55.658  1.00  0.00     0.031 A 
HETATM   15  C   UNL     1      31.331  43.464  56.865  1.00  0.00     0.002 A 
HETATM   16  C   UNL     1      30.935  44.669  57.440  1.00  0.00     0.000 A 
HETATM   17  C   UNL     1      29.974  45.459  56.810  1.00  0.00     0.002 A 
HETATM   18  C   UNL     1      29.406  45.049  55.600  1.00  0.00     0.031 A 
ENDBRANCH  11  13
ENDBRANCH   7   8
ENDBRANCH   1   7
BRANCH   3  19
HETATM   19  C   UNL     1      24.503  42.470  48.251  1.00  0.00     0.144 C 
BRANCH  19  20
HETATM   20  C   UNL     1      23.967  43.801  48.793  1.00  0.00     0.142 C 
BRANCH  20  21
HETATM   21  N   UNL     1      24.494  44.145  50.102  1.00  0.00    -0.355 N 
HETATM   22  C   UNL     1      24.898  45.420  50.422  1.00  0.00     0.254 C 
HETATM   23  O   UNL     1      24.964  46.317  49.586  1.00  0.00    -0.268 OA
HETATM   24  H   UNL     1      24.372  43.488  50.869  1.00  0.00     0.162 HD
BRANCH  22  25
HETATM   25  C   UNL     1      25.270  45.688  51.847  1.00  0.00     0.065 A 
HETATM   26  C   UNL     1      25.177  44.750  52.888  1.00  0.00     0.081 A 
HETATM   27  C   UNL     1      25.541  45.096  54.193  1.00  0.00     0.037 A 
HETATM   28  C   UNL     1      26.003  46.383  54.472  1.00  0.00     0.003 A 
HETATM   29  C   UNL     1      26.100  47.325  53.452  1.00  0.00     0.001 A 
HETATM   30  C   UNL     1      25.734  46.980  52.150  1.00  0.00     0.020 A 
BRANCH  26  31
HETATM   31  O   UNL     1      24.722  43.477  52.651  1.00  0.00    -0.360 OA
HETATM   32  H   UNL     1      23.752  43.501  52.575  1.00  0.00     0.217 HD
ENDBRANCH  26  31
ENDBRANCH  22  25
ENDBRANCH  20  21
ENDBRANCH  19  20
ENDBRANCH   3  19
TORSDOF 8
ENDMDL
MODEL 9
REMARK VINA RESULT:      -8.6     12.023     15.100
REMARK  8 active torsions:
REMARK  status: ('A' for Active; 'I' for Inactive)
REMARK    1  A    between atoms: C_4  and  N_5 
REMARK    2  A    between atoms: C_8  and  C_9 
REMARK    3  A    between atoms: C_9  and  N_10 
REMARK       I    between atoms: N_10  and  C_11 
REMARK       I    between atoms: C_11  and  N_12 
REMARK    4  A    between atoms: N_12  and  C_13 
REMARK    5  A    between atoms: C_13  and  C_14 
REMARK    6  A    between atoms: C_14  and  N_15 
REMARK       I    between atoms: N_15  and  C_16 
REMARK    7  A    between atoms: C_16  and  C_17 
REMARK    8  A    between atoms: C_18  and  O_19 
ROOT
HETATM    1  N   UNL     1      30.628  53.427  40.575  1.00  0.00    -0.339 N 
HETATM    2  C   UNL     1      30.617  52.658  41.704  1.00  0.00     0.316 C 
HETATM    3  N   UNL     1      31.867  52.483  42.224  1.00  0.00    -0.342 N 
HETATM    4  O   UNL     1      29.595  52.218  42.216  1.00  0.00    -0.248 OA
HETATM    5  H   UNL     1      31.486  53.477  40.050  1.00  0.00     0.164 HD
HETATM    6  H   UNL     1      32.671  52.661  41.642  1.00  0.00     0.164 HD
ENDROOT
BRANCH   1   7
HETATM    7  C   UNL     1      29.390  53.702  39.887  1.00  0.00     0.166 C 
BRANCH   7   8
HETATM    8  C   UNL     1      28.931  52.469  39.202  1.00  0.00    -0.004 A 
HETATM    9  C   UNL     1      29.583  51.769  38.170  1.00  0.00     0.149 A 
HETATM   10  N   UNL     1      28.917  50.685  37.775  1.00  0.00    -0.180 NA
HETATM   11  N   UNL     1      27.810  50.650  38.565  1.00  0.00    -0.245 N 
HETATM   12  C   UNL     1      27.793  51.721  39.433  1.00  0.00     0.129 A 
BRANCH  11  13
HETATM   13  C   UNL     1      26.852  49.604  38.436  1.00  0.00     0.058 A 
HETATM   14  C   UNL     1      27.081  48.570  37.515  1.00  0.00     0.031 A 
HETATM   15  C   UNL     1      26.157  47.533  37.374  1.00  0.00     0.002 A 
HETATM   16  C   UNL     1      24.998  47.521  38.147  1.00  0.00     0.000 A 
HETATM   17  C   UNL     1      24.763  48.546  39.063  1.00  0.00     0.002 A 
HETATM   18  C   UNL     1      25.685  49.586  39.211  1.00  0.00     0.031 A 
ENDBRANCH  11  13
ENDBRANCH   7   8
ENDBRANCH   1   7
BRANCH   3  19
HETATM   19  C   UNL     1      32.089  51.687  43.419  1.00  0.00     0.144 C 
BRANCH  19  20
HETATM   20  C   UNL     1      32.442  50.229  43.096  1.00  0.00     0.142 C 
BRANCH  20  21
HETATM   21  N   UNL     1      31.304  49.445  42.649  1.00  0.00    -0.355 N 
HETATM   22  C   UNL     1      31.069  49.180  41.320  1.00  0.00     0.254 C 
HETATM   23  O   UNL     1      31.726  49.696  40.421  1.00  0.00    -0.268 OA
HETATM   24  H   UNL     1      30.782  48.902  43.333  1.00  0.00     0.162 HD
BRANCH  22  25
HETATM   25  C   UNL     1      29.959  48.229  40.994  1.00  0.00     0.065 A 
HETATM   26  C   UNL     1      28.672  48.280  41.551  1.00  0.00     0.081 A 
HETATM   27  C   UNL     1      27.701  47.340  41.189  1.00  0.00     0.037 A 
HETATM   28  C   UNL     1      28.007  46.339  40.266  1.00  0.00     0.003 A 
HETATM   29  C   UNL     1      29.280  46.273  39.706  1.00  0.00     0.001 A 
HETATM   30  C   UNL     1      30.249  47.210  40.069  1.00  0.00     0.020 A 
BRANCH  26  31
HETATM   31  O   UNL     1      28.337  49.247  42.465  1.00  0.00    -0.360 OA
HETATM   32  H   UNL     1      27.944  48.817  43.245  1.00  0.00     0.217 HD
ENDBRANCH  26  31
ENDBRANCH  22  25
ENDBRANCH  20  21
ENDBRANCH  19  20
ENDBRANCH   3  19
TORSDOF 8
ENDMDL
MODEL 10
REMARK VINA RESULT:      -8.4      1.765      2.480
REMARK  8 active torsions:
REMARK  status: ('A' for Active; 'I' for Inactive)
REMARK    1  A    between atoms: C_4  and  N_5 
REMARK    2  A    between atoms: C_8  and  C_9 
REMARK    3  A    between atoms: C_9  and  N_10 
REMARK       I    between atoms: N_10  and  C_11 
REMARK       I    between atoms: C_11  and  N_12 
REMARK    4  A    between atoms: N_12  and  C_13 
REMARK    5  A    between atoms: C_13  and  C_14 
REMARK    6  A    between atoms: C_14  and  N_15 
REMARK       I    between atoms: N_15  and  C_16 
REMARK    7  A    between atoms: C_16  and  C_17 
REMARK    8  A    between atoms: C_18  and  O_19 
ROOT
HETATM    1  N   UNL     1      24.154  44.569  50.884  1.00  0.00    -0.339 N 
HETATM    2  C   UNL     1      24.375  45.560  49.968  1.00  0.00     0.316 C 
HETATM    3  N   UNL     1      23.286  46.367  49.806  1.00  0.00    -0.342 N 
HETATM    4  O   UNL     1      25.445  45.729  49.396  1.00  0.00    -0.248 OA
HETATM    5  H   UNL     1      23.201  44.299  51.061  1.00  0.00     0.164 HD
HETATM    6  H   UNL     1      22.383  46.042  50.114  1.00  0.00     0.164 HD
ENDROOT
BRANCH   1   7
HETATM    7  C   UNL     1      25.198  43.616  51.168  1.00  0.00     0.166 C 
BRANCH   7   8
HETATM    8  C   UNL     1      25.941  44.054  52.375  1.00  0.00    -0.004 A 
HETATM    9  C   UNL     1      25.449  44.807  53.457  1.00  0.00     0.149 A 
HETATM   10  N   UNL     1      26.366  45.027  54.397  1.00  0.00    -0.180 NA
HETATM   11  N   UNL     1      27.485  44.398  53.946  1.00  0.00    -0.245 N 
HETATM   12  C   UNL     1      27.255  43.807  52.722  1.00  0.00     0.129 A 
BRANCH  11  13
HETATM   13  C   UNL     1      28.687  44.407  54.709  1.00  0.00     0.058 A 
HETATM   14  C   UNL     1      29.560  43.310  54.633  1.00  0.00     0.031 A 
HETATM   15  C   UNL     1      30.746  43.299  55.370  1.00  0.00     0.002 A 
HETATM   16  C   UNL     1      31.069  44.379  56.188  1.00  0.00     0.000 A 
HETATM   17  C   UNL     1      30.207  45.472  56.271  1.00  0.00     0.002 A 
HETATM   18  C   UNL     1      29.019  45.491  55.534  1.00  0.00     0.031 A 
ENDBRANCH  11  13
ENDBRANCH   7   8
ENDBRANCH   1   7
BRANCH   3  19
HETATM   19  C   UNL     1      23.297  47.478  48.869  1.00  0.00     0.144 C 
BRANCH  19  20
HETATM   20  C   UNL     1      22.140  47.410  47.864  1.00  0.00     0.142 C 
BRANCH  20  21
HETATM   21  N   UNL     1      21.321  48.610  47.845  1.00  0.00    -0.355 N 
HETATM   22  C   UNL     1      20.214  48.758  48.647  1.00  0.00     0.254 C 
HETATM   23  O   UNL     1      19.770  47.841  49.331  1.00  0.00    -0.268 OA
HETATM   24  H   UNL     1      21.682  49.444  47.387  1.00  0.00     0.162 HD
BRANCH  22  25
HETATM   25  C   UNL     1      19.545  50.099  48.657  1.00  0.00     0.065 A 
HETATM   26  C   UNL     1      19.152  50.804  47.508  1.00  0.00     0.081 A 
HETATM   27  C   UNL     1      18.540  52.057  47.618  1.00  0.00     0.037 A 
HETATM   28  C   UNL     1      18.314  52.618  48.876  1.00  0.00     0.003 A 
HETATM   29  C   UNL     1      18.700  51.932  50.024  1.00  0.00     0.001 A 
HETATM   30  C   UNL     1      19.312  50.682  49.915  1.00  0.00     0.020 A 
BRANCH  26  31
HETATM   31  O   UNL     1      19.363  50.286  46.255  1.00  0.00    -0.360 OA
HETATM   32  H   UNL     1      20.052  49.601  46.313  1.00  0.00     0.217 HD
ENDBRANCH  26  31
ENDBRANCH  22  25
ENDBRANCH  20  21
ENDBRANCH  19  20
ENDBRANCH   3  19
TORSDOF 8
ENDMDL
