MODEL 1
REMARK VINA RESULT:      -7.8      0.000      0.000
REMARK  4 active torsions:
REMARK  status: ('A' for Active; 'I' for Inactive)
REMARK    1  A    between atoms: N_4  and  C_5 
REMARK    2  A    between atoms: C_13  and  C_14 
REMARK    3  A    between atoms: N_15  and  C_17 
REMARK    4  A    between atoms: C_17  and  C_18 
ROOT
HETATM    1  C   UNL     1      26.839  42.980  49.404  1.00  0.00     0.095 C 
HETATM    2  C   UNL     1      26.397  44.232  50.053  1.00  0.00     0.144 A 
HETATM    3  N   UNL     1      25.899  44.277  51.292  1.00  0.00    -0.156 NA
HETATM    4  N   UNL     1      25.728  45.596  51.495  1.00  0.00    -0.247 N 
HETATM    5  C   UNL     1      26.069  46.301  50.368  1.00  0.00     0.156 A 
HETATM    6  N   UNL     1      26.468  45.451  49.438  1.00  0.00    -0.215 NA
ENDROOT
BRANCH   5   7
HETATM    7  C   UNL     1      26.063  47.791  50.175  1.00  0.00     0.259 C 
HETATM    8  N   UNL     1      24.920  48.184  49.232  1.00  0.00    -0.056 N 
HETATM    9  H   UNL     1      25.041  47.526  48.445  1.00  0.00     0.281 HD
HETATM   10  C   UNL     1      24.981  49.561  48.630  1.00  0.00     0.236 C 
HETATM   11  C   UNL     1      26.334  49.810  47.994  1.00  0.00     0.028 C 
HETATM   12  C   UNL     1      27.442  49.613  49.014  1.00  0.00     0.004 C 
HETATM   13  C   UNL     1      27.413  48.190  49.546  1.00  0.00     0.041 C 
BRANCH   8  14
HETATM   14  C   UNL     1      23.522  47.845  49.745  1.00  0.00     0.274 C 
BRANCH  14  15
HETATM   15  C   UNL     1      22.397  47.782  48.738  1.00  0.00    -0.033 A 
HETATM   16  C   UNL     1      22.288  46.763  47.781  1.00  0.00     0.009 A 
HETATM   17  C   UNL     1      21.208  46.717  46.895  1.00  0.00     0.001 A 
HETATM   18  C   UNL     1      20.200  47.672  46.972  1.00  0.00     0.000 A 
HETATM   19  C   UNL     1      20.269  48.672  47.936  1.00  0.00     0.001 A 
HETATM   20  C   UNL     1      21.359  48.729  48.810  1.00  0.00     0.009 A 
ENDBRANCH  14  15
ENDBRANCH   8  14
ENDBRANCH   5   7
BRANCH   4  21
HETATM   21  C   UNL     1      25.220  46.045  52.788  1.00  0.00     0.115 C 
HETATM   22  C   UNL     1      25.965  47.274  53.338  1.00  0.00     0.055 C 
HETATM   23  C   UNL     1      27.336  46.963  53.937  1.00  0.00     0.236 C 
HETATM   24  N   UNL     1      27.229  45.839  54.939  1.00  0.00    -0.075 N 
HETATM   25  H   UNL     1      26.649  46.163  55.726  1.00  0.00     0.279 HD
HETATM   26  C   UNL     1      28.584  45.529  55.541  1.00  0.00     0.269 C 
HETATM   27  C   UNL     1      26.606  44.594  54.366  1.00  0.00     0.236 C 
HETATM   28  C   UNL     1      25.220  44.915  53.823  1.00  0.00     0.055 C 
ENDBRANCH   4  21
TORSDOF 4
ENDMDL
MODEL 2
REMARK VINA RESULT:      -7.6      2.823      6.267
REMARK  4 active torsions:
REMARK  status: ('A' for Active; 'I' for Inactive)
REMARK    1  A    between atoms: N_4  and  C_5 
REMARK    2  A    between atoms: C_13  and  C_14 
REMARK    3  A    between atoms: N_15  and  C_17 
REMARK    4  A    between atoms: C_17  and  C_18 
ROOT
HETATM    1  C   UNL     1      26.914  48.547  49.252  1.00  0.00     0.095 C 
HETATM    2  C   UNL     1      26.463  47.507  50.200  1.00  0.00     0.144 A 
HETATM    3  N   UNL     1      26.252  47.744  51.498  1.00  0.00    -0.156 NA
HETATM    4  N   UNL     1      25.773  46.567  51.940  1.00  0.00    -0.247 N 
HETATM    5  C   UNL     1      25.761  45.645  50.924  1.00  0.00     0.156 A 
HETATM    6  N   UNL     1      26.220  46.216  49.824  1.00  0.00    -0.215 NA
ENDROOT
BRANCH   5   7
HETATM    7  C   UNL     1      25.271  44.225  50.972  1.00  0.00     0.259 C 
HETATM    8  N   UNL     1      26.021  43.386  49.931  1.00  0.00    -0.056 N 
HETATM    9  H   UNL     1      25.948  43.966  49.080  1.00  0.00     0.281 HD
HETATM   10  C   UNL     1      25.420  42.054  49.574  1.00  0.00     0.236 C 
HETATM   11  C   UNL     1      23.955  42.204  49.215  1.00  0.00     0.028 C 
HETATM   12  C   UNL     1      23.194  42.855  50.356  1.00  0.00     0.004 C 
HETATM   13  C   UNL     1      23.765  44.234  50.642  1.00  0.00     0.041 C 
BRANCH   8  14
HETATM   14  C   UNL     1      27.529  43.293  50.150  1.00  0.00     0.274 C 
BRANCH  14  15
HETATM   15  C   UNL     1      28.018  42.782  51.486  1.00  0.00    -0.033 A 
HETATM   16  C   UNL     1      27.365  41.765  52.197  1.00  0.00     0.009 A 
HETATM   17  C   UNL     1      27.874  41.291  53.410  1.00  0.00     0.001 A 
HETATM   18  C   UNL     1      29.064  41.803  53.915  1.00  0.00     0.000 A 
HETATM   19  C   UNL     1      29.747  42.788  53.210  1.00  0.00     0.001 A 
HETATM   20  C   UNL     1      29.228  43.276  52.007  1.00  0.00     0.009 A 
ENDBRANCH  14  15
ENDBRANCH   8  14
ENDBRANCH   5   7
BRANCH   4  21
HETATM   21  C   UNL     1      25.385  46.451  53.342  1.00  0.00     0.115 C 
HETATM   22  C   UNL     1      25.869  47.629  54.205  1.00  0.00     0.055 C 
HETATM   23  C   UNL     1      27.352  47.577  54.566  1.00  0.00     0.236 C 
HETATM   24  N   UNL     1      27.704  46.231  55.154  1.00  0.00    -0.075 N 
HETATM   25  H   UNL     1      27.197  46.126  56.044  1.00  0.00     0.279 HD
HETATM   26  C   UNL     1      29.173  46.175  55.520  1.00  0.00     0.269 C 
HETATM   27  C   UNL     1      27.337  45.081  54.255  1.00  0.00     0.236 C 
HETATM   28  C   UNL     1      25.845  45.121  53.950  1.00  0.00     0.055 C 
ENDBRANCH   4  21
TORSDOF 4
ENDMDL
MODEL 3
REMARK VINA RESULT:      -7.5     10.437     12.647
REMARK  4 active torsions:
REMARK  status: ('A' for Active; 'I' for Inactive)
REMARK    1  A    between atoms: N_4  and  C_5 
REMARK    2  A    between atoms: C_13  and  C_14 
REMARK    3  A    between atoms: N_15  and  C_17 
REMARK    4  A    between atoms: C_17  and  C_18 
ROOT
HETATM    1  C   UNL     1      32.362  52.214  45.010  1.00  0.00     0.095 C 
HETATM    2  C   UNL     1      31.899  51.925  43.636  1.00  0.00     0.144 A 
HETATM    3  N   UNL     1      32.588  51.168  42.777  1.00  0.00    -0.156 NA
HETATM    4  N   UNL     1      31.765  51.102  41.715  1.00  0.00    -0.247 N 
HETATM    5  C   UNL     1      30.641  51.858  41.934  1.00  0.00     0.156 A 
HETATM    6  N   UNL     1      30.723  52.407  43.134  1.00  0.00    -0.215 NA
ENDROOT
BRANCH   5   7
HETATM    7  C   UNL     1      29.454  52.031  41.028  1.00  0.00     0.259 C 
HETATM    8  N   UNL     1      29.094  50.686  40.388  1.00  0.00    -0.056 N 
HETATM    9  H   UNL     1      30.007  50.349  40.043  1.00  0.00     0.281 HD
HETATM   10  C   UNL     1      28.189  50.728  39.187  1.00  0.00     0.236 C 
HETATM   11  C   UNL     1      28.709  51.710  38.157  1.00  0.00     0.028 C 
HETATM   12  C   UNL     1      28.861  53.090  38.771  1.00  0.00     0.004 C 
HETATM   13  C   UNL     1      29.844  53.040  39.929  1.00  0.00     0.041 C 
BRANCH   8  14
HETATM   14  C   UNL     1      28.682  49.597  41.377  1.00  0.00     0.274 C 
BRANCH  14  15
HETATM   15  C   UNL     1      28.602  48.175  40.868  1.00  0.00    -0.033 A 
HETATM   16  C   UNL     1      27.431  47.407  40.940  1.00  0.00     0.009 A 
HETATM   17  C   UNL     1      27.386  46.110  40.418  1.00  0.00     0.001 A 
HETATM   18  C   UNL     1      28.502  45.573  39.786  1.00  0.00     0.000 A 
HETATM   19  C   UNL     1      29.663  46.330  39.673  1.00  0.00     0.001 A 
HETATM   20  C   UNL     1      29.715  47.619  40.211  1.00  0.00     0.009 A 
ENDBRANCH  14  15
ENDBRANCH   8  14
ENDBRANCH   5   7
BRANCH   4  21
HETATM   21  C   UNL     1      32.174  50.308  40.560  1.00  0.00     0.115 C 
HETATM   22  C   UNL     1      33.086  49.125  40.930  1.00  0.00     0.055 C 
HETATM   23  C   UNL     1      34.532  49.514  41.228  1.00  0.00     0.236 C 
HETATM   24  N   UNL     1      35.090  50.363  40.111  1.00  0.00    -0.075 N 
HETATM   25  H   UNL     1      35.127  49.788  39.258  1.00  0.00     0.279 HD
HETATM   26  C   UNL     1      36.526  50.748  40.398  1.00  0.00     0.269 C 
HETATM   27  C   UNL     1      34.260  51.587  39.828  1.00  0.00     0.236 C 
HETATM   28  C   UNL     1      32.835  51.173  39.482  1.00  0.00     0.055 C 
ENDBRANCH   4  21
TORSDOF 4
ENDMDL
MODEL 4
REMARK VINA RESULT:      -7.2      2.331      4.937
REMARK  4 active torsions:
REMARK  status: ('A' for Active; 'I' for Inactive)
REMARK    1  A    between atoms: N_4  and  C_5 
REMARK    2  A    between atoms: C_13  and  C_14 
REMARK    3  A    between atoms: N_15  and  C_17 
REMARK    4  A    between atoms: C_17  and  C_18 
ROOT
HETATM    1  C   UNL     1      24.987  43.880  55.356  1.00  0.00     0.095 C 
HETATM    2  C   UNL     1      25.521  44.057  53.989  1.00  0.00     0.144 A 
HETATM    3  N   UNL     1      26.806  43.863  53.675  1.00  0.00    -0.156 NA
HETATM    4  N   UNL     1      26.815  44.040  52.342  1.00  0.00    -0.247 N 
HETATM    5  C   UNL     1      25.564  44.388  51.898  1.00  0.00     0.156 A 
HETATM    6  N   UNL     1      24.740  44.429  52.931  1.00  0.00    -0.215 NA
ENDROOT
BRANCH   5   7
HETATM    7  C   UNL     1      25.124  44.640  50.483  1.00  0.00     0.259 C 
HETATM    8  N   UNL     1      24.114  45.793  50.455  1.00  0.00    -0.056 N 
HETATM    9  H   UNL     1      23.450  45.528  51.201  1.00  0.00     0.281 HD
HETATM   10  C   UNL     1      23.291  45.943  49.205  1.00  0.00     0.236 C 
HETATM   11  C   UNL     1      22.640  44.627  48.829  1.00  0.00     0.028 C 
HETATM   12  C   UNL     1      23.692  43.546  48.660  1.00  0.00     0.004 C 
HETATM   13  C   UNL     1      24.454  43.353  49.961  1.00  0.00     0.041 C 
BRANCH   8  14
HETATM   14  C   UNL     1      24.659  47.132  50.946  1.00  0.00     0.274 C 
BRANCH  14  15
HETATM   15  C   UNL     1      25.292  48.053  49.927  1.00  0.00    -0.033 A 
HETATM   16  C   UNL     1      24.550  48.959  49.155  1.00  0.00     0.009 A 
HETATM   17  C   UNL     1      25.180  49.823  48.254  1.00  0.00     0.001 A 
HETATM   18  C   UNL     1      26.564  49.819  48.133  1.00  0.00     0.000 A 
HETATM   19  C   UNL     1      27.323  48.953  48.914  1.00  0.00     0.001 A 
HETATM   20  C   UNL     1      26.693  48.075  49.801  1.00  0.00     0.009 A 
ENDBRANCH  14  15
ENDBRANCH   8  14
ENDBRANCH   5   7
BRANCH   4  21
HETATM   21  C   UNL     1      28.072  43.869  51.621  1.00  0.00     0.115 C 
HETATM   22  C   UNL     1      27.955  42.923  50.414  1.00  0.00     0.055 C 
HETATM   23  C   UNL     1      27.912  41.440  50.777  1.00  0.00     0.236 C 
HETATM   24  N   UNL     1      29.061  41.089  51.692  1.00  0.00    -0.075 N 
HETATM   25  H   UNL     1      29.939  41.223  51.172  1.00  0.00     0.279 HD
HETATM   26  C   UNL     1      29.027  39.619  52.052  1.00  0.00     0.269 C 
HETATM   27  C   UNL     1      29.106  41.939  52.935  1.00  0.00     0.236 C 
HETATM   28  C   UNL     1      29.202  43.409  52.550  1.00  0.00     0.055 C 
ENDBRANCH   4  21
TORSDOF 4
ENDMDL
MODEL 5
REMARK VINA RESULT:      -7.1      2.772      6.350
REMARK  4 active torsions:
REMARK  status: ('A' for Active; 'I' for Inactive)
REMARK    1  A    between atoms: N_4  and  C_5 
REMARK    2  A    between atoms: C_13  and  C_14 
REMARK    3  A    between atoms: N_15  and  C_17 
REMARK    4  A    between atoms: C_17  and  C_18 
ROOT
HETATM    1  C   UNL     1      26.663  48.197  49.573  1.00  0.00     0.095 C 
HETATM    2  C   UNL     1      26.208  47.059  50.399  1.00  0.00     0.144 A 
HETATM    3  N   UNL     1      26.178  47.091  51.735  1.00  0.00    -0.156 NA
HETATM    4  N   UNL     1      25.620  45.908  52.047  1.00  0.00    -0.247 N 
HETATM    5  C   UNL     1      25.383  45.177  50.910  1.00  0.00     0.156 A 
HETATM    6  N   UNL     1      25.774  45.880  49.861  1.00  0.00    -0.215 NA
ENDROOT
BRANCH   5   7
HETATM    7  C   UNL     1      24.741  43.823  50.800  1.00  0.00     0.259 C 
HETATM    8  N   UNL     1      25.542  42.950  49.827  1.00  0.00    -0.056 N 
HETATM    9  H   UNL     1      25.659  43.573  49.011  1.00  0.00     0.281 HD
HETATM   10  C   UNL     1      24.860  41.714  49.307  1.00  0.00     0.236 C 
HETATM   11  C   UNL     1      23.490  42.049  48.753  1.00  0.00     0.028 C 
HETATM   12  C   UNL     1      22.643  42.731  49.812  1.00  0.00     0.004 C 
HETATM   13  C   UNL     1      23.310  44.021  50.261  1.00  0.00     0.041 C 
BRANCH   8  14
HETATM   14  C   UNL     1      26.982  42.673  50.252  1.00  0.00     0.274 C 
BRANCH  14  15
HETATM   15  C   UNL     1      27.624  41.389  49.776  1.00  0.00    -0.033 A 
HETATM   16  C   UNL     1      27.880  41.122  48.424  1.00  0.00     0.009 A 
HETATM   17  C   UNL     1      28.515  39.941  48.030  1.00  0.00     0.001 A 
HETATM   18  C   UNL     1      28.934  39.021  48.984  1.00  0.00     0.000 A 
HETATM   19  C   UNL     1      28.721  39.281  50.334  1.00  0.00     0.001 A 
HETATM   20  C   UNL     1      28.070  40.453  50.728  1.00  0.00     0.009 A 
ENDBRANCH  14  15
ENDBRANCH   8  14
ENDBRANCH   5   7
BRANCH   4  21
HETATM   21  C   UNL     1      25.387  45.593  53.453  1.00  0.00     0.115 C 
HETATM   22  C   UNL     1      26.111  46.548  54.417  1.00  0.00     0.055 C 
HETATM   23  C   UNL     1      27.608  46.281  54.561  1.00  0.00     0.236 C 
HETATM   24  N   UNL     1      27.856  44.825  54.876  1.00  0.00    -0.075 N 
HETATM   25  H   UNL     1      27.447  44.621  55.798  1.00  0.00     0.279 HD
HETATM   26  C   UNL     1      29.338  44.555  55.025  1.00  0.00     0.269 C 
HETATM   27  C   UNL     1      27.245  43.891  53.865  1.00  0.00     0.236 C 
HETATM   28  C   UNL     1      25.745  44.138  53.775  1.00  0.00     0.055 C 
ENDBRANCH   4  21
TORSDOF 4
ENDMDL
MODEL 6
REMARK VINA RESULT:      -7.1     18.731     21.552
REMARK  4 active torsions:
REMARK  status: ('A' for Active; 'I' for Inactive)
REMARK    1  A    between atoms: N_4  and  C_5 
REMARK    2  A    between atoms: C_13  and  C_14 
REMARK    3  A    between atoms: N_15  and  C_17 
REMARK    4  A    between atoms: C_17  and  C_18 
ROOT
HETATM    1  C   UNL     1      38.455  44.114  69.299  1.00  0.00     0.095 C 
HETATM    2  C   UNL     1      38.187  44.536  67.908  1.00  0.00     0.144 A 
HETATM    3  N   UNL     1      37.535  43.773  67.026  1.00  0.00    -0.156 NA
HETATM    4  N   UNL     1      37.441  44.577  65.952  1.00  0.00    -0.247 N 
HETATM    5  C   UNL     1      38.082  45.767  66.189  1.00  0.00     0.156 A 
HETATM    6  N   UNL     1      38.582  45.747  67.412  1.00  0.00    -0.215 NA
ENDROOT
BRANCH   5   7
HETATM    7  C   UNL     1      38.187  46.956  65.276  1.00  0.00     0.259 C 
HETATM    8  N   UNL     1      39.647  47.416  65.195  1.00  0.00    -0.056 N 
HETATM    9  H   UNL     1      39.925  47.457  66.189  1.00  0.00     0.281 HD
HETATM   10  C   UNL     1      39.895  48.792  64.641  1.00  0.00     0.236 C 
HETATM   11  C   UNL     1      39.028  49.818  65.344  1.00  0.00     0.028 C 
HETATM   12  C   UNL     1      37.563  49.442  65.227  1.00  0.00     0.004 C 
HETATM   13  C   UNL     1      37.321  48.085  65.869  1.00  0.00     0.041 C 
BRANCH   8  14
HETATM   14  C   UNL     1      40.612  46.384  64.616  1.00  0.00     0.274 C 
BRANCH  14  15
HETATM   15  C   UNL     1      42.090  46.580  64.869  1.00  0.00    -0.033 A 
HETATM   16  C   UNL     1      42.587  47.264  65.988  1.00  0.00     0.009 A 
HETATM   17  C   UNL     1      43.963  47.386  66.206  1.00  0.00     0.001 A 
HETATM   18  C   UNL     1      44.865  46.797  65.328  1.00  0.00     0.000 A 
HETATM   19  C   UNL     1      44.394  46.084  64.230  1.00  0.00     0.001 A 
HETATM   20  C   UNL     1      43.019  45.978  64.000  1.00  0.00     0.009 A 
ENDBRANCH  14  15
ENDBRANCH   8  14
ENDBRANCH   5   7
BRANCH   4  21
HETATM   21  C   UNL     1      36.740  44.087  64.769  1.00  0.00     0.115 C 
HETATM   22  C   UNL     1      36.344  42.604  64.870  1.00  0.00     0.055 C 
HETATM   23  C   UNL     1      37.496  41.627  64.644  1.00  0.00     0.236 C 
HETATM   24  N   UNL     1      38.223  41.958  63.363  1.00  0.00    -0.075 N 
HETATM   25  H   UNL     1      37.574  41.809  62.577  1.00  0.00     0.279 HD
HETATM   26  C   UNL     1      39.364  40.990  63.130  1.00  0.00     0.269 C 
HETATM   27  C   UNL     1      38.715  43.380  63.314  1.00  0.00     0.236 C 
HETATM   28  C   UNL     1      37.544  44.337  63.488  1.00  0.00     0.055 C 
ENDBRANCH   4  21
TORSDOF 4
ENDMDL
MODEL 7
REMARK VINA RESULT:      -6.9      3.839      7.922
REMARK  4 active torsions:
REMARK  status: ('A' for Active; 'I' for Inactive)
REMARK    1  A    between atoms: N_4  and  C_5 
REMARK    2  A    between atoms: C_13  and  C_14 
REMARK    3  A    between atoms: N_15  and  C_17 
REMARK    4  A    between atoms: C_17  and  C_18 
ROOT
HETATM    1  C   UNL     1      18.491  48.560  51.325  1.00  0.00     0.095 C 
HETATM    2  C   UNL     1      18.948  48.435  49.925  1.00  0.00     0.144 A 
HETATM    3  N   UNL     1      20.230  48.548  49.562  1.00  0.00    -0.156 NA
HETATM    4  N   UNL     1      20.190  48.275  48.246  1.00  0.00    -0.247 N 
HETATM    5  C   UNL     1      18.896  48.063  47.841  1.00  0.00     0.156 A 
HETATM    6  N   UNL     1      18.096  48.187  48.885  1.00  0.00    -0.215 NA
ENDROOT
BRANCH   5   7
HETATM    7  C   UNL     1      18.407  47.694  46.468  1.00  0.00     0.259 C 
HETATM    8  N   UNL     1      17.368  48.719  46.000  1.00  0.00    -0.056 N 
HETATM    9  H   UNL     1      16.734  48.784  46.812  1.00  0.00     0.281 HD
HETATM   10  C   UNL     1      16.504  48.323  44.833  1.00  0.00     0.236 C 
HETATM   11  C   UNL     1      15.876  46.964  45.067  1.00  0.00     0.028 C 
HETATM   12  C   UNL     1      16.949  45.922  45.326  1.00  0.00     0.004 C 
HETATM   13  C   UNL     1      17.756  46.300  46.558  1.00  0.00     0.041 C 
BRANCH   8  14
HETATM   14  C   UNL     1      17.892  50.147  45.864  1.00  0.00     0.274 C 
BRANCH  14  15
HETATM   15  C   UNL     1      17.819  51.044  47.079  1.00  0.00    -0.033 A 
HETATM   16  C   UNL     1      16.624  51.293  47.770  1.00  0.00     0.009 A 
HETATM   17  C   UNL     1      16.607  52.095  48.915  1.00  0.00     0.001 A 
HETATM   18  C   UNL     1      17.790  52.635  49.408  1.00  0.00     0.000 A 
HETATM   19  C   UNL     1      18.992  52.373  48.758  1.00  0.00     0.001 A 
HETATM   20  C   UNL     1      19.007  51.587  47.603  1.00  0.00     0.009 A 
ENDBRANCH  14  15
ENDBRANCH   8  14
ENDBRANCH   5   7
BRANCH   4  21
HETATM   21  C   UNL     1      21.441  48.267  47.494  1.00  0.00     0.115 C 
HETATM   22  C   UNL     1      22.111  46.883  47.446  1.00  0.00     0.055 C 
HETATM   23  C   UNL     1      22.833  46.489  48.733  1.00  0.00     0.236 C 
HETATM   24  N   UNL     1      23.775  47.586  49.167  1.00  0.00    -0.075 N 
HETATM   25  H   UNL     1      24.511  47.679  48.452  1.00  0.00     0.279 HD
HETATM   26  C   UNL     1      24.498  47.199  50.439  1.00  0.00     0.269 C 
HETATM   27  C   UNL     1      23.093  48.919  49.328  1.00  0.00     0.236 C 
HETATM   28  C   UNL     1      22.426  49.318  48.018  1.00  0.00     0.055 C 
ENDBRANCH   4  21
TORSDOF 4
ENDMDL
MODEL 8
REMARK VINA RESULT:      -6.9     19.185     21.648
REMARK  4 active torsions:
REMARK  status: ('A' for Active; 'I' for Inactive)
REMARK    1  A    between atoms: N_4  and  C_5 
REMARK    2  A    between atoms: C_13  and  C_14 
REMARK    3  A    between atoms: N_15  and  C_17 
REMARK    4  A    between atoms: C_17  and  C_18 
ROOT
HETATM    1  C   UNL     1      39.748  49.307  64.522  1.00  0.00     0.095 C 
HETATM    2  C   UNL     1      39.871  47.840  64.656  1.00  0.00     0.144 A 
HETATM    3  N   UNL     1      41.018  47.182  64.461  1.00  0.00    -0.156 NA
HETATM    4  N   UNL     1      40.691  45.916  64.777  1.00  0.00    -0.247 N 
HETATM    5  C   UNL     1      39.358  45.833  65.095  1.00  0.00     0.156 A 
HETATM    6  N   UNL     1      38.820  47.036  64.997  1.00  0.00    -0.215 NA
ENDROOT
BRANCH   5   7
HETATM    7  C   UNL     1      38.590  44.620  65.540  1.00  0.00     0.259 C 
HETATM    8  N   UNL     1      37.924  43.959  64.327  1.00  0.00    -0.056 N 
HETATM    9  H   UNL     1      37.470  44.758  63.856  1.00  0.00     0.281 HD
HETATM   10  C   UNL     1      36.827  42.970  64.612  1.00  0.00     0.236 C 
HETATM   11  C   UNL     1      35.798  43.565  65.553  1.00  0.00     0.028 C 
HETATM   12  C   UNL     1      36.461  44.026  66.838  1.00  0.00     0.004 C 
HETATM   13  C   UNL     1      37.508  45.086  66.534  1.00  0.00     0.041 C 
BRANCH   8  14
HETATM   14  C   UNL     1      38.895  43.446  63.265  1.00  0.00     0.274 C 
BRANCH  14  15
HETATM   15  C   UNL     1      39.426  42.038  63.415  1.00  0.00    -0.033 A 
HETATM   16  C   UNL     1      40.233  41.640  64.490  1.00  0.00     0.009 A 
HETATM   17  C   UNL     1      40.667  40.317  64.614  1.00  0.00     0.001 A 
HETATM   18  C   UNL     1      40.276  39.363  63.682  1.00  0.00     0.000 A 
HETATM   19  C   UNL     1      39.448  39.728  62.625  1.00  0.00     0.001 A 
HETATM   20  C   UNL     1      39.028  41.055  62.491  1.00  0.00     0.009 A 
ENDBRANCH  14  15
ENDBRANCH   8  14
ENDBRANCH   5   7
BRANCH   4  21
HETATM   21  C   UNL     1      41.726  44.889  64.716  1.00  0.00     0.115 C 
HETATM   22  C   UNL     1      42.151  44.375  66.102  1.00  0.00     0.055 C 
HETATM   23  C   UNL     1      43.074  45.320  66.869  1.00  0.00     0.236 C 
HETATM   24  N   UNL     1      44.244  45.728  66.006  1.00  0.00    -0.075 N 
HETATM   25  H   UNL     1      44.807  44.889  65.809  1.00  0.00     0.279 HD
HETATM   26  C   UNL     1      45.166  46.661  66.762  1.00  0.00     0.269 C 
HETATM   27  C   UNL     1      43.826  46.342  64.696  1.00  0.00     0.236 C 
HETATM   28  C   UNL     1      42.950  45.363  63.925  1.00  0.00     0.055 C 
ENDBRANCH   4  21
TORSDOF 4
ENDMDL
MODEL 9
REMARK VINA RESULT:      -6.9      3.510      7.876
REMARK  4 active torsions:
REMARK  status: ('A' for Active; 'I' for Inactive)
REMARK    1  A    between atoms: N_4  and  C_5 
REMARK    2  A    between atoms: C_13  and  C_14 
REMARK    3  A    between atoms: N_15  and  C_17 
REMARK    4  A    between atoms: C_17  and  C_18 
ROOT
HETATM    1  C   UNL     1      23.204  50.878  48.263  1.00  0.00     0.095 C 
HETATM    2  C   UNL     1      22.269  49.743  48.410  1.00  0.00     0.144 A 
HETATM    3  N   UNL     1      21.214  49.767  49.229  1.00  0.00    -0.156 NA
HETATM    4  N   UNL     1      20.612  48.592  48.972  1.00  0.00    -0.247 N 
HETATM    5  C   UNL     1      21.340  47.873  48.058  1.00  0.00     0.156 A 
HETATM    6  N   UNL     1      22.405  48.575  47.713  1.00  0.00    -0.215 NA
ENDROOT
BRANCH   5   7
HETATM    7  C   UNL     1      21.011  46.531  47.466  1.00  0.00     0.259 C 
HETATM    8  N   UNL     1      22.232  45.609  47.570  1.00  0.00    -0.056 N 
HETATM    9  H   UNL     1      22.994  46.202  47.203  1.00  0.00     0.281 HD
HETATM   10  C   UNL     1      22.222  44.373  46.713  1.00  0.00     0.236 C 
HETATM   11  C   UNL     1      21.913  44.722  45.270  1.00  0.00     0.028 C 
HETATM   12  C   UNL     1      20.588  45.458  45.177  1.00  0.00     0.004 C 
HETATM   13  C   UNL     1      20.650  46.746  45.983  1.00  0.00     0.041 C 
BRANCH   8  14
HETATM   14  C   UNL     1      22.690  45.312  48.996  1.00  0.00     0.274 C 
BRANCH  14  15
HETATM   15  C   UNL     1      24.158  45.488  49.317  1.00  0.00    -0.033 A 
HETATM   16  C   UNL     1      24.694  46.695  49.788  1.00  0.00     0.009 A 
HETATM   17  C   UNL     1      26.050  46.803  50.114  1.00  0.00     0.001 A 
HETATM   18  C   UNL     1      26.885  45.696  50.006  1.00  0.00     0.000 A 
HETATM   19  C   UNL     1      26.367  44.480  49.573  1.00  0.00     0.001 A 
HETATM   20  C   UNL     1      25.015  44.376  49.230  1.00  0.00     0.009 A 
ENDBRANCH  14  15
ENDBRANCH   8  14
ENDBRANCH   5   7
BRANCH   4  21
HETATM   21  C   UNL     1      19.372  48.272  49.672  1.00  0.00     0.115 C 
HETATM   22  C   UNL     1      18.204  47.956  48.722  1.00  0.00     0.055 C 
HETATM   23  C   UNL     1      17.570  49.185  48.073  1.00  0.00     0.236 C 
HETATM   24  N   UNL     1      17.217  50.211  49.123  1.00  0.00    -0.075 N 
HETATM   25  H   UNL     1      16.489  49.812  49.731  1.00  0.00     0.279 HD
HETATM   26  C   UNL     1      16.583  51.431  48.486  1.00  0.00     0.269 C 
HETATM   27  C   UNL     1      18.390  50.609  49.978  1.00  0.00     0.236 C 
HETATM   28  C   UNL     1      18.974  49.377  50.657  1.00  0.00     0.055 C 
ENDBRANCH   4  21
TORSDOF 4
ENDMDL
MODEL 10
REMARK VINA RESULT:      -6.8     10.643     13.098
REMARK  4 active torsions:
REMARK  status: ('A' for Active; 'I' for Inactive)
REMARK    1  A    between atoms: N_4  and  C_5 
REMARK    2  A    between atoms: C_13  and  C_14 
REMARK    3  A    between atoms: N_15  and  C_17 
REMARK    4  A    between atoms: C_17  and  C_18 
ROOT
HETATM    1  C   UNL     1      29.681  45.637  38.088  1.00  0.00     0.095 C 
HETATM    2  C   UNL     1      29.217  46.968  38.533  1.00  0.00     0.144 A 
HETATM    3  N   UNL     1      28.006  47.182  39.056  1.00  0.00    -0.156 NA
HETATM    4  N   UNL     1      28.055  48.483  39.395  1.00  0.00    -0.247 N 
HETATM    5  C   UNL     1      29.257  49.029  39.020  1.00  0.00     0.156 A 
HETATM    6  N   UNL     1      29.992  48.090  38.449  1.00  0.00    -0.215 NA
ENDROOT
BRANCH   5   7
HETATM    7  C   UNL     1      29.741  50.434  39.240  1.00  0.00     0.259 C 
HETATM    8  N   UNL     1      29.594  50.804  40.720  1.00  0.00    -0.056 N 
HETATM    9  H   UNL     1      28.624  50.515  40.928  1.00  0.00     0.281 HD
HETATM   10  C   UNL     1      29.672  52.266  41.064  1.00  0.00     0.236 C 
HETATM   11  C   UNL     1      28.729  53.074  40.194  1.00  0.00     0.028 C 
HETATM   12  C   UNL     1      29.036  52.844  38.726  1.00  0.00     0.004 C 
HETATM   13  C   UNL     1      28.869  51.373  38.382  1.00  0.00     0.041 C 
BRANCH   8  14
HETATM   14  C   UNL     1      30.416  49.946  41.679  1.00  0.00     0.274 C 
BRANCH  14  15
HETATM   15  C   UNL     1      31.753  50.484  42.137  1.00  0.00    -0.033 A 
HETATM   16  C   UNL     1      31.934  51.120  43.374  1.00  0.00     0.009 A 
HETATM   17  C   UNL     1      33.197  51.564  43.778  1.00  0.00     0.001 A 
HETATM   18  C   UNL     1      34.305  51.351  42.967  1.00  0.00     0.000 A 
HETATM   19  C   UNL     1      34.155  50.693  41.751  1.00  0.00     0.001 A 
HETATM   20  C   UNL     1      32.890  50.264  41.338  1.00  0.00     0.009 A 
ENDBRANCH  14  15
ENDBRANCH   8  14
ENDBRANCH   5   7
BRANCH   4  21
HETATM   21  C   UNL     1      26.894  49.082  40.046  1.00  0.00     0.115 C 
HETATM   22  C   UNL     1      25.990  48.051  40.742  1.00  0.00     0.055 C 
HETATM   23  C   UNL     1      25.099  47.252  39.793  1.00  0.00     0.236 C 
HETATM   24  N   UNL     1      24.338  48.181  38.877  1.00  0.00    -0.075 N 
HETATM   25  H   UNL     1      23.697  48.745  39.452  1.00  0.00     0.279 HD
HETATM   26  C   UNL     1      23.449  47.395  37.937  1.00  0.00     0.269 C 
HETATM   27  C   UNL     1      25.234  49.113  38.105  1.00  0.00     0.236 C 
HETATM   28  C   UNL     1      26.075  49.937  39.072  1.00  0.00     0.055 C 
ENDBRANCH   4  21
TORSDOF 4
ENDMDL
