MODEL 1
REMARK VINA RESULT:      -8.7      0.000      0.000
REMARK  6 active torsions:
REMARK  status: ('A' for Active; 'I' for Inactive)
REMARK    1  A    between atoms: C_2  and  C_3 
REMARK    2  A    between atoms: C_8  and  C_9 
REMARK    3  A    between atoms: C_9  and  N_10 
REMARK    4  A    between atoms: C_12  and  C_13 
REMARK    5  A    between atoms: C_13  and  N_14 
REMARK       I    between atoms: N_14  and  C_15 
REMARK    6  A    between atoms: C_15  and  C_16 
ROOT
HETATM    1  N   UNL     1      25.531  46.031  50.663  1.00  0.00    -0.061 N 
HETATM    2  H   UNL     1      26.505  46.117  50.351  1.00  0.00     0.280 HD
HETATM    3  C   UNL     1      25.564  45.277  52.007  1.00  0.00     0.206 C 
HETATM    4  C   UNL     1      26.272  43.927  51.770  1.00  0.00     0.035 C 
HETATM    5  C   UNL     1      25.614  43.107  50.668  1.00  0.00     0.004 C 
HETATM    6  C   UNL     1      25.520  43.905  49.378  1.00  0.00     0.028 C 
HETATM    7  C   UNL     1      24.803  45.227  49.601  1.00  0.00     0.236 C 
ENDROOT
BRANCH   1   8
HETATM    8  C   UNL     1      25.000  47.463  50.704  1.00  0.00     0.277 C 
BRANCH   8   9
HETATM    9  C   UNL     1      25.465  48.382  49.632  1.00  0.00     0.012 A 
HETATM   10  C   UNL     1      24.743  49.264  48.750  1.00  0.00     0.071 A 
HETATM   11  N   UNL     1      25.599  49.939  47.966  1.00  0.00    -0.178 NA
HETATM   12  N   UNL     1      26.808  49.464  48.250  1.00  0.00    -0.288 N 
HETATM   13  H   UNL     1      27.606  49.827  47.735  1.00  0.00     0.188 HD
HETATM   14  C   UNL     1      26.782  48.524  49.229  1.00  0.00     0.120 A 
BRANCH  10  15
HETATM   15  C   UNL     1      23.256  49.585  48.542  1.00  0.00    -0.004 C 
HETATM   16  C   UNL     1      22.496  48.295  48.141  1.00  0.00     0.021 C 
HETATM   17  C   UNL     1      23.103  50.618  47.404  1.00  0.00     0.021 C 
HETATM   18  C   UNL     1      22.538  50.146  49.778  1.00  0.00     0.021 C 
ENDBRANCH  10  15
ENDBRANCH   8   9
ENDBRANCH   1   8
BRANCH   3  19
HETATM   19  C   UNL     1      26.326  46.078  53.107  1.00  0.00     0.156 C 
BRANCH  19  20
HETATM   20  N   UNL     1      27.309  45.307  53.851  1.00  0.00    -0.355 N 
HETATM   21  C   UNL     1      28.063  45.911  54.841  1.00  0.00     0.251 C 
HETATM   22  O   UNL     1      27.850  47.066  55.197  1.00  0.00    -0.268 OA
HETATM   23  H   UNL     1      27.697  44.477  53.415  1.00  0.00     0.162 HD
BRANCH  21  24
HETATM   24  C   UNL     1      29.167  45.115  55.442  1.00  0.00     0.032 A 
HETATM   25  C   UNL     1      29.543  43.923  54.809  1.00  0.00     0.017 A 
HETATM   26  C   UNL     1      30.577  43.147  55.332  1.00  0.00     0.001 A 
HETATM   27  C   UNL     1      31.246  43.563  56.482  1.00  0.00     0.000 A 
HETATM   28  C   UNL     1      30.887  44.757  57.107  1.00  0.00     0.001 A 
HETATM   29  C   UNL     1      29.852  45.537  56.589  1.00  0.00     0.017 A 
ENDBRANCH  21  24
ENDBRANCH  19  20
ENDBRANCH   3  19
TORSDOF 6
ENDMDL
MODEL 2
REMARK VINA RESULT:      -8.5      2.431      7.614
REMARK  6 active torsions:
REMARK  status: ('A' for Active; 'I' for Inactive)
REMARK    1  A    between atoms: C_2  and  C_3 
REMARK    2  A    between atoms: C_8  and  C_9 
REMARK    3  A    between atoms: C_9  and  N_10 
REMARK    4  A    between atoms: C_12  and  C_13 
REMARK    5  A    between atoms: C_13  and  N_14 
REMARK       I    between atoms: N_14  and  C_15 
REMARK    6  A    between atoms: C_15  and  C_16 
ROOT
HETATM    1  N   UNL     1      27.435  44.645  54.125  1.00  0.00    -0.061 N 
HETATM    2  H   UNL     1      28.005  44.832  53.292  1.00  0.00     0.280 HD
HETATM    3  C   UNL     1      26.421  45.801  54.233  1.00  0.00     0.206 C 
HETATM    4  C   UNL     1      27.218  47.120  54.296  1.00  0.00     0.035 C 
HETATM    5  C   UNL     1      28.231  47.137  55.434  1.00  0.00     0.004 C 
HETATM    6  C   UNL     1      29.165  45.941  55.350  1.00  0.00     0.028 C 
HETATM    7  C   UNL     1      28.385  44.637  55.309  1.00  0.00     0.236 C 
ENDROOT
BRANCH   1   8
HETATM    8  C   UNL     1      26.850  43.252  53.901  1.00  0.00     0.277 C 
BRANCH   8   9
HETATM    9  C   UNL     1      27.621  42.333  53.021  1.00  0.00     0.012 A 
HETATM   10  C   UNL     1      27.582  42.118  51.598  1.00  0.00     0.071 A 
HETATM   11  N   UNL     1      28.504  41.209  51.240  1.00  0.00    -0.178 NA
HETATM   12  N   UNL     1      29.056  40.784  52.372  1.00  0.00    -0.288 N 
HETATM   13  H   UNL     1      29.768  40.060  52.325  1.00  0.00     0.188 HD
HETATM   14  C   UNL     1      28.556  41.414  53.466  1.00  0.00     0.120 A 
BRANCH  10  15
HETATM   15  C   UNL     1      26.744  42.701  50.450  1.00  0.00    -0.004 C 
HETATM   16  C   UNL     1      27.162  44.172  50.197  1.00  0.00     0.021 C 
HETATM   17  C   UNL     1      25.248  42.676  50.836  1.00  0.00     0.021 C 
HETATM   18  C   UNL     1      26.889  41.970  49.108  1.00  0.00     0.021 C 
ENDBRANCH  10  15
ENDBRANCH   8   9
ENDBRANCH   1   8
BRANCH   3  19
HETATM   19  C   UNL     1      25.449  45.840  53.014  1.00  0.00     0.156 C 
BRANCH  19  20
HETATM   20  N   UNL     1      25.661  46.950  52.100  1.00  0.00    -0.355 N 
HETATM   21  C   UNL     1      25.072  46.944  50.848  1.00  0.00     0.251 C 
HETATM   22  O   UNL     1      24.271  46.075  50.518  1.00  0.00    -0.268 OA
HETATM   23  H   UNL     1      26.499  47.512  52.214  1.00  0.00     0.162 HD
BRANCH  21  24
HETATM   24  C   UNL     1      25.468  48.020  49.900  1.00  0.00     0.032 A 
HETATM   25  C   UNL     1      26.835  48.260  49.706  1.00  0.00     0.017 A 
HETATM   26  C   UNL     1      27.253  49.254  48.822  1.00  0.00     0.001 A 
HETATM   27  C   UNL     1      26.311  50.005  48.121  1.00  0.00     0.000 A 
HETATM   28  C   UNL     1      24.950  49.759  48.298  1.00  0.00     0.001 A 
HETATM   29  C   UNL     1      24.524  48.766  49.183  1.00  0.00     0.017 A 
ENDBRANCH  21  24
ENDBRANCH  19  20
ENDBRANCH   3  19
TORSDOF 6
ENDMDL
MODEL 3
REMARK VINA RESULT:      -8.4      3.117      9.279
REMARK  6 active torsions:
REMARK  status: ('A' for Active; 'I' for Inactive)
REMARK    1  A    between atoms: C_2  and  C_3 
REMARK    2  A    between atoms: C_8  and  C_9 
REMARK    3  A    between atoms: C_9  and  N_10 
REMARK    4  A    between atoms: C_12  and  C_13 
REMARK    5  A    between atoms: C_13  and  N_14 
REMARK       I    between atoms: N_14  and  C_15 
REMARK    6  A    between atoms: C_15  and  C_16 
ROOT
HETATM    1  N   UNL     1      25.496  47.603  49.712  1.00  0.00    -0.061 N 
HETATM    2  H   UNL     1      25.523  47.098  48.818  1.00  0.00     0.280 HD
HETATM    3  C   UNL     1      24.557  48.809  49.509  1.00  0.00     0.206 C 
HETATM    4  C   UNL     1      25.107  49.638  48.331  1.00  0.00     0.035 C 
HETATM    5  C   UNL     1      26.554  50.067  48.542  1.00  0.00     0.004 C 
HETATM    6  C   UNL     1      27.442  48.866  48.823  1.00  0.00     0.028 C 
HETATM    7  C   UNL     1      26.917  48.056  49.997  1.00  0.00     0.236 C 
ENDROOT
BRANCH   1   8
HETATM    8  C   UNL     1      25.051  46.565  50.741  1.00  0.00     0.277 C 
BRANCH   8   9
HETATM    9  C   UNL     1      25.962  45.411  50.967  1.00  0.00     0.012 A 
HETATM   10  C   UNL     1      26.591  44.912  52.162  1.00  0.00     0.071 A 
HETATM   11  N   UNL     1      27.301  43.805  51.886  1.00  0.00    -0.178 NA
HETATM   12  N   UNL     1      27.218  43.637  50.570  1.00  0.00    -0.288 N 
HETATM   13  H   UNL     1      27.719  42.861  50.146  1.00  0.00     0.188 HD
HETATM   14  C   UNL     1      26.441  44.576  49.971  1.00  0.00     0.120 A 
BRANCH  10  15
HETATM   15  C   UNL     1      26.605  45.360  53.631  1.00  0.00    -0.004 C 
HETATM   16  C   UNL     1      27.880  44.820  54.328  1.00  0.00     0.021 C 
HETATM   17  C   UNL     1      25.369  44.787  54.359  1.00  0.00     0.021 C 
HETATM   18  C   UNL     1      26.605  46.880  53.842  1.00  0.00     0.021 C 
ENDBRANCH  10  15
ENDBRANCH   8   9
ENDBRANCH   1   8
BRANCH   3  19
HETATM   19  C   UNL     1      23.097  48.363  49.194  1.00  0.00     0.156 C 
BRANCH  19  20
HETATM   20  N   UNL     1      22.093  49.402  49.364  1.00  0.00    -0.355 N 
HETATM   21  C   UNL     1      20.750  49.103  49.218  1.00  0.00     0.251 C 
HETATM   22  O   UNL     1      20.361  47.950  49.059  1.00  0.00    -0.268 OA
HETATM   23  H   UNL     1      22.372  50.367  49.215  1.00  0.00     0.162 HD
BRANCH  21  24
HETATM   24  C   UNL     1      19.791  50.240  49.232  1.00  0.00     0.032 A 
HETATM   25  C   UNL     1      20.097  51.373  48.466  1.00  0.00     0.017 A 
HETATM   26  C   UNL     1      19.224  52.461  48.443  1.00  0.00     0.001 A 
HETATM   27  C   UNL     1      18.039  52.418  49.176  1.00  0.00     0.000 A 
HETATM   28  C   UNL     1      17.721  51.287  49.926  1.00  0.00     0.001 A 
HETATM   29  C   UNL     1      18.592  50.195  49.955  1.00  0.00     0.017 A 
ENDBRANCH  21  24
ENDBRANCH  19  20
ENDBRANCH   3  19
TORSDOF 6
ENDMDL
MODEL 4
REMARK VINA RESULT:      -8.4      2.343      4.303
REMARK  6 active torsions:
REMARK  status: ('A' for Active; 'I' for Inactive)
REMARK    1  A    between atoms: C_2  and  C_3 
REMARK    2  A    between atoms: C_8  and  C_9 
REMARK    3  A    between atoms: C_9  and  N_10 
REMARK    4  A    between atoms: C_12  and  C_13 
REMARK    5  A    between atoms: C_13  and  N_14 
REMARK       I    between atoms: N_14  and  C_15 
REMARK    6  A    between atoms: C_15  and  C_16 
ROOT
HETATM    1  N   UNL     1      24.664  48.942  49.009  1.00  0.00    -0.061 N 
HETATM    2  H   UNL     1      24.572  49.589  49.800  1.00  0.00     0.280 HD
HETATM    3  C   UNL     1      25.501  47.749  49.511  1.00  0.00     0.206 C 
HETATM    4  C   UNL     1      26.842  48.303  50.033  1.00  0.00     0.035 C 
HETATM    5  C   UNL     1      27.583  49.123  48.985  1.00  0.00     0.004 C 
HETATM    6  C   UNL     1      26.706  50.241  48.447  1.00  0.00     0.028 C 
HETATM    7  C   UNL     1      25.391  49.698  47.912  1.00  0.00     0.236 C 
ENDROOT
BRANCH   1   8
HETATM    8  C   UNL     1      23.231  48.630  48.582  1.00  0.00     0.277 C 
BRANCH   8   9
HETATM    9  C   UNL     1      22.149  49.403  49.250  1.00  0.00     0.012 A 
HETATM   10  C   UNL     1      20.720  49.222  49.270  1.00  0.00     0.071 A 
HETATM   11  N   UNL     1      20.146  50.150  50.052  1.00  0.00    -0.178 NA
HETATM   12  N   UNL     1      21.129  50.951  50.451  1.00  0.00    -0.288 N 
HETATM   13  H   UNL     1      20.899  51.750  51.036  1.00  0.00     0.188 HD
HETATM   14  C   UNL     1      22.343  50.557  49.990  1.00  0.00     0.120 A 
BRANCH  10  15
HETATM   15  C   UNL     1      19.759  48.217  48.617  1.00  0.00    -0.004 C 
HETATM   16  C   UNL     1      19.575  48.572  47.119  1.00  0.00     0.021 C 
HETATM   17  C   UNL     1      18.381  48.291  49.312  1.00  0.00     0.021 C 
HETATM   18  C   UNL     1      20.225  46.755  48.663  1.00  0.00     0.021 C 
ENDBRANCH  10  15
ENDBRANCH   8   9
ENDBRANCH   1   8
BRANCH   3  19
HETATM   19  C   UNL     1      24.780  46.971  50.654  1.00  0.00     0.156 C 
BRANCH  19  20
HETATM   20  N   UNL     1      25.668  46.323  51.606  1.00  0.00    -0.355 N 
HETATM   21  C   UNL     1      25.872  46.876  52.857  1.00  0.00     0.251 C 
HETATM   22  O   UNL     1      25.232  47.850  53.242  1.00  0.00    -0.268 OA
HETATM   23  H   UNL     1      26.397  45.715  51.243  1.00  0.00     0.162 HD
BRANCH  21  24
HETATM   24  C   UNL     1      26.922  46.262  53.714  1.00  0.00     0.032 A 
HETATM   25  C   UNL     1      27.517  47.057  54.703  1.00  0.00     0.017 A 
HETATM   26  C   UNL     1      28.500  46.522  55.535  1.00  0.00     0.001 A 
HETATM   27  C   UNL     1      28.886  45.190  55.390  1.00  0.00     0.000 A 
HETATM   28  C   UNL     1      28.286  44.390  54.418  1.00  0.00     0.001 A 
HETATM   29  C   UNL     1      27.301  44.920  53.581  1.00  0.00     0.017 A 
ENDBRANCH  21  24
ENDBRANCH  19  20
ENDBRANCH   3  19
TORSDOF 6
ENDMDL
MODEL 5
REMARK VINA RESULT:      -8.4      2.219      8.208
REMARK  6 active torsions:
REMARK  status: ('A' for Active; 'I' for Inactive)
REMARK    1  A    between atoms: C_2  and  C_3 
REMARK    2  A    between atoms: C_8  and  C_9 
REMARK    3  A    between atoms: C_9  and  N_10 
REMARK    4  A    between atoms: C_12  and  C_13 
REMARK    5  A    between atoms: C_13  and  N_14 
REMARK       I    between atoms: N_14  and  C_15 
REMARK    6  A    between atoms: C_15  and  C_16 
ROOT
HETATM    1  N   UNL     1      26.286  43.424  51.143  1.00  0.00    -0.061 N 
HETATM    2  H   UNL     1      25.922  43.073  52.037  1.00  0.00     0.280 HD
HETATM    3  C   UNL     1      25.061  43.795  50.284  1.00  0.00     0.206 C 
HETATM    4  C   UNL     1      24.180  42.536  50.156  1.00  0.00     0.035 C 
HETATM    5  C   UNL     1      24.941  41.345  49.587  1.00  0.00     0.004 C 
HETATM    6  C   UNL     1      26.188  41.055  50.405  1.00  0.00     0.028 C 
HETATM    7  C   UNL     1      27.071  42.286  50.517  1.00  0.00     0.236 C 
ENDROOT
BRANCH   1   8
HETATM    8  C   UNL     1      27.220  44.573  51.520  1.00  0.00     0.277 C 
BRANCH   8   9
HETATM    9  C   UNL     1      27.400  44.844  52.972  1.00  0.00     0.012 A 
HETATM   10  C   UNL     1      28.235  44.216  53.964  1.00  0.00     0.071 A 
HETATM   11  N   UNL     1      28.095  44.835  55.147  1.00  0.00    -0.178 NA
HETATM   12  N   UNL     1      27.155  45.758  54.968  1.00  0.00    -0.288 N 
HETATM   13  H   UNL     1      26.872  46.325  55.763  1.00  0.00     0.188 HD
HETATM   14  C   UNL     1      26.697  45.796  53.690  1.00  0.00     0.120 A 
BRANCH  10  15
HETATM   15  C   UNL     1      29.223  43.040  53.941  1.00  0.00    -0.004 C 
HETATM   16  C   UNL     1      28.439  41.704  53.888  1.00  0.00     0.021 C 
HETATM   17  C   UNL     1      30.077  43.057  55.229  1.00  0.00     0.021 C 
HETATM   18  C   UNL     1      30.185  43.028  52.745  1.00  0.00     0.021 C 
ENDBRANCH  10  15
ENDBRANCH   8   9
ENDBRANCH   1   8
BRANCH   3  19
HETATM   19  C   UNL     1      24.229  44.949  50.922  1.00  0.00     0.156 C 
BRANCH  19  20
HETATM   20  N   UNL     1      23.830  45.997  49.996  1.00  0.00    -0.355 N 
HETATM   21  C   UNL     1      24.327  47.281  50.141  1.00  0.00     0.251 C 
HETATM   22  O   UNL     1      25.195  47.545  50.968  1.00  0.00    -0.268 OA
HETATM   23  H   UNL     1      22.945  45.895  49.509  1.00  0.00     0.162 HD
BRANCH  21  24
HETATM   24  C   UNL     1      23.749  48.340  49.272  1.00  0.00     0.032 A 
HETATM   25  C   UNL     1      24.597  49.359  48.818  1.00  0.00     0.017 A 
HETATM   26  C   UNL     1      24.100  50.370  47.995  1.00  0.00     0.001 A 
HETATM   27  C   UNL     1      22.759  50.362  47.615  1.00  0.00     0.000 A 
HETATM   28  C   UNL     1      21.915  49.342  48.050  1.00  0.00     0.001 A 
HETATM   29  C   UNL     1      22.405  48.327  48.875  1.00  0.00     0.017 A 
ENDBRANCH  21  24
ENDBRANCH  19  20
ENDBRANCH   3  19
TORSDOF 6
ENDMDL
MODEL 6
REMARK VINA RESULT:      -8.3      2.228      3.598
REMARK  6 active torsions:
REMARK  status: ('A' for Active; 'I' for Inactive)
REMARK    1  A    between atoms: C_2  and  C_3 
REMARK    2  A    between atoms: C_8  and  C_9 
REMARK    3  A    between atoms: C_9  and  N_10 
REMARK    4  A    between atoms: C_12  and  C_13 
REMARK    5  A    between atoms: C_13  and  N_14 
REMARK       I    between atoms: N_14  and  C_15 
REMARK    6  A    between atoms: C_15  and  C_16 
ROOT
HETATM    1  N   UNL     1      26.143  42.691  50.980  1.00  0.00    -0.061 N 
HETATM    2  H   UNL     1      26.448  43.142  50.109  1.00  0.00     0.280 HD
HETATM    3  C   UNL     1      27.419  42.371  51.782  1.00  0.00     0.206 C 
HETATM    4  C   UNL     1      28.319  41.486  50.896  1.00  0.00     0.035 C 
HETATM    5  C   UNL     1      27.611  40.225  50.417  1.00  0.00     0.004 C 
HETATM    6  C   UNL     1      26.314  40.568  49.703  1.00  0.00     0.028 C 
HETATM    7  C   UNL     1      25.413  41.422  50.579  1.00  0.00     0.236 C 
ENDROOT
BRANCH   1   8
HETATM    8  C   UNL     1      25.173  43.684  51.620  1.00  0.00     0.277 C 
BRANCH   8   9
HETATM    9  C   UNL     1      24.376  44.534  50.696  1.00  0.00     0.012 A 
HETATM   10  C   UNL     1      24.637  45.832  50.127  1.00  0.00     0.071 A 
HETATM   11  N   UNL     1      23.638  46.187  49.304  1.00  0.00    -0.178 NA
HETATM   12  N   UNL     1      22.728  45.222  49.394  1.00  0.00    -0.288 N 
HETATM   13  H   UNL     1      21.866  45.315  48.865  1.00  0.00     0.188 HD
HETATM   14  C   UNL     1      23.114  44.217  50.222  1.00  0.00     0.120 A 
BRANCH  10  15
HETATM   15  C   UNL     1      25.785  46.844  50.255  1.00  0.00    -0.004 C 
HETATM   16  C   UNL     1      27.084  46.234  49.667  1.00  0.00     0.021 C 
HETATM   17  C   UNL     1      26.027  47.167  51.746  1.00  0.00     0.021 C 
HETATM   18  C   UNL     1      25.558  48.174  49.522  1.00  0.00     0.021 C 
ENDBRANCH  10  15
ENDBRANCH   8   9
ENDBRANCH   1   8
BRANCH   3  19
HETATM   19  C   UNL     1      28.194  43.662  52.185  1.00  0.00     0.156 C 
BRANCH  19  20
HETATM   20  N   UNL     1      28.928  43.566  53.437  1.00  0.00    -0.355 N 
HETATM   21  C   UNL     1      28.794  44.550  54.400  1.00  0.00     0.251 C 
HETATM   22  O   UNL     1      27.976  45.458  54.282  1.00  0.00    -0.268 OA
HETATM   23  H   UNL     1      29.783  43.019  53.450  1.00  0.00     0.162 HD
BRANCH  21  24
HETATM   24  C   UNL     1      29.699  44.483  55.578  1.00  0.00     0.032 A 
HETATM   25  C   UNL     1      30.587  43.402  55.668  1.00  0.00     0.017 A 
HETATM   26  C   UNL     1      31.461  43.301  56.751  1.00  0.00     0.001 A 
HETATM   27  C   UNL     1      31.458  44.282  57.742  1.00  0.00     0.000 A 
HETATM   28  C   UNL     1      30.588  45.368  57.649  1.00  0.00     0.001 A 
HETATM   29  C   UNL     1      29.711  45.474  56.568  1.00  0.00     0.017 A 
ENDBRANCH  21  24
ENDBRANCH  19  20
ENDBRANCH   3  19
TORSDOF 6
ENDMDL
MODEL 7
REMARK VINA RESULT:      -8.3      2.612      5.675
REMARK  6 active torsions:
REMARK  status: ('A' for Active; 'I' for Inactive)
REMARK    1  A    between atoms: C_2  and  C_3 
REMARK    2  A    between atoms: C_8  and  C_9 
REMARK    3  A    between atoms: C_9  and  N_10 
REMARK    4  A    between atoms: C_12  and  C_13 
REMARK    5  A    between atoms: C_13  and  N_14 
REMARK       I    between atoms: N_14  and  C_15 
REMARK    6  A    between atoms: C_15  and  C_16 
ROOT
HETATM    1  N   UNL     1      25.231  45.129  51.611  1.00  0.00    -0.061 N 
HETATM    2  H   UNL     1      24.320  45.588  51.724  1.00  0.00     0.280 HD
HETATM    3  C   UNL     1      26.244  45.955  52.427  1.00  0.00     0.206 C 
HETATM    4  C   UNL     1      26.198  47.405  51.903  1.00  0.00     0.035 C 
HETATM    5  C   UNL     1      26.459  47.494  50.405  1.00  0.00     0.004 C 
HETATM    6  C   UNL     1      25.500  46.605  49.631  1.00  0.00     0.028 C 
HETATM    7  C   UNL     1      25.557  45.170  50.129  1.00  0.00     0.236 C 
ENDROOT
BRANCH   1   8
HETATM    8  C   UNL     1      25.010  43.688  52.068  1.00  0.00     0.277 C 
BRANCH   8   9
HETATM    9  C   UNL     1      25.704  42.624  51.295  1.00  0.00     0.012 A 
HETATM   10  C   UNL     1      26.974  41.974  51.494  1.00  0.00     0.071 A 
HETATM   11  N   UNL     1      27.165  41.033  50.555  1.00  0.00    -0.178 NA
HETATM   12  N   UNL     1      26.124  41.120  49.732  1.00  0.00    -0.288 N 
HETATM   13  H   UNL     1      26.091  40.505  48.923  1.00  0.00     0.188 HD
HETATM   14  C   UNL     1      25.229  42.063  50.121  1.00  0.00     0.120 A 
BRANCH  10  15
HETATM   15  C   UNL     1      28.101  42.121  52.526  1.00  0.00    -0.004 C 
HETATM   16  C   UNL     1      28.885  43.432  52.256  1.00  0.00     0.021 C 
HETATM   17  C   UNL     1      29.078  40.931  52.400  1.00  0.00     0.021 C 
HETATM   18  C   UNL     1      27.635  42.187  53.987  1.00  0.00     0.021 C 
ENDBRANCH  10  15
ENDBRANCH   8   9
ENDBRANCH   1   8
BRANCH   3  19
HETATM   19  C   UNL     1      25.914  45.943  53.951  1.00  0.00     0.156 C 
BRANCH  19  20
HETATM   20  N   UNL     1      26.965  45.400  54.798  1.00  0.00    -0.355 N 
HETATM   21  C   UNL     1      27.901  46.242  55.372  1.00  0.00     0.251 C 
HETATM   22  O   UNL     1      27.809  47.462  55.283  1.00  0.00    -0.268 OA
HETATM   23  H   UNL     1      27.233  44.430  54.666  1.00  0.00     0.162 HD
BRANCH  21  24
HETATM   24  C   UNL     1      29.045  45.609  56.081  1.00  0.00     0.032 A 
HETATM   25  C   UNL     1      29.310  46.009  57.398  1.00  0.00     0.017 A 
HETATM   26  C   UNL     1      30.368  45.437  58.105  1.00  0.00     0.001 A 
HETATM   27  C   UNL     1      31.159  44.460  57.504  1.00  0.00     0.000 A 
HETATM   28  C   UNL     1      30.891  44.047  56.200  1.00  0.00     0.001 A 
HETATM   29  C   UNL     1      29.833  44.615  55.486  1.00  0.00     0.017 A 
ENDBRANCH  21  24
ENDBRANCH  19  20
ENDBRANCH   3  19
TORSDOF 6
ENDMDL
MODEL 8
REMARK VINA RESULT:      -8.3      3.337      6.268
REMARK  6 active torsions:
REMARK  status: ('A' for Active; 'I' for Inactive)
REMARK    1  A    between atoms: C_2  and  C_3 
REMARK    2  A    between atoms: C_8  and  C_9 
REMARK    3  A    between atoms: C_9  and  N_10 
REMARK    4  A    between atoms: C_12  and  C_13 
REMARK    5  A    between atoms: C_13  and  N_14 
REMARK       I    between atoms: N_14  and  C_15 
REMARK    6  A    between atoms: C_15  and  C_16 
ROOT
HETATM    1  N   UNL     1      26.232  43.731  50.425  1.00  0.00    -0.061 N 
HETATM    2  H   UNL     1      25.631  43.127  50.997  1.00  0.00     0.280 HD
HETATM    3  C   UNL     1      27.160  44.480  51.400  1.00  0.00     0.206 C 
HETATM    4  C   UNL     1      26.270  45.243  52.402  1.00  0.00     0.035 C 
HETATM    5  C   UNL     1      25.285  46.179  51.715  1.00  0.00     0.004 C 
HETATM    6  C   UNL     1      24.440  45.429  50.698  1.00  0.00     0.028 C 
HETATM    7  C   UNL     1      25.312  44.693  49.695  1.00  0.00     0.236 C 
ENDROOT
BRANCH   1   8
HETATM    8  C   UNL     1      26.912  42.788  49.433  1.00  0.00     0.277 C 
BRANCH   8   9
HETATM    9  C   UNL     1      26.668  41.332  49.616  1.00  0.00     0.012 A 
HETATM   10  C   UNL     1      26.739  40.229  48.692  1.00  0.00     0.071 A 
HETATM   11  N   UNL     1      26.475  39.075  49.326  1.00  0.00    -0.178 NA
HETATM   12  N   UNL     1      26.159  39.407  50.573  1.00  0.00    -0.288 N 
HETATM   13  H   UNL     1      25.891  38.671  51.220  1.00  0.00     0.188 HD
HETATM   14  C   UNL     1      26.246  40.744  50.796  1.00  0.00     0.120 A 
BRANCH  10  15
HETATM   15  C   UNL     1      27.056  40.107  47.194  1.00  0.00    -0.004 C 
HETATM   16  C   UNL     1      25.848  40.613  46.364  1.00  0.00     0.021 C 
HETATM   17  C   UNL     1      27.310  38.626  46.837  1.00  0.00     0.021 C 
HETATM   18  C   UNL     1      28.274  40.914  46.724  1.00  0.00     0.021 C 
ENDBRANCH  10  15
ENDBRANCH   8   9
ENDBRANCH   1   8
BRANCH   3  19
HETATM   19  C   UNL     1      28.100  43.507  52.175  1.00  0.00     0.156 C 
BRANCH  19  20
HETATM   20  N   UNL     1      28.625  44.032  53.426  1.00  0.00    -0.355 N 
HETATM   21  C   UNL     1      29.797  43.525  53.957  1.00  0.00     0.251 C 
HETATM   22  O   UNL     1      30.482  42.712  53.344  1.00  0.00    -0.268 OA
HETATM   23  H   UNL     1      27.975  44.471  54.071  1.00  0.00     0.162 HD
BRANCH  21  24
HETATM   24  C   UNL     1      30.185  43.982  55.318  1.00  0.00     0.032 A 
HETATM   25  C   UNL     1      31.058  43.177  56.062  1.00  0.00     0.017 A 
HETATM   26  C   UNL     1      31.455  43.569  57.341  1.00  0.00     0.001 A 
HETATM   27  C   UNL     1      30.991  44.769  57.877  1.00  0.00     0.000 A 
HETATM   28  C   UNL     1      30.135  45.582  57.134  1.00  0.00     0.001 A 
HETATM   29  C   UNL     1      29.733  45.195  55.854  1.00  0.00     0.017 A 
ENDBRANCH  21  24
ENDBRANCH  19  20
ENDBRANCH   3  19
TORSDOF 6
ENDMDL
MODEL 9
REMARK VINA RESULT:      -8.1     11.595     12.679
REMARK  6 active torsions:
REMARK  status: ('A' for Active; 'I' for Inactive)
REMARK    1  A    between atoms: C_2  and  C_3 
REMARK    2  A    between atoms: C_8  and  C_9 
REMARK    3  A    between atoms: C_9  and  N_10 
REMARK    4  A    between atoms: C_12  and  C_13 
REMARK    5  A    between atoms: C_13  and  N_14 
REMARK       I    between atoms: N_14  and  C_15 
REMARK    6  A    between atoms: C_15  and  C_16 
ROOT
HETATM    1  N   UNL     1      28.373  47.501  39.897  1.00  0.00    -0.061 N 
HETATM    2  H   UNL     1      28.083  47.619  38.919  1.00  0.00     0.280 HD
HETATM    3  C   UNL     1      29.687  46.696  39.874  1.00  0.00     0.206 C 
HETATM    4  C   UNL     1      29.412  45.371  39.134  1.00  0.00     0.035 C 
HETATM    5  C   UNL     1      28.266  44.582  39.753  1.00  0.00     0.004 C 
HETATM    6  C   UNL     1      27.006  45.428  39.840  1.00  0.00     0.028 C 
HETATM    7  C   UNL     1      27.266  46.725  40.588  1.00  0.00     0.236 C 
ENDROOT
BRANCH   1   8
HETATM    8  C   UNL     1      28.459  48.920  40.459  1.00  0.00     0.277 C 
BRANCH   8   9
HETATM    9  C   UNL     1      28.033  50.025  39.558  1.00  0.00     0.012 A 
HETATM   10  C   UNL     1      28.455  51.399  39.468  1.00  0.00     0.071 A 
HETATM   11  N   UNL     1      27.814  52.015  38.461  1.00  0.00    -0.178 NA
HETATM   12  N   UNL     1      26.955  51.126  37.975  1.00  0.00    -0.288 N 
HETATM   13  H   UNL     1      26.341  51.407  37.215  1.00  0.00     0.188 HD
HETATM   14  C   UNL     1      27.035  49.925  38.603  1.00  0.00     0.120 A 
BRANCH  10  15
HETATM   15  C   UNL     1      29.456  52.264  40.247  1.00  0.00    -0.004 C 
HETATM   16  C   UNL     1      29.236  53.758  39.896  1.00  0.00     0.021 C 
HETATM   17  C   UNL     1      30.897  51.873  39.850  1.00  0.00     0.021 C 
HETATM   18  C   UNL     1      29.350  52.156  41.775  1.00  0.00     0.021 C 
ENDBRANCH  10  15
ENDBRANCH   8   9
ENDBRANCH   1   8
BRANCH   3  19
HETATM   19  C   UNL     1      30.832  47.468  39.151  1.00  0.00     0.156 C 
BRANCH  19  20
HETATM   20  N   UNL     1      31.420  48.551  39.923  1.00  0.00    -0.355 N 
HETATM   21  C   UNL     1      32.376  48.279  40.886  1.00  0.00     0.251 C 
HETATM   22  O   UNL     1      32.835  47.151  41.037  1.00  0.00    -0.268 OA
HETATM   23  H   UNL     1      30.889  49.409  40.027  1.00  0.00     0.162 HD
BRANCH  21  24
HETATM   24  C   UNL     1      32.808  49.405  41.757  1.00  0.00     0.032 A 
HETATM   25  C   UNL     1      31.941  49.825  42.775  1.00  0.00     0.017 A 
HETATM   26  C   UNL     1      32.308  50.872  43.620  1.00  0.00     0.001 A 
HETATM   27  C   UNL     1      33.543  51.497  43.460  1.00  0.00     0.000 A 
HETATM   28  C   UNL     1      34.417  51.073  42.459  1.00  0.00     0.001 A 
HETATM   29  C   UNL     1      34.055  50.026  41.608  1.00  0.00     0.017 A 
ENDBRANCH  21  24
ENDBRANCH  19  20
ENDBRANCH   3  19
TORSDOF 6
ENDMDL
MODEL 10
REMARK VINA RESULT:      -7.9      3.114      5.442
REMARK  6 active torsions:
REMARK  status: ('A' for Active; 'I' for Inactive)
REMARK    1  A    between atoms: C_2  and  C_3 
REMARK    2  A    between atoms: C_8  and  C_9 
REMARK    3  A    between atoms: C_9  and  N_10 
REMARK    4  A    between atoms: C_12  and  C_13 
REMARK    5  A    between atoms: C_13  and  N_14 
REMARK       I    between atoms: N_14  and  C_15 
REMARK    6  A    between atoms: C_15  and  C_16 
ROOT
HETATM    1  N   UNL     1      22.562  48.612  48.854  1.00  0.00    -0.061 N 
HETATM    2  H   UNL     1      22.497  49.078  49.766  1.00  0.00     0.280 HD
HETATM    3  C   UNL     1      23.878  47.810  48.860  1.00  0.00     0.206 C 
HETATM    4  C   UNL     1      25.027  48.798  49.147  1.00  0.00     0.035 C 
HETATM    5  C   UNL     1      25.065  49.955  48.157  1.00  0.00     0.004 C 
HETATM    6  C   UNL     1      23.728  50.675  48.110  1.00  0.00     0.028 C 
HETATM    7  C   UNL     1      22.594  49.710  47.806  1.00  0.00     0.236 C 
ENDROOT
BRANCH   1   8
HETATM    8  C   UNL     1      21.275  47.798  48.733  1.00  0.00     0.277 C 
BRANCH   8   9
HETATM    9  C   UNL     1      20.128  48.453  48.049  1.00  0.00     0.012 A 
HETATM   10  C   UNL     1      19.189  49.448  48.501  1.00  0.00     0.071 A 
HETATM   11  N   UNL     1      18.344  49.773  47.509  1.00  0.00    -0.178 NA
HETATM   12  N   UNL     1      18.649  48.974  46.492  1.00  0.00    -0.288 N 
HETATM   13  H   UNL     1      18.098  49.037  45.640  1.00  0.00     0.188 HD
HETATM   14  C   UNL     1      19.699  48.157  46.766  1.00  0.00     0.120 A 
BRANCH  10  15
HETATM   15  C   UNL     1      18.975  50.193  49.827  1.00  0.00    -0.004 C 
HETATM   16  C   UNL     1      20.213  51.074  50.134  1.00  0.00     0.021 C 
HETATM   17  C   UNL     1      18.804  49.171  50.973  1.00  0.00     0.021 C 
HETATM   18  C   UNL     1      17.759  51.129  49.853  1.00  0.00     0.021 C 
ENDBRANCH  10  15
ENDBRANCH   8   9
ENDBRANCH   1   8
BRANCH   3  19
HETATM   19  C   UNL     1      23.873  46.690  49.945  1.00  0.00     0.156 C 
BRANCH  19  20
HETATM   20  N   UNL     1      24.919  46.807  50.948  1.00  0.00    -0.355 N 
HETATM   21  C   UNL     1      25.046  45.849  51.938  1.00  0.00     0.251 C 
HETATM   22  O   UNL     1      24.368  44.826  51.933  1.00  0.00    -0.268 OA
HETATM   23  H   UNL     1      25.289  47.731  51.148  1.00  0.00     0.162 HD
BRANCH  21  24
HETATM   24  C   UNL     1      26.020  46.117  53.029  1.00  0.00     0.032 A 
HETATM   25  C   UNL     1      25.941  47.346  53.698  1.00  0.00     0.017 A 
HETATM   26  C   UNL     1      26.828  47.639  54.734  1.00  0.00     0.001 A 
HETATM   27  C   UNL     1      27.791  46.705  55.111  1.00  0.00     0.000 A 
HETATM   28  C   UNL     1      27.864  45.474  54.459  1.00  0.00     0.001 A 
HETATM   29  C   UNL     1      26.979  45.175  53.421  1.00  0.00     0.017 A 
ENDBRANCH  21  24
ENDBRANCH  19  20
ENDBRANCH   3  19
TORSDOF 6
ENDMDL
