MODEL 1
REMARK VINA RESULT:     -10.9      0.000      0.000
REMARK  7 active torsions:
REMARK  status: ('A' for Active; 'I' for Inactive)
REMARK       I    between atoms: N_2  and  C_3 
REMARK    1  A    between atoms: N_2  and  C_22 
REMARK    2  A    between atoms: C_3  and  C_4 
REMARK    3  A    between atoms: C_4  and  N_5 
REMARK    4  A    between atoms: N_5  and  C_6 
REMARK    5  A    between atoms: C_7  and  O_8 
REMARK    6  A    between atoms: C_22  and  C_23 
REMARK       I    between atoms: C_23  and  N_24 
REMARK    7  A    between atoms: N_24  and  C_25 
ROOT
HETATM    1  C   UNL     1      25.482  46.133  50.813  1.00  0.00     0.195 C 
ENDROOT
BRANCH   1   2
HETATM    2  C   UNL     1      25.593  47.572  50.265  1.00  0.00     0.233 C 
HETATM    3  N   UNL     1      24.672  47.972  49.296  1.00  0.00    -0.347 N 
HETATM    4  C   UNL     1      24.898  49.240  48.624  1.00  0.00     0.153 C 
HETATM    5  O   UNL     1      26.571  48.265  50.563  1.00  0.00    -0.272 OA
BRANCH   3   6
HETATM    6  C   UNL     1      23.307  47.431  49.226  1.00  0.00     0.228 C 
BRANCH   6   7
HETATM    7  C   UNL     1      22.193  48.379  48.757  1.00  0.00     0.240 C 
HETATM    8  N   UNL     1      21.591  49.109  49.765  1.00  0.00    -0.324 N 
HETATM    9  H   UNL     1      22.226  49.342  50.526  1.00  0.00     0.169 HD
HETATM   10  O   UNL     1      21.905  48.433  47.562  1.00  0.00    -0.271 OA
BRANCH   8  11
HETATM   11  C   UNL     1      20.509  50.003  49.560  1.00  0.00     0.056 A 
HETATM   12  C   UNL     1      19.185  49.792  49.980  1.00  0.00     0.060 A 
HETATM   13 CL   UNL     1      18.722  48.534  51.078  1.00  0.00    -0.082 Cl
HETATM   14  C   UNL     1      18.183  50.712  49.637  1.00  0.00     0.026 A 
HETATM   15  C   UNL     1      18.496  51.861  48.911  1.00  0.00     0.002 A 
HETATM   16  C   UNL     1      19.816  52.114  48.558  1.00  0.00     0.002 A 
HETATM   17  C   UNL     1      20.816  51.200  48.897  1.00  0.00     0.031 A 
ENDBRANCH   8  11
ENDBRANCH   6   7
ENDBRANCH   3   6
ENDBRANCH   1   2
BRANCH   1  18
HETATM   18  N   UNL     1      25.212  46.265  52.254  1.00  0.00    -0.282 NA
HETATM   19  H   UNL     1      24.485  45.589  52.505  1.00  0.00     0.128 HD
BRANCH  18  20
HETATM   20  C   UNL     1      26.274  46.175  53.179  1.00  0.00     0.045 A 
HETATM   21  C   UNL     1      26.476  47.027  54.287  1.00  0.00     0.090 A 
HETATM   22  C   UNL     1      27.518  46.818  55.215  1.00  0.00     0.053 A 
HETATM   23  C   UNL     1      28.328  45.678  55.086  1.00  0.00     0.014 A 
HETATM   24  C   UNL     1      28.077  44.818  54.028  1.00  0.00     0.089 A 
HETATM   25  C   UNL     1      29.417  45.106  55.805  1.00  0.00     0.011 A 
HETATM   26  O   UNL     1      28.929  43.758  54.054  1.00  0.00    -0.309 OA
HETATM   27  C   UNL     1      27.080  45.021  53.076  1.00  0.00     0.064 A 
HETATM   28  C   UNL     1      29.742  43.932  55.132  1.00  0.00     0.087 A 
HETATM   29  C   UNL     1      30.759  43.063  55.521  1.00  0.00     0.038 A 
HETATM   30  C   UNL     1      31.482  43.418  56.664  1.00  0.00     0.003 A 
HETATM   31  C   UNL     1      31.188  44.588  57.369  1.00  0.00     0.001 A 
HETATM   32  C   UNL     1      30.157  45.444  56.954  1.00  0.00     0.015 A 
BRANCH  21  33
HETATM   33  O   UNL     1      25.679  48.135  54.461  1.00  0.00    -0.354 OA
HETATM   34  C   UNL     1      26.040  48.856  55.643  1.00  0.00     0.210 C 
ENDBRANCH  21  33
ENDBRANCH  18  20
ENDBRANCH   1  18
TORSDOF 7
ENDMDL
MODEL 2
REMARK VINA RESULT:     -10.6      1.364      2.443
REMARK  7 active torsions:
REMARK  status: ('A' for Active; 'I' for Inactive)
REMARK       I    between atoms: N_2  and  C_3 
REMARK    1  A    between atoms: N_2  and  C_22 
REMARK    2  A    between atoms: C_3  and  C_4 
REMARK    3  A    between atoms: C_4  and  N_5 
REMARK    4  A    between atoms: N_5  and  C_6 
REMARK    5  A    between atoms: C_7  and  O_8 
REMARK    6  A    between atoms: C_22  and  C_23 
REMARK       I    between atoms: C_23  and  N_24 
REMARK    7  A    between atoms: N_24  and  C_25 
ROOT
HETATM    1  C   UNL     1      24.912  45.832  50.165  1.00  0.00     0.195 C 
ENDROOT
BRANCH   1   2
HETATM    2  C   UNL     1      24.950  47.369  50.027  1.00  0.00     0.233 C 
HETATM    3  N   UNL     1      24.060  47.963  49.130  1.00  0.00    -0.347 N 
HETATM    4  C   UNL     1      24.231  49.375  48.836  1.00  0.00     0.153 C 
HETATM    5  O   UNL     1      25.855  48.009  50.571  1.00  0.00    -0.272 OA
BRANCH   3   6
HETATM    6  C   UNL     1      22.745  47.387  48.816  1.00  0.00     0.228 C 
BRANCH   6   7
HETATM    7  C   UNL     1      21.596  48.363  48.519  1.00  0.00     0.240 C 
HETATM    8  N   UNL     1      21.268  49.206  49.564  1.00  0.00    -0.324 N 
HETATM    9  H   UNL     1      22.067  49.458  50.143  1.00  0.00     0.169 HD
HETATM   10  O   UNL     1      21.052  48.340  47.417  1.00  0.00    -0.271 OA
BRANCH   8  11
HETATM   11  C   UNL     1      20.208  50.147  49.521  1.00  0.00     0.056 A 
HETATM   12  C   UNL     1      18.954  49.994  50.138  1.00  0.00     0.060 A 
HETATM   13 CL   UNL     1      18.609  48.757  51.301  1.00  0.00    -0.082 Cl
HETATM   14  C   UNL     1      17.954  50.958  49.947  1.00  0.00     0.026 A 
HETATM   15  C   UNL     1      18.202  52.093  49.175  1.00  0.00     0.002 A 
HETATM   16  C   UNL     1      19.463  52.288  48.624  1.00  0.00     0.002 A 
HETATM   17  C   UNL     1      20.462  51.330  48.812  1.00  0.00     0.031 A 
ENDBRANCH   8  11
ENDBRANCH   6   7
ENDBRANCH   3   6
ENDBRANCH   1   2
BRANCH   1  18
HETATM   18  N   UNL     1      24.714  45.556  51.598  1.00  0.00    -0.282 NA
HETATM   19  H   UNL     1      23.863  44.996  51.700  1.00  0.00     0.128 HD
BRANCH  18  20
HETATM   20  C   UNL     1      25.753  44.970  52.351  1.00  0.00     0.045 A 
HETATM   21  C   UNL     1      26.333  43.705  52.109  1.00  0.00     0.090 A 
HETATM   22  C   UNL     1      27.430  43.227  52.857  1.00  0.00     0.053 A 
HETATM   23  C   UNL     1      28.021  44.066  53.815  1.00  0.00     0.014 A 
HETATM   24  C   UNL     1      27.478  45.330  53.997  1.00  0.00     0.089 A 
HETATM   25  C   UNL     1      29.121  43.980  54.717  1.00  0.00     0.011 A 
HETATM   26  O   UNL     1      28.173  46.023  54.939  1.00  0.00    -0.309 OA
HETATM   27  C   UNL     1      26.373  45.812  53.298  1.00  0.00     0.064 A 
HETATM   28  C   UNL     1      29.170  45.205  55.375  1.00  0.00     0.087 A 
HETATM   29  C   UNL     1      30.115  45.537  56.344  1.00  0.00     0.038 A 
HETATM   30  C   UNL     1      31.063  44.556  56.652  1.00  0.00     0.003 A 
HETATM   31  C   UNL     1      31.051  43.313  56.014  1.00  0.00     0.001 A 
HETATM   32  C   UNL     1      30.087  43.008  55.041  1.00  0.00     0.015 A 
BRANCH  21  33
HETATM   33  O   UNL     1      25.799  42.871  51.155  1.00  0.00    -0.354 OA
HETATM   34  C   UNL     1      26.712  42.666  50.072  1.00  0.00     0.210 C 
ENDBRANCH  21  33
ENDBRANCH  18  20
ENDBRANCH   1  18
TORSDOF 7
ENDMDL
MODEL 3
REMARK VINA RESULT:     -10.5      2.326      3.599
REMARK  7 active torsions:
REMARK  status: ('A' for Active; 'I' for Inactive)
REMARK       I    between atoms: N_2  and  C_3 
REMARK    1  A    between atoms: N_2  and  C_22 
REMARK    2  A    between atoms: C_3  and  C_4 
REMARK    3  A    between atoms: C_4  and  N_5 
REMARK    4  A    between atoms: N_5  and  C_6 
REMARK    5  A    between atoms: C_7  and  O_8 
REMARK    6  A    between atoms: C_22  and  C_23 
REMARK       I    between atoms: C_23  and  N_24 
REMARK    7  A    between atoms: N_24  and  C_25 
ROOT
HETATM    1  C   UNL     1      25.078  44.991  51.932  1.00  0.00     0.195 C 
ENDROOT
BRANCH   1   2
HETATM    2  C   UNL     1      24.115  44.201  51.022  1.00  0.00     0.233 C 
HETATM    3  N   UNL     1      23.493  44.891  49.980  1.00  0.00    -0.347 N 
HETATM    4  C   UNL     1      22.430  44.215  49.255  1.00  0.00     0.153 C 
HETATM    5  O   UNL     1      23.793  43.049  51.327  1.00  0.00    -0.272 OA
BRANCH   3   6
HETATM    6  C   UNL     1      24.112  46.040  49.305  1.00  0.00     0.228 C 
BRANCH   6   7
HETATM    7  C   UNL     1      23.514  47.429  49.577  1.00  0.00     0.240 C 
HETATM    8  N   UNL     1      22.330  47.690  48.912  1.00  0.00    -0.324 N 
HETATM    9  H   UNL     1      21.754  46.861  48.776  1.00  0.00     0.169 HD
HETATM   10  O   UNL     1      24.095  48.202  50.336  1.00  0.00    -0.271 OA
BRANCH   8  11
HETATM   11  C   UNL     1      21.637  48.925  48.981  1.00  0.00     0.056 A 
HETATM   12  C   UNL     1      22.138  50.167  48.555  1.00  0.00     0.060 A 
HETATM   13 CL   UNL     1      23.575  50.340  47.603  1.00  0.00    -0.082 Cl
HETATM   14  C   UNL     1      21.389  51.335  48.760  1.00  0.00     0.026 A 
HETATM   15  C   UNL     1      20.127  51.273  49.352  1.00  0.00     0.002 A 
HETATM   16  C   UNL     1      19.594  50.039  49.707  1.00  0.00     0.002 A 
HETATM   17  C   UNL     1      20.337  48.874  49.505  1.00  0.00     0.031 A 
ENDBRANCH   8  11
ENDBRANCH   6   7
ENDBRANCH   3   6
ENDBRANCH   1   2
BRANCH   1  18
HETATM   18  N   UNL     1      26.437  44.566  51.555  1.00  0.00    -0.282 NA
HETATM   19  H   UNL     1      26.840  45.287  50.950  1.00  0.00     0.128 HD
BRANCH  18  20
HETATM   20  C   UNL     1      27.368  44.222  52.558  1.00  0.00     0.045 A 
HETATM   21  C   UNL     1      28.311  43.174  52.481  1.00  0.00     0.090 A 
HETATM   22  C   UNL     1      29.267  42.947  53.494  1.00  0.00     0.053 A 
HETATM   23  C   UNL     1      29.343  43.844  54.573  1.00  0.00     0.014 A 
HETATM   24  C   UNL     1      28.450  44.905  54.602  1.00  0.00     0.089 A 
HETATM   25  C   UNL     1      30.156  43.986  55.734  1.00  0.00     0.011 A 
HETATM   26  O   UNL     1      28.666  45.688  55.693  1.00  0.00    -0.309 OA
HETATM   27  C   UNL     1      27.472  45.128  53.634  1.00  0.00     0.064 A 
HETATM   28  C   UNL     1      29.700  45.131  56.380  1.00  0.00     0.087 A 
HETATM   29  C   UNL     1      30.240  45.630  57.564  1.00  0.00     0.038 A 
HETATM   30  C   UNL     1      31.307  44.913  58.114  1.00  0.00     0.003 A 
HETATM   31  C   UNL     1      31.795  43.758  57.498  1.00  0.00     0.001 A 
HETATM   32  C   UNL     1      31.232  43.280  56.306  1.00  0.00     0.015 A 
BRANCH  21  33
HETATM   33  O   UNL     1      28.285  42.297  51.421  1.00  0.00    -0.354 OA
HETATM   34  C   UNL     1      27.372  41.221  51.658  1.00  0.00     0.210 C 
ENDBRANCH  21  33
ENDBRANCH  18  20
ENDBRANCH   1  18
TORSDOF 7
ENDMDL
MODEL 4
REMARK VINA RESULT:     -10.2      3.140      4.723
REMARK  7 active torsions:
REMARK  status: ('A' for Active; 'I' for Inactive)
REMARK       I    between atoms: N_2  and  C_3 
REMARK    1  A    between atoms: N_2  and  C_22 
REMARK    2  A    between atoms: C_3  and  C_4 
REMARK    3  A    between atoms: C_4  and  N_5 
REMARK    4  A    between atoms: N_5  and  C_6 
REMARK    5  A    between atoms: C_7  and  O_8 
REMARK    6  A    between atoms: C_22  and  C_23 
REMARK       I    between atoms: C_23  and  N_24 
REMARK    7  A    between atoms: N_24  and  C_25 
ROOT
HETATM    1  C   UNL     1      25.005  43.663  51.913  1.00  0.00     0.195 C 
ENDROOT
BRANCH   1   2
HETATM    2  C   UNL     1      24.720  42.800  50.666  1.00  0.00     0.233 C 
HETATM    3  N   UNL     1      23.493  42.972  50.023  1.00  0.00    -0.347 N 
HETATM    4  C   UNL     1      23.130  42.022  48.985  1.00  0.00     0.153 C 
HETATM    5  O   UNL     1      25.491  41.882  50.369  1.00  0.00    -0.272 OA
BRANCH   3   6
HETATM    6  C   UNL     1      22.770  44.251  50.017  1.00  0.00     0.228 C 
BRANCH   6   7
HETATM    7  C   UNL     1      23.416  45.426  49.267  1.00  0.00     0.240 C 
HETATM    8  N   UNL     1      24.051  46.350  50.076  1.00  0.00    -0.324 N 
HETATM    9  H   UNL     1      24.465  45.937  50.910  1.00  0.00     0.169 HD
HETATM   10  O   UNL     1      23.333  45.482  48.042  1.00  0.00    -0.271 OA
BRANCH   8  11
HETATM   11  C   UNL     1      24.667  47.534  49.596  1.00  0.00     0.056 A 
HETATM   12  C   UNL     1      23.995  48.637  49.042  1.00  0.00     0.060 A 
HETATM   13 CL   UNL     1      22.278  48.850  49.130  1.00  0.00    -0.082 Cl
HETATM   14  C   UNL     1      24.725  49.714  48.519  1.00  0.00     0.026 A 
HETATM   15  C   UNL     1      26.119  49.720  48.575  1.00  0.00     0.002 A 
HETATM   16  C   UNL     1      26.787  48.666  49.188  1.00  0.00     0.002 A 
HETATM   17  C   UNL     1      26.064  47.592  49.711  1.00  0.00     0.031 A 
ENDBRANCH   8  11
ENDBRANCH   6   7
ENDBRANCH   3   6
ENDBRANCH   1   2
BRANCH   1  18
HETATM   18  N   UNL     1      26.372  44.185  51.745  1.00  0.00    -0.282 NA
HETATM   19  H   UNL     1      26.310  45.194  51.583  1.00  0.00     0.128 HD
BRANCH  18  20
HETATM   20  C   UNL     1      27.347  43.928  52.731  1.00  0.00     0.045 A 
HETATM   21  C   UNL     1      28.356  42.943  52.655  1.00  0.00     0.090 A 
HETATM   22  C   UNL     1      29.349  42.806  53.649  1.00  0.00     0.053 A 
HETATM   23  C   UNL     1      29.391  43.732  54.704  1.00  0.00     0.014 A 
HETATM   24  C   UNL     1      28.429  44.732  54.731  1.00  0.00     0.089 A 
HETATM   25  C   UNL     1      30.220  43.957  55.841  1.00  0.00     0.011 A 
HETATM   26  O   UNL     1      28.618  45.555  55.798  1.00  0.00    -0.309 OA
HETATM   27  C   UNL     1      27.416  44.866  53.783  1.00  0.00     0.064 A 
HETATM   28  C   UNL     1      29.704  45.085  56.471  1.00  0.00     0.087 A 
HETATM   29  C   UNL     1      30.237  45.648  57.629  1.00  0.00     0.038 A 
HETATM   30  C   UNL     1      31.362  45.017  58.169  1.00  0.00     0.003 A 
HETATM   31  C   UNL     1      31.912  43.882  57.567  1.00  0.00     0.001 A 
HETATM   32  C   UNL     1      31.354  43.339  56.401  1.00  0.00     0.015 A 
BRANCH  21  33
HETATM   33  O   UNL     1      28.364  42.041  51.617  1.00  0.00    -0.354 OA
HETATM   34  C   UNL     1      28.751  40.737  52.062  1.00  0.00     0.210 C 
ENDBRANCH  21  33
ENDBRANCH  18  20
ENDBRANCH   1  18
TORSDOF 7
ENDMDL
MODEL 5
REMARK VINA RESULT:     -10.1      2.202      3.193
REMARK  7 active torsions:
REMARK  status: ('A' for Active; 'I' for Inactive)
REMARK       I    between atoms: N_2  and  C_3 
REMARK    1  A    between atoms: N_2  and  C_22 
REMARK    2  A    between atoms: C_3  and  C_4 
REMARK    3  A    between atoms: C_4  and  N_5 
REMARK    4  A    between atoms: N_5  and  C_6 
REMARK    5  A    between atoms: C_7  and  O_8 
REMARK    6  A    between atoms: C_22  and  C_23 
REMARK       I    between atoms: C_23  and  N_24 
REMARK    7  A    between atoms: N_24  and  C_25 
ROOT
HETATM    1  C   UNL     1      25.020  44.266  52.180  1.00  0.00     0.195 C 
ENDROOT
BRANCH   1   2
HETATM    2  C   UNL     1      25.334  43.564  50.842  1.00  0.00     0.233 C 
HETATM    3  N   UNL     1      24.273  43.326  49.967  1.00  0.00    -0.347 N 
HETATM    4  C   UNL     1      24.520  42.482  48.811  1.00  0.00     0.153 C 
HETATM    5  O   UNL     1      26.459  43.090  50.651  1.00  0.00    -0.272 OA
BRANCH   3   6
HETATM    6  C   UNL     1      23.088  44.192  49.900  1.00  0.00     0.228 C 
BRANCH   6   7
HETATM    7  C   UNL     1      23.202  45.486  49.079  1.00  0.00     0.240 C 
HETATM    8  N   UNL     1      23.574  46.602  49.806  1.00  0.00    -0.324 N 
HETATM    9  H   UNL     1      24.198  46.387  50.581  1.00  0.00     0.169 HD
HETATM   10  O   UNL     1      22.963  45.462  47.873  1.00  0.00    -0.271 OA
BRANCH   8  11
HETATM   11  C   UNL     1      23.689  47.904  49.256  1.00  0.00     0.056 A 
HETATM   12  C   UNL     1      22.620  48.696  48.801  1.00  0.00     0.060 A 
HETATM   13 CL   UNL     1      20.957  48.322  49.112  1.00  0.00    -0.082 Cl
HETATM   14  C   UNL     1      22.872  49.934  48.192  1.00  0.00     0.026 A 
HETATM   15  C   UNL     1      24.177  50.409  48.067  1.00  0.00     0.002 A 
HETATM   16  C   UNL     1      25.232  49.666  48.582  1.00  0.00     0.002 A 
HETATM   17  C   UNL     1      24.986  48.433  49.189  1.00  0.00     0.031 A 
ENDBRANCH   8  11
ENDBRANCH   6   7
ENDBRANCH   3   6
ENDBRANCH   1   2
BRANCH   1  18
HETATM   18  N   UNL     1      25.907  45.440  52.243  1.00  0.00    -0.282 NA
HETATM   19  H   UNL     1      25.325  46.282  52.213  1.00  0.00     0.128 HD
BRANCH  18  20
HETATM   20  C   UNL     1      26.843  45.556  53.292  1.00  0.00     0.045 A 
HETATM   21  C   UNL     1      26.782  46.488  54.352  1.00  0.00     0.090 A 
HETATM   22  C   UNL     1      27.715  46.483  55.411  1.00  0.00     0.053 A 
HETATM   23  C   UNL     1      28.683  45.467  55.462  1.00  0.00     0.014 A 
HETATM   24  C   UNL     1      28.691  44.522  54.446  1.00  0.00     0.089 A 
HETATM   25  C   UNL     1      29.739  45.098  56.346  1.00  0.00     0.011 A 
HETATM   26  O   UNL     1      29.670  43.600  54.651  1.00  0.00    -0.309 OA
HETATM   27  C   UNL     1      27.806  44.527  53.370  1.00  0.00     0.064 A 
HETATM   28  C   UNL     1      30.306  43.949  55.803  1.00  0.00     0.087 A 
HETATM   29  C   UNL     1      31.374  43.258  56.372  1.00  0.00     0.038 A 
HETATM   30  C   UNL     1      31.888  43.777  57.565  1.00  0.00     0.003 A 
HETATM   31  C   UNL     1      31.348  44.929  58.144  1.00  0.00     0.001 A 
HETATM   32  C   UNL     1      30.272  45.602  57.548  1.00  0.00     0.015 A 
BRANCH  21  33
HETATM   33  O   UNL     1      25.826  47.476  54.349  1.00  0.00    -0.354 OA
HETATM   34  C   UNL     1      26.094  48.463  55.349  1.00  0.00     0.210 C 
ENDBRANCH  21  33
ENDBRANCH  18  20
ENDBRANCH   1  18
TORSDOF 7
ENDMDL
MODEL 6
REMARK VINA RESULT:     -10.0      2.379      3.611
REMARK  7 active torsions:
REMARK  status: ('A' for Active; 'I' for Inactive)
REMARK       I    between atoms: N_2  and  C_3 
REMARK    1  A    between atoms: N_2  and  C_22 
REMARK    2  A    between atoms: C_3  and  C_4 
REMARK    3  A    between atoms: C_4  and  N_5 
REMARK    4  A    between atoms: N_5  and  C_6 
REMARK    5  A    between atoms: C_7  and  O_8 
REMARK    6  A    between atoms: C_22  and  C_23 
REMARK       I    between atoms: C_23  and  N_24 
REMARK    7  A    between atoms: N_24  and  C_25 
ROOT
HETATM    1  C   UNL     1      23.948  44.501  50.633  1.00  0.00     0.195 C 
ENDROOT
BRANCH   1   2
HETATM    2  C   UNL     1      22.808  44.182  49.643  1.00  0.00     0.233 C 
HETATM    3  N   UNL     1      22.181  45.254  49.007  1.00  0.00    -0.347 N 
HETATM    4  C   UNL     1      20.975  44.982  48.244  1.00  0.00     0.153 C 
HETATM    5  O   UNL     1      22.372  43.029  49.564  1.00  0.00    -0.272 OA
BRANCH   3   6
HETATM    6  C   UNL     1      22.873  46.514  48.702  1.00  0.00     0.228 C 
BRANCH   6   7
HETATM    7  C   UNL     1      22.006  47.741  48.382  1.00  0.00     0.240 C 
HETATM    8  N   UNL     1      21.504  48.400  49.489  1.00  0.00    -0.324 N 
HETATM    9  H   UNL     1      22.125  48.362  50.295  1.00  0.00     0.169 HD
HETATM   10  O   UNL     1      21.811  48.055  47.209  1.00  0.00    -0.271 OA
BRANCH   8  11
HETATM   11  C   UNL     1      20.641  49.524  49.419  1.00  0.00     0.056 A 
HETATM   12  C   UNL     1      19.344  49.592  49.955  1.00  0.00     0.060 A 
HETATM   13 CL   UNL     1      18.701  48.411  51.048  1.00  0.00    -0.082 Cl
HETATM   14  C   UNL     1      18.554  50.730  49.742  1.00  0.00     0.026 A 
HETATM   15  C   UNL     1      19.058  51.819  49.030  1.00  0.00     0.002 A 
HETATM   16  C   UNL     1      20.366  51.788  48.561  1.00  0.00     0.002 A 
HETATM   17  C   UNL     1      21.156  50.657  48.772  1.00  0.00     0.031 A 
ENDBRANCH   8  11
ENDBRANCH   6   7
ENDBRANCH   3   6
ENDBRANCH   1   2
BRANCH   1  18
HETATM   18  N   UNL     1      24.835  43.325  50.626  1.00  0.00    -0.282 NA
HETATM   19  H   UNL     1      25.189  43.198  49.674  1.00  0.00     0.128 HD
BRANCH  18  20
HETATM   20  C   UNL     1      25.907  43.250  51.540  1.00  0.00     0.045 A 
HETATM   21  C   UNL     1      26.923  42.269  51.538  1.00  0.00     0.090 A 
HETATM   22  C   UNL     1      28.011  42.313  52.436  1.00  0.00     0.053 A 
HETATM   23  C   UNL     1      28.138  43.413  53.301  1.00  0.00     0.014 A 
HETATM   24  C   UNL     1      27.164  44.399  53.246  1.00  0.00     0.089 A 
HETATM   25  C   UNL     1      29.070  43.838  54.291  1.00  0.00     0.011 A 
HETATM   26  O   UNL     1      27.441  45.400  54.126  1.00  0.00    -0.309 OA
HETATM   27  C   UNL     1      26.061  44.360  52.397  1.00  0.00     0.064 A 
HETATM   28  C   UNL     1      28.597  45.060  54.760  1.00  0.00     0.087 A 
HETATM   29  C   UNL     1      29.229  45.821  55.740  1.00  0.00     0.038 A 
HETATM   30  C   UNL     1      30.414  45.299  56.268  1.00  0.00     0.003 A 
HETATM   31  C   UNL     1      30.925  44.076  55.825  1.00  0.00     0.001 A 
HETATM   32  C   UNL     1      30.266  43.332  54.836  1.00  0.00     0.015 A 
BRANCH  21  33
HETATM   33  O   UNL     1      26.847  41.196  50.681  1.00  0.00    -0.354 OA
HETATM   34  C   UNL     1      28.114  40.543  50.550  1.00  0.00     0.210 C 
ENDBRANCH  21  33
ENDBRANCH  18  20
ENDBRANCH   1  18
TORSDOF 7
ENDMDL
MODEL 7
REMARK VINA RESULT:      -9.8      1.837      2.231
REMARK  7 active torsions:
REMARK  status: ('A' for Active; 'I' for Inactive)
REMARK       I    between atoms: N_2  and  C_3 
REMARK    1  A    between atoms: N_2  and  C_22 
REMARK    2  A    between atoms: C_3  and  C_4 
REMARK    3  A    between atoms: C_4  and  N_5 
REMARK    4  A    between atoms: N_5  and  C_6 
REMARK    5  A    between atoms: C_7  and  O_8 
REMARK    6  A    between atoms: C_22  and  C_23 
REMARK       I    between atoms: C_23  and  N_24 
REMARK    7  A    between atoms: N_24  and  C_25 
ROOT
HETATM    1  C   UNL     1      26.736  44.954  50.199  1.00  0.00     0.195 C 
ENDROOT
BRANCH   1   2
HETATM    2  C   UNL     1      25.436  44.808  49.382  1.00  0.00     0.233 C 
HETATM    3  N   UNL     1      24.405  45.716  49.632  1.00  0.00    -0.347 N 
HETATM    4  C   UNL     1      23.110  45.459  49.027  1.00  0.00     0.153 C 
HETATM    5  O   UNL     1      25.273  43.816  48.663  1.00  0.00    -0.272 OA
BRANCH   3   6
HETATM    6  C   UNL     1      24.651  47.092  50.086  1.00  0.00     0.228 C 
BRANCH   6   7
HETATM    7  C   UNL     1      23.888  48.220  49.375  1.00  0.00     0.240 C 
HETATM    8  N   UNL     1      22.526  48.238  49.613  1.00  0.00    -0.324 N 
HETATM    9  H   UNL     1      22.277  47.907  50.544  1.00  0.00     0.169 HD
HETATM   10  O   UNL     1      24.501  49.010  48.660  1.00  0.00    -0.271 OA
BRANCH   8  11
HETATM   11  C   UNL     1      21.628  49.161  49.019  1.00  0.00     0.056 A 
HETATM   12  C   UNL     1      20.924  48.958  47.819  1.00  0.00     0.060 A 
HETATM   13 CL   UNL     1      20.816  47.421  47.026  1.00  0.00    -0.082 Cl
HETATM   14  C   UNL     1      20.134  49.985  47.285  1.00  0.00     0.026 A 
HETATM   15  C   UNL     1      20.007  51.202  47.955  1.00  0.00     0.002 A 
HETATM   16  C   UNL     1      20.640  51.383  49.180  1.00  0.00     0.002 A 
HETATM   17  C   UNL     1      21.428  50.362  49.714  1.00  0.00     0.031 A 
ENDBRANCH   8  11
ENDBRANCH   6   7
ENDBRANCH   3   6
ENDBRANCH   1   2
BRANCH   1  18
HETATM   18  N   UNL     1      26.495  44.265  51.478  1.00  0.00    -0.282 NA
HETATM   19  H   UNL     1      26.581  43.257  51.319  1.00  0.00     0.128 HD
BRANCH  18  20
HETATM   20  C   UNL     1      27.241  44.624  52.620  1.00  0.00     0.045 A 
HETATM   21  C   UNL     1      26.911  45.654  53.528  1.00  0.00     0.090 A 
HETATM   22  C   UNL     1      27.666  45.895  54.696  1.00  0.00     0.053 A 
HETATM   23  C   UNL     1      28.726  45.030  55.015  1.00  0.00     0.014 A 
HETATM   24  C   UNL     1      28.997  43.985  54.144  1.00  0.00     0.089 A 
HETATM   25  C   UNL     1      29.669  44.910  56.076  1.00  0.00     0.011 A 
HETATM   26  O   UNL     1      30.033  43.231  54.602  1.00  0.00    -0.309 OA
HETATM   27  C   UNL     1      28.292  43.749  52.965  1.00  0.00     0.064 A 
HETATM   28  C   UNL     1      30.441  43.791  55.774  1.00  0.00     0.087 A 
HETATM   29  C   UNL     1      31.482  43.320  56.570  1.00  0.00     0.038 A 
HETATM   30  C   UNL     1      31.744  44.035  57.743  1.00  0.00     0.003 A 
HETATM   31  C   UNL     1      30.994  45.163  58.084  1.00  0.00     0.001 A 
HETATM   32  C   UNL     1      29.950  45.615  57.262  1.00  0.00     0.015 A 
BRANCH  21  33
HETATM   33  O   UNL     1      25.859  46.499  53.263  1.00  0.00    -0.354 OA
HETATM   34  C   UNL     1      25.868  47.633  54.137  1.00  0.00     0.210 C 
ENDBRANCH  21  33
ENDBRANCH  18  20
ENDBRANCH   1  18
TORSDOF 7
ENDMDL
MODEL 8
REMARK VINA RESULT:      -9.8      2.346      2.985
REMARK  7 active torsions:
REMARK  status: ('A' for Active; 'I' for Inactive)
REMARK       I    between atoms: N_2  and  C_3 
REMARK    1  A    between atoms: N_2  and  C_22 
REMARK    2  A    between atoms: C_3  and  C_4 
REMARK    3  A    between atoms: C_4  and  N_5 
REMARK    4  A    between atoms: N_5  and  C_6 
REMARK    5  A    between atoms: C_7  and  O_8 
REMARK    6  A    between atoms: C_22  and  C_23 
REMARK       I    between atoms: C_23  and  N_24 
REMARK    7  A    between atoms: N_24  and  C_25 
ROOT
HETATM    1  C   UNL     1      24.738  43.717  49.674  1.00  0.00     0.195 C 
ENDROOT
BRANCH   1   2
HETATM    2  C   UNL     1      23.235  43.625  49.339  1.00  0.00     0.233 C 
HETATM    3  N   UNL     1      22.549  44.816  49.096  1.00  0.00    -0.347 N 
HETATM    4  C   UNL     1      21.101  44.759  48.992  1.00  0.00     0.153 C 
HETATM    5  O   UNL     1      22.648  42.544  49.455  1.00  0.00    -0.272 OA
BRANCH   3   6
HETATM    6  C   UNL     1      23.196  46.004  48.523  1.00  0.00     0.228 C 
BRANCH   6   7
HETATM    7  C   UNL     1      22.303  47.211  48.199  1.00  0.00     0.240 C 
HETATM    8  N   UNL     1      22.073  48.065  49.262  1.00  0.00    -0.324 N 
HETATM    9  H   UNL     1      22.857  48.120  49.910  1.00  0.00     0.169 HD
HETATM   10  O   UNL     1      21.857  47.347  47.061  1.00  0.00    -0.271 OA
BRANCH   8  11
HETATM   11  C   UNL     1      21.239  49.210  49.195  1.00  0.00     0.056 A 
HETATM   12  C   UNL     1      21.598  50.450  48.640  1.00  0.00     0.060 A 
HETATM   13 CL   UNL     1      23.022  50.689  47.682  1.00  0.00    -0.082 Cl
HETATM   14  C   UNL     1      20.715  51.536  48.715  1.00  0.00     0.026 A 
HETATM   15  C   UNL     1      19.459  51.388  49.304  1.00  0.00     0.002 A 
HETATM   16  C   UNL     1      19.068  50.145  49.787  1.00  0.00     0.002 A 
HETATM   17  C   UNL     1      19.945  49.061  49.715  1.00  0.00     0.031 A 
ENDBRANCH   8  11
ENDBRANCH   6   7
ENDBRANCH   3   6
ENDBRANCH   1   2
BRANCH   1  18
HETATM   18  N   UNL     1      24.881  43.213  51.051  1.00  0.00    -0.282 NA
HETATM   19  H   UNL     1      25.027  42.201  51.006  1.00  0.00     0.128 HD
BRANCH  18  20
HETATM   20  C   UNL     1      25.840  43.788  51.912  1.00  0.00     0.045 A 
HETATM   21  C   UNL     1      25.761  45.072  52.493  1.00  0.00     0.090 A 
HETATM   22  C   UNL     1      26.723  45.540  53.413  1.00  0.00     0.053 A 
HETATM   23  C   UNL     1      27.744  44.672  53.834  1.00  0.00     0.014 A 
HETATM   24  C   UNL     1      27.771  43.392  53.301  1.00  0.00     0.089 A 
HETATM   25  C   UNL     1      28.842  44.742  54.740  1.00  0.00     0.011 A 
HETATM   26  O   UNL     1      28.802  42.674  53.822  1.00  0.00    -0.309 OA
HETATM   27  C   UNL     1      26.857  42.919  52.362  1.00  0.00     0.064 A 
HETATM   28  C   UNL     1      29.452  43.492  54.695  1.00  0.00     0.087 A 
HETATM   29  C   UNL     1      30.570  43.138  55.447  1.00  0.00     0.038 A 
HETATM   30  C   UNL     1      31.091  44.123  56.292  1.00  0.00     0.003 A 
HETATM   31  C   UNL     1      30.509  45.391  56.368  1.00  0.00     0.001 A 
HETATM   32  C   UNL     1      29.382  45.718  55.599  1.00  0.00     0.015 A 
BRANCH  21  33
HETATM   33  O   UNL     1      24.755  45.935  52.128  1.00  0.00    -0.354 OA
HETATM   34  C   UNL     1      25.256  47.011  51.328  1.00  0.00     0.210 C 
ENDBRANCH  21  33
ENDBRANCH  18  20
ENDBRANCH   1  18
TORSDOF 7
ENDMDL
MODEL 9
REMARK VINA RESULT:      -9.6      3.137     10.586
REMARK  7 active torsions:
REMARK  status: ('A' for Active; 'I' for Inactive)
REMARK       I    between atoms: N_2  and  C_3 
REMARK    1  A    between atoms: N_2  and  C_22 
REMARK    2  A    between atoms: C_3  and  C_4 
REMARK    3  A    between atoms: C_4  and  N_5 
REMARK    4  A    between atoms: N_5  and  C_6 
REMARK    5  A    between atoms: C_7  and  O_8 
REMARK    6  A    between atoms: C_22  and  C_23 
REMARK       I    between atoms: C_23  and  N_24 
REMARK    7  A    between atoms: N_24  and  C_25 
ROOT
HETATM    1  C   UNL     1      26.186  44.672  49.632  1.00  0.00     0.195 C 
ENDROOT
BRANCH   1   2
HETATM    2  C   UNL     1      26.844  43.310  49.935  1.00  0.00     0.233 C 
HETATM    3  N   UNL     1      27.179  43.031  51.262  1.00  0.00    -0.347 N 
HETATM    4  C   UNL     1      27.987  41.853  51.526  1.00  0.00     0.153 C 
HETATM    5  O   UNL     1      27.206  42.585  49.003  1.00  0.00    -0.272 OA
BRANCH   3   6
HETATM    6  C   UNL     1      26.431  43.577  52.402  1.00  0.00     0.228 C 
BRANCH   6   7
HETATM    7  C   UNL     1      27.152  43.640  53.758  1.00  0.00     0.240 C 
HETATM    8  N   UNL     1      28.412  44.207  53.718  1.00  0.00    -0.324 N 
HETATM    9  H   UNL     1      28.502  44.938  53.014  1.00  0.00     0.169 HD
HETATM   10  O   UNL     1      26.595  43.199  54.761  1.00  0.00    -0.271 OA
BRANCH   8  11
HETATM   11  C   UNL     1      29.268  44.318  54.843  1.00  0.00     0.056 A 
HETATM   12  C   UNL     1      29.281  45.386  55.757  1.00  0.00     0.060 A 
HETATM   13 CL   UNL     1      28.046  46.600  55.822  1.00  0.00    -0.082 Cl
HETATM   14  C   UNL     1      30.238  45.424  56.781  1.00  0.00     0.026 A 
HETATM   15  C   UNL     1      31.162  44.389  56.926  1.00  0.00     0.002 A 
HETATM   16  C   UNL     1      31.107  43.293  56.071  1.00  0.00     0.002 A 
HETATM   17  C   UNL     1      30.155  43.252  55.051  1.00  0.00     0.031 A 
ENDBRANCH   8  11
ENDBRANCH   6   7
ENDBRANCH   3   6
ENDBRANCH   1   2
BRANCH   1  18
HETATM   18  N   UNL     1      24.779  44.382  49.306  1.00  0.00    -0.282 NA
HETATM   19  H   UNL     1      24.351  43.930  50.118  1.00  0.00     0.128 HD
BRANCH  18  20
HETATM   20  C   UNL     1      23.937  45.418  48.848  1.00  0.00     0.045 A 
HETATM   21  C   UNL     1      22.866  45.268  47.941  1.00  0.00     0.090 A 
HETATM   22  C   UNL     1      22.016  46.341  47.598  1.00  0.00     0.053 A 
HETATM   23  C   UNL     1      22.182  47.576  48.244  1.00  0.00     0.014 A 
HETATM   24  C   UNL     1      23.200  47.690  49.180  1.00  0.00     0.089 A 
HETATM   25  C   UNL     1      21.537  48.847  48.213  1.00  0.00     0.011 A 
HETATM   26  O   UNL     1      23.217  48.935  49.727  1.00  0.00    -0.309 OA
HETATM   27  C   UNL     1      24.077  46.658  49.508  1.00  0.00     0.064 A 
HETATM   28  C   UNL     1      22.208  49.637  49.142  1.00  0.00     0.087 A 
HETATM   29  C   UNL     1      21.880  50.961  49.425  1.00  0.00     0.038 A 
HETATM   30  C   UNL     1      20.803  51.503  48.717  1.00  0.00     0.003 A 
HETATM   31  C   UNL     1      20.102  50.744  47.776  1.00  0.00     0.001 A 
HETATM   32  C   UNL     1      20.455  49.412  47.512  1.00  0.00     0.015 A 
BRANCH  21  33
HETATM   33  O   UNL     1      22.654  44.061  47.315  1.00  0.00    -0.354 OA
HETATM   34  C   UNL     1      22.308  44.242  45.938  1.00  0.00     0.210 C 
ENDBRANCH  21  33
ENDBRANCH  18  20
ENDBRANCH   1  18
TORSDOF 7
ENDMDL
MODEL 10
REMARK VINA RESULT:      -9.4      2.321      3.608
REMARK  7 active torsions:
REMARK  status: ('A' for Active; 'I' for Inactive)
REMARK       I    between atoms: N_2  and  C_3 
REMARK    1  A    between atoms: N_2  and  C_22 
REMARK    2  A    between atoms: C_3  and  C_4 
REMARK    3  A    between atoms: C_4  and  N_5 
REMARK    4  A    between atoms: N_5  and  C_6 
REMARK    5  A    between atoms: C_7  and  O_8 
REMARK    6  A    between atoms: C_22  and  C_23 
REMARK       I    between atoms: C_23  and  N_24 
REMARK    7  A    between atoms: N_24  and  C_25 
ROOT
HETATM    1  C   UNL     1      24.406  47.000  50.331  1.00  0.00     0.195 C 
ENDROOT
BRANCH   1   2
HETATM    2  C   UNL     1      25.069  48.122  49.505  1.00  0.00     0.233 C 
HETATM    3  N   UNL     1      24.235  49.062  48.898  1.00  0.00    -0.347 N 
HETATM    4  C   UNL     1      24.831  49.989  47.951  1.00  0.00     0.153 C 
HETATM    5  O   UNL     1      26.280  48.069  49.265  1.00  0.00    -0.272 OA
BRANCH   3   6
HETATM    6  C   UNL     1      22.934  49.451  49.459  1.00  0.00     0.228 C 
BRANCH   6   7
HETATM    7  C   UNL     1      21.673  48.939  48.747  1.00  0.00     0.240 C 
HETATM    8  N   UNL     1      20.920  48.039  49.478  1.00  0.00    -0.324 N 
HETATM    9  H   UNL     1      20.953  48.209  50.481  1.00  0.00     0.169 HD
HETATM   10  O   UNL     1      21.414  49.337  47.612  1.00  0.00    -0.271 OA
BRANCH   8  11
HETATM   11  C   UNL     1      19.747  47.406  48.991  1.00  0.00     0.056 A 
HETATM   12  C   UNL     1      18.451  47.948  49.031  1.00  0.00     0.060 A 
HETATM   13 CL   UNL     1      18.121  49.605  49.416  1.00  0.00    -0.082 Cl
HETATM   14  C   UNL     1      17.357  47.185  48.599  1.00  0.00     0.026 A 
HETATM   15  C   UNL     1      17.546  45.899  48.092  1.00  0.00     0.002 A 
HETATM   16  C   UNL     1      18.833  45.386  47.979  1.00  0.00     0.002 A 
HETATM   17  C   UNL     1      19.925  46.143  48.409  1.00  0.00     0.031 A 
ENDBRANCH   8  11
ENDBRANCH   6   7
ENDBRANCH   3   6
ENDBRANCH   1   2
BRANCH   1  18
HETATM   18  N   UNL     1      25.054  45.746  49.912  1.00  0.00    -0.282 NA
HETATM   19  H   UNL     1      25.465  45.894  48.986  1.00  0.00     0.128 HD
BRANCH  18  20
HETATM   20  C   UNL     1      26.004  45.131  50.754  1.00  0.00     0.045 A 
HETATM   21  C   UNL     1      26.875  44.082  50.386  1.00  0.00     0.090 A 
HETATM   22  C   UNL     1      27.858  43.579  51.265  1.00  0.00     0.053 A 
HETATM   23  C   UNL     1      28.038  44.196  52.513  1.00  0.00     0.014 A 
HETATM   24  C   UNL     1      27.216  45.266  52.835  1.00  0.00     0.089 A 
HETATM   25  C   UNL     1      28.908  44.023  53.628  1.00  0.00     0.011 A 
HETATM   26  O   UNL     1      27.528  45.764  54.062  1.00  0.00    -0.309 OA
HETATM   27  C   UNL     1      26.213  45.757  52.002  1.00  0.00     0.064 A 
HETATM   28  C   UNL     1      28.555  45.010  54.543  1.00  0.00     0.087 A 
HETATM   29  C   UNL     1      29.176  45.193  55.777  1.00  0.00     0.038 A 
HETATM   30  C   UNL     1      30.219  44.315  56.088  1.00  0.00     0.003 A 
HETATM   31  C   UNL     1      30.606  43.310  55.197  1.00  0.00     0.001 A 
HETATM   32  C   UNL     1      29.962  43.150  53.961  1.00  0.00     0.015 A 
BRANCH  21  33
HETATM   33  O   UNL     1      26.747  43.477  49.158  1.00  0.00    -0.354 OA
HETATM   34  C   UNL     1      26.487  42.076  49.292  1.00  0.00     0.210 C 
ENDBRANCH  21  33
ENDBRANCH  18  20
ENDBRANCH   1  18
TORSDOF 7
ENDMDL
