MODEL 1
REMARK VINA RESULT:      -8.7      0.000      0.000
REMARK  3 active torsions:
REMARK  status: ('A' for Active; 'I' for Inactive)
REMARK    1  A    between atoms: C_3  and  N_4 
REMARK       I    between atoms: N_4  and  C_5 
REMARK    2  A    between atoms: C_5  and  C_6 
REMARK    3  A    between atoms: C_6  and  C_7 
ROOT
HETATM    1  C   UNL     1      26.975  44.212  54.371  1.00  0.00     0.286 C 
HETATM    2  N   UNL     1      27.951  44.468  53.224  1.00  0.00    -0.056 N 
HETATM    3  H   UNL     1      27.787  45.458  52.941  1.00  0.00     0.278 HD
HETATM    4  H   UNL     1      28.922  44.429  53.555  1.00  0.00     0.278 HD
HETATM    5  C   UNL     1      27.743  43.602  52.013  1.00  0.00     0.209 C 
HETATM    6  C   UNL     1      26.269  43.712  51.553  1.00  0.00     0.115 C 
HETATM    7  N   UNL     1      25.319  43.512  52.647  1.00  0.00    -0.353 N 
HETATM    8  C   UNL     1      25.514  44.017  53.908  1.00  0.00     0.249 C 
HETATM    9  O   UNL     1      24.555  44.209  54.646  1.00  0.00    -0.271 OA
HETATM   10  C   UNL     1      28.175  42.165  52.312  1.00  0.00     0.035 C 
HETATM   11  C   UNL     1      27.880  41.246  51.129  1.00  0.00     0.002 C 
HETATM   12  C   UNL     1      26.412  41.314  50.718  1.00  0.00     0.002 C 
HETATM   13  C   UNL     1      25.981  42.746  50.400  1.00  0.00     0.027 C 
HETATM   14  H   UNL     1      24.330  43.455  52.408  1.00  0.00     0.163 HD
ENDROOT
BRANCH   1  15
HETATM   15  C   UNL     1      27.067  45.324  55.422  1.00  0.00     0.146 C 
BRANCH  15  16
HETATM   16  C   UNL     1      28.071  46.362  54.980  1.00  0.00     0.224 C 
HETATM   17  N   UNL     1      29.356  46.368  55.418  1.00  0.00    -0.325 N 
HETATM   18  H   UNL     1      29.832  47.244  55.221  1.00  0.00     0.169 HD
HETATM   19  O   UNL     1      27.677  47.263  54.224  1.00  0.00    -0.273 OA
BRANCH  17  20
HETATM   20  C   UNL     1      30.106  45.423  56.149  1.00  0.00     0.073 A 
HETATM   21  C   UNL     1      30.493  44.265  55.461  1.00  0.00     0.033 A 
HETATM   22  C   UNL     1      31.254  43.277  56.094  1.00  0.00     0.002 A 
HETATM   23  C   UNL     1      31.612  43.418  57.432  1.00  0.00     0.003 A 
HETATM   24  C   UNL     1      31.196  44.540  58.141  1.00  0.00     0.044 A 
HETATM   25  C   UNL     1      30.442  45.526  57.504  1.00  0.00     0.143 A 
HETATM   26  F   UNL     1      29.988  46.539  58.255  1.00  0.00    -0.204 F 
ENDBRANCH  17  20
ENDBRANCH  15  16
ENDBRANCH   1  15
TORSDOF 3
ENDMDL
MODEL 2
REMARK VINA RESULT:      -8.5      2.225      3.069
REMARK  3 active torsions:
REMARK  status: ('A' for Active; 'I' for Inactive)
REMARK    1  A    between atoms: C_3  and  N_4 
REMARK       I    between atoms: N_4  and  C_5 
REMARK    2  A    between atoms: C_5  and  C_6 
REMARK    3  A    between atoms: C_6  and  C_7 
ROOT
HETATM    1  C   UNL     1      26.898  43.307  53.102  1.00  0.00     0.286 C 
HETATM    2  N   UNL     1      27.734  44.082  52.086  1.00  0.00    -0.056 N 
HETATM    3  H   UNL     1      28.385  44.665  52.656  1.00  0.00     0.278 HD
HETATM    4  H   UNL     1      28.331  43.447  51.543  1.00  0.00     0.278 HD
HETATM    5  C   UNL     1      26.951  45.003  51.194  1.00  0.00     0.209 C 
HETATM    6  C   UNL     1      26.083  45.943  52.066  1.00  0.00     0.115 C 
HETATM    7  N   UNL     1      25.306  45.222  53.073  1.00  0.00    -0.353 N 
HETATM    8  C   UNL     1      25.807  44.160  53.784  1.00  0.00     0.249 C 
HETATM    9  O   UNL     1      25.325  43.871  54.874  1.00  0.00    -0.271 OA
HETATM   10  C   UNL     1      26.133  44.192  50.186  1.00  0.00     0.035 C 
HETATM   11  C   UNL     1      25.253  45.103  49.334  1.00  0.00     0.002 C 
HETATM   12  C   UNL     1      24.356  45.985  50.199  1.00  0.00     0.002 C 
HETATM   13  C   UNL     1      25.171  46.811  51.195  1.00  0.00     0.027 C 
HETATM   14  H   UNL     1      24.624  45.754  53.613  1.00  0.00     0.163 HD
ENDROOT
BRANCH   1  15
HETATM   15  C   UNL     1      27.795  42.636  54.148  1.00  0.00     0.146 C 
BRANCH  15  16
HETATM   16  C   UNL     1      29.207  42.536  53.620  1.00  0.00     0.224 C 
HETATM   17  N   UNL     1      30.247  43.198  54.188  1.00  0.00    -0.325 N 
HETATM   18  H   UNL     1      31.071  43.217  53.593  1.00  0.00     0.169 HD
HETATM   19  O   UNL     1      29.396  41.857  52.599  1.00  0.00    -0.273 OA
BRANCH  17  20
HETATM   20  C   UNL     1      30.360  43.912  55.400  1.00  0.00     0.073 A 
HETATM   21  C   UNL     1      31.144  43.323  56.402  1.00  0.00     0.033 A 
HETATM   22  C   UNL     1      31.331  43.961  57.631  1.00  0.00     0.002 A 
HETATM   23  C   UNL     1      30.713  45.183  57.888  1.00  0.00     0.003 A 
HETATM   24  C   UNL     1      29.895  45.757  56.920  1.00  0.00     0.044 A 
HETATM   25  C   UNL     1      29.716  45.120  55.693  1.00  0.00     0.143 A 
HETATM   26  F   UNL     1      28.846  45.667  54.834  1.00  0.00    -0.204 F 
ENDBRANCH  17  20
ENDBRANCH  15  16
ENDBRANCH   1  15
TORSDOF 3
ENDMDL
MODEL 3
REMARK VINA RESULT:      -8.5      1.556      2.064
REMARK  3 active torsions:
REMARK  status: ('A' for Active; 'I' for Inactive)
REMARK    1  A    between atoms: C_3  and  N_4 
REMARK       I    between atoms: N_4  and  C_5 
REMARK    2  A    between atoms: C_5  and  C_6 
REMARK    3  A    between atoms: C_6  and  C_7 
ROOT
HETATM    1  C   UNL     1      26.872  44.909  53.469  1.00  0.00     0.286 C 
HETATM    2  N   UNL     1      25.564  45.581  53.058  1.00  0.00    -0.056 N 
HETATM    3  H   UNL     1      24.882  45.332  53.808  1.00  0.00     0.278 HD
HETATM    4  H   UNL     1      25.652  46.603  53.089  1.00  0.00     0.278 HD
HETATM    5  C   UNL     1      24.998  45.113  51.747  1.00  0.00     0.209 C 
HETATM    6  C   UNL     1      24.875  43.570  51.765  1.00  0.00     0.115 C 
HETATM    7  N   UNL     1      26.106  42.910  52.196  1.00  0.00    -0.353 N 
HETATM    8  C   UNL     1      26.891  43.385  53.217  1.00  0.00     0.249 C 
HETATM    9  O   UNL     1      27.634  42.623  53.824  1.00  0.00    -0.271 OA
HETATM   10  C   UNL     1      25.850  45.636  50.588  1.00  0.00     0.035 C 
HETATM   11  C   UNL     1      25.352  45.091  49.252  1.00  0.00     0.002 C 
HETATM   12  C   UNL     1      25.289  43.566  49.256  1.00  0.00     0.002 C 
HETATM   13  C   UNL     1      24.423  43.040  50.401  1.00  0.00     0.027 C 
HETATM   14  H   UNL     1      26.146  41.893  52.127  1.00  0.00     0.163 HD
ENDROOT
BRANCH   1  15
HETATM   15  C   UNL     1      27.209  45.221  54.931  1.00  0.00     0.146 C 
BRANCH  15  16
HETATM   16  C   UNL     1      28.077  46.456  55.002  1.00  0.00     0.224 C 
HETATM   17  N   UNL     1      29.258  46.480  55.670  1.00  0.00    -0.325 N 
HETATM   18  H   UNL     1      29.603  47.424  55.822  1.00  0.00     0.169 HD
HETATM   19  O   UNL     1      27.655  47.490  54.464  1.00  0.00    -0.273 OA
BRANCH  17  20
HETATM   20  C   UNL     1      30.037  45.453  56.243  1.00  0.00     0.073 A 
HETATM   21  C   UNL     1      30.266  44.323  55.446  1.00  0.00     0.033 A 
HETATM   22  C   UNL     1      31.041  43.259  55.918  1.00  0.00     0.002 A 
HETATM   23  C   UNL     1      31.573  43.297  57.205  1.00  0.00     0.003 A 
HETATM   24  C   UNL     1      31.316  44.391  58.024  1.00  0.00     0.044 A 
HETATM   25  C   UNL     1      30.548  45.453  57.547  1.00  0.00     0.143 A 
HETATM   26  F   UNL     1      30.252  46.437  58.406  1.00  0.00    -0.204 F 
ENDBRANCH  17  20
ENDBRANCH  15  16
ENDBRANCH   1  15
TORSDOF 3
ENDMDL
MODEL 4
REMARK VINA RESULT:      -8.4      2.036      2.756
REMARK  3 active torsions:
REMARK  status: ('A' for Active; 'I' for Inactive)
REMARK    1  A    between atoms: C_3  and  N_4 
REMARK       I    between atoms: N_4  and  C_5 
REMARK    2  A    between atoms: C_5  and  C_6 
REMARK    3  A    between atoms: C_6  and  C_7 
ROOT
HETATM    1  C   UNL     1      27.439  43.017  52.909  1.00  0.00     0.286 C 
HETATM    2  N   UNL     1      26.107  43.109  52.170  1.00  0.00    -0.056 N 
HETATM    3  H   UNL     1      25.392  42.768  52.850  1.00  0.00     0.278 HD
HETATM    4  H   UNL     1      25.862  44.086  51.974  1.00  0.00     0.278 HD
HETATM    5  C   UNL     1      26.009  42.257  50.935  1.00  0.00     0.209 C 
HETATM    6  C   UNL     1      26.372  40.795  51.293  1.00  0.00     0.115 C 
HETATM    7  N   UNL     1      27.626  40.690  52.038  1.00  0.00    -0.353 N 
HETATM    8  C   UNL     1      27.986  41.577  53.023  1.00  0.00     0.249 C 
HETATM    9  O   UNL     1      28.782  41.237  53.891  1.00  0.00    -0.271 OA
HETATM   10  C   UNL     1      26.882  42.839  49.822  1.00  0.00     0.035 C 
HETATM   11  C   UNL     1      26.877  41.936  48.591  1.00  0.00     0.002 C 
HETATM   12  C   UNL     1      27.294  40.510  48.940  1.00  0.00     0.002 C 
HETATM   13  C   UNL     1      26.411  39.917  50.039  1.00  0.00     0.027 C 
HETATM   14  H   UNL     1      27.995  39.756  52.214  1.00  0.00     0.163 HD
ENDROOT
BRANCH   1  15
HETATM   15  C   UNL     1      27.341  43.671  54.291  1.00  0.00     0.146 C 
BRANCH  15  16
HETATM   16  C   UNL     1      27.731  45.127  54.195  1.00  0.00     0.224 C 
HETATM   17  N   UNL     1      28.689  45.679  54.983  1.00  0.00    -0.325 N 
HETATM   18  H   UNL     1      28.673  46.696  54.964  1.00  0.00     0.169 HD
HETATM   19  O   UNL     1      27.109  45.841  53.395  1.00  0.00    -0.273 OA
BRANCH  17  20
HETATM   20  C   UNL     1      29.633  45.105  55.860  1.00  0.00     0.073 A 
HETATM   21  C   UNL     1      29.721  45.669  57.140  1.00  0.00     0.033 A 
HETATM   22  C   UNL     1      30.614  45.159  58.088  1.00  0.00     0.002 A 
HETATM   23  C   UNL     1      31.454  44.097  57.758  1.00  0.00     0.003 A 
HETATM   24  C   UNL     1      31.410  43.557  56.477  1.00  0.00     0.044 A 
HETATM   25  C   UNL     1      30.514  44.066  55.538  1.00  0.00     0.143 A 
HETATM   26  F   UNL     1      30.578  43.574  54.293  1.00  0.00    -0.204 F 
ENDBRANCH  17  20
ENDBRANCH  15  16
ENDBRANCH   1  15
TORSDOF 3
ENDMDL
MODEL 5
REMARK VINA RESULT:      -8.0      3.830      6.590
REMARK  3 active torsions:
REMARK  status: ('A' for Active; 'I' for Inactive)
REMARK    1  A    between atoms: C_3  and  N_4 
REMARK       I    between atoms: N_4  and  C_5 
REMARK    2  A    between atoms: C_5  and  C_6 
REMARK    3  A    between atoms: C_6  and  C_7 
ROOT
HETATM    1  C   UNL     1      26.722  45.560  52.837  1.00  0.00     0.286 C 
HETATM    2  N   UNL     1      26.539  44.047  52.917  1.00  0.00    -0.056 N 
HETATM    3  H   UNL     1      25.759  43.900  53.594  1.00  0.00     0.278 HD
HETATM    4  H   UNL     1      26.207  43.670  52.022  1.00  0.00     0.278 HD
HETATM    5  C   UNL     1      27.736  43.292  53.424  1.00  0.00     0.209 C 
HETATM    6  C   UNL     1      28.182  43.893  54.779  1.00  0.00     0.115 C 
HETATM    7  N   UNL     1      28.322  45.347  54.734  1.00  0.00    -0.353 N 
HETATM    8  C   UNL     1      27.445  46.162  54.063  1.00  0.00     0.249 C 
HETATM    9  O   UNL     1      27.329  47.338  54.388  1.00  0.00    -0.271 OA
HETATM   10  C   UNL     1      28.846  43.293  52.370  1.00  0.00     0.035 C 
HETATM   11  C   UNL     1      30.108  42.618  52.902  1.00  0.00     0.002 C 
HETATM   12  C   UNL     1      30.577  43.254  54.207  1.00  0.00     0.002 C 
HETATM   13  C   UNL     1      29.477  43.238  55.269  1.00  0.00     0.027 C 
HETATM   14  H   UNL     1      28.721  45.809  55.551  1.00  0.00     0.163 HD
ENDROOT
BRANCH   1  15
HETATM   15  C   UNL     1      25.378  46.259  52.603  1.00  0.00     0.146 C 
BRANCH  15  16
HETATM   16  C   UNL     1      24.692  45.656  51.400  1.00  0.00     0.224 C 
HETATM   17  N   UNL     1      24.717  46.242  50.176  1.00  0.00    -0.325 N 
HETATM   18  H   UNL     1      24.030  45.848  49.539  1.00  0.00     0.169 HD
HETATM   19  O   UNL     1      24.047  44.610  51.566  1.00  0.00    -0.273 OA
BRANCH  17  20
HETATM   20  C   UNL     1      25.461  47.328  49.667  1.00  0.00     0.073 A 
HETATM   21  C   UNL     1      24.729  48.456  49.271  1.00  0.00     0.033 A 
HETATM   22  C   UNL     1      25.377  49.590  48.770  1.00  0.00     0.002 A 
HETATM   23  C   UNL     1      26.763  49.600  48.630  1.00  0.00     0.003 A 
HETATM   24  C   UNL     1      27.498  48.471  48.975  1.00  0.00     0.044 A 
HETATM   25  C   UNL     1      26.848  47.345  49.480  1.00  0.00     0.143 A 
HETATM   26  F   UNL     1      27.591  46.253  49.708  1.00  0.00    -0.204 F 
ENDBRANCH  17  20
ENDBRANCH  15  16
ENDBRANCH   1  15
TORSDOF 3
ENDMDL
MODEL 6
REMARK VINA RESULT:      -8.0      2.502      3.303
REMARK  3 active torsions:
REMARK  status: ('A' for Active; 'I' for Inactive)
REMARK    1  A    between atoms: C_3  and  N_4 
REMARK       I    between atoms: N_4  and  C_5 
REMARK    2  A    between atoms: C_5  and  C_6 
REMARK    3  A    between atoms: C_6  and  C_7 
ROOT
HETATM    1  C   UNL     1      27.632  43.532  53.059  1.00  0.00     0.286 C 
HETATM    2  N   UNL     1      26.687  44.601  53.602  1.00  0.00    -0.056 N 
HETATM    3  H   UNL     1      26.157  44.134  54.370  1.00  0.00     0.278 HD
HETATM    4  H   UNL     1      27.213  45.361  54.049  1.00  0.00     0.278 HD
HETATM    5  C   UNL     1      25.690  45.127  52.608  1.00  0.00     0.209 C 
HETATM    6  C   UNL     1      24.920  43.941  51.980  1.00  0.00     0.115 C 
HETATM    7  N   UNL     1      25.807  42.886  51.491  1.00  0.00    -0.353 N 
HETATM    8  C   UNL     1      26.931  42.483  52.168  1.00  0.00     0.249 C 
HETATM    9  O   UNL     1      27.389  41.361  51.981  1.00  0.00    -0.271 OA
HETATM   10  C   UNL     1      26.394  46.005  51.571  1.00  0.00     0.035 C 
HETATM   11  C   UNL     1      25.417  46.470  50.493  1.00  0.00     0.002 C 
HETATM   12  C   UNL     1      24.704  45.291  49.836  1.00  0.00     0.002 C 
HETATM   13  C   UNL     1      23.984  44.422  50.867  1.00  0.00     0.027 C 
HETATM   14  H   UNL     1      25.386  42.123  50.963  1.00  0.00     0.163 HD
ENDROOT
BRANCH   1  15
HETATM   15  C   UNL     1      28.396  42.850  54.200  1.00  0.00     0.146 C 
BRANCH  15  16
HETATM   16  C   UNL     1      29.878  42.887  53.913  1.00  0.00     0.224 C 
HETATM   17  N   UNL     1      30.752  43.594  54.675  1.00  0.00    -0.325 N 
HETATM   18  H   UNL     1      31.658  43.708  54.228  1.00  0.00     0.169 HD
HETATM   19  O   UNL     1      30.289  42.281  52.912  1.00  0.00    -0.273 OA
BRANCH  17  20
HETATM   20  C   UNL     1      30.604  44.247  55.917  1.00  0.00     0.073 A 
HETATM   21  C   UNL     1      29.706  45.323  55.954  1.00  0.00     0.033 A 
HETATM   22  C   UNL     1      29.476  46.023  57.143  1.00  0.00     0.002 A 
HETATM   23  C   UNL     1      30.164  45.676  58.304  1.00  0.00     0.003 A 
HETATM   24  C   UNL     1      31.092  44.641  58.271  1.00  0.00     0.044 A 
HETATM   25  C   UNL     1      31.313  43.942  57.084  1.00  0.00     0.143 A 
HETATM   26  F   UNL     1      32.283  43.017  57.083  1.00  0.00    -0.204 F 
ENDBRANCH  17  20
ENDBRANCH  15  16
ENDBRANCH   1  15
TORSDOF 3
ENDMDL
MODEL 7
REMARK VINA RESULT:      -8.0      7.270      8.971
REMARK  3 active torsions:
REMARK  status: ('A' for Active; 'I' for Inactive)
REMARK    1  A    between atoms: C_3  and  N_4 
REMARK       I    between atoms: N_4  and  C_5 
REMARK    2  A    between atoms: C_5  and  C_6 
REMARK    3  A    between atoms: C_6  and  C_7 
ROOT
HETATM    1  C   UNL     1      22.079  48.712  48.974  1.00  0.00     0.286 C 
HETATM    2  N   UNL     1      22.078  49.907  49.925  1.00  0.00    -0.056 N 
HETATM    3  H   UNL     1      22.187  49.498  50.878  1.00  0.00     0.278 HD
HETATM    4  H   UNL     1      22.907  50.494  49.776  1.00  0.00     0.278 HD
HETATM    5  C   UNL     1      20.815  50.721  49.915  1.00  0.00     0.209 C 
HETATM    6  C   UNL     1      19.604  49.788  50.158  1.00  0.00     0.115 C 
HETATM    7  N   UNL     1      19.609  48.615  49.285  1.00  0.00    -0.353 N 
HETATM    8  C   UNL     1      20.752  47.921  48.973  1.00  0.00     0.249 C 
HETATM    9  O   UNL     1      20.680  46.749  48.624  1.00  0.00    -0.271 OA
HETATM   10  C   UNL     1      20.711  51.516  48.611  1.00  0.00     0.035 C 
HETATM   11  C   UNL     1      19.387  52.274  48.535  1.00  0.00     0.002 C 
HETATM   12  C   UNL     1      18.194  51.339  48.716  1.00  0.00     0.002 C 
HETATM   13  C   UNL     1      18.285  50.557  50.027  1.00  0.00     0.027 C 
HETATM   14  H   UNL     1      18.789  48.010  49.302  1.00  0.00     0.163 HD
ENDROOT
BRANCH   1  15
HETATM   15  C   UNL     1      23.262  47.784  49.268  1.00  0.00     0.146 C 
BRANCH  15  16
HETATM   16  C   UNL     1      24.556  48.556  49.158  1.00  0.00     0.224 C 
HETATM   17  N   UNL     1      25.700  48.155  49.768  1.00  0.00    -0.325 N 
HETATM   18  H   UNL     1      26.407  48.885  49.794  1.00  0.00     0.169 HD
HETATM   19  O   UNL     1      24.541  49.621  48.521  1.00  0.00    -0.273 OA
BRANCH  17  20
HETATM   20  C   UNL     1      26.046  46.954  50.423  1.00  0.00     0.073 A 
HETATM   21  C   UNL     1      26.670  45.972  49.641  1.00  0.00     0.033 A 
HETATM   22  C   UNL     1      27.067  44.755  50.203  1.00  0.00     0.002 A 
HETATM   23  C   UNL     1      26.820  44.490  51.548  1.00  0.00     0.003 A 
HETATM   24  C   UNL     1      26.161  45.436  52.326  1.00  0.00     0.044 A 
HETATM   25  C   UNL     1      25.772  46.652  51.762  1.00  0.00     0.143 A 
HETATM   26  F   UNL     1      25.058  47.488  52.528  1.00  0.00    -0.204 F 
ENDBRANCH  17  20
ENDBRANCH  15  16
ENDBRANCH   1  15
TORSDOF 3
ENDMDL
MODEL 8
REMARK VINA RESULT:      -7.9      3.843      5.212
REMARK  3 active torsions:
REMARK  status: ('A' for Active; 'I' for Inactive)
REMARK    1  A    between atoms: C_3  and  N_4 
REMARK       I    between atoms: N_4  and  C_5 
REMARK    2  A    between atoms: C_5  and  C_6 
REMARK    3  A    between atoms: C_6  and  C_7 
ROOT
HETATM    1  C   UNL     1      26.221  45.127  50.367  1.00  0.00     0.286 C 
HETATM    2  N   UNL     1      26.225  46.315  51.326  1.00  0.00    -0.056 N 
HETATM    3  H   UNL     1      25.543  46.065  52.075  1.00  0.00     0.278 HD
HETATM    4  H   UNL     1      27.134  46.404  51.795  1.00  0.00     0.278 HD
HETATM    5  C   UNL     1      25.785  47.618  50.720  1.00  0.00     0.209 C 
HETATM    6  C   UNL     1      24.406  47.427  50.042  1.00  0.00     0.115 C 
HETATM    7  N   UNL     1      24.370  46.268  49.151  1.00  0.00    -0.353 N 
HETATM    8  C   UNL     1      24.977  45.074  49.453  1.00  0.00     0.249 C 
HETATM    9  O   UNL     1      24.583  44.037  48.932  1.00  0.00    -0.271 OA
HETATM   10  C   UNL     1      26.858  48.144  49.764  1.00  0.00     0.035 C 
HETATM   11  C   UNL     1      26.390  49.415  49.060  1.00  0.00     0.002 C 
HETATM   12  C   UNL     1      25.060  49.203  48.343  1.00  0.00     0.002 C 
HETATM   13  C   UNL     1      23.980  48.696  49.300  1.00  0.00     0.027 C 
HETATM   14  H   UNL     1      23.537  46.137  48.580  1.00  0.00     0.163 HD
ENDROOT
BRANCH   1  15
HETATM   15  C   UNL     1      26.389  43.810  51.132  1.00  0.00     0.146 C 
BRANCH  15  16
HETATM   16  C   UNL     1      25.548  43.838  52.387  1.00  0.00     0.224 C 
HETATM   17  N   UNL     1      26.078  43.660  53.624  1.00  0.00    -0.325 N 
HETATM   18  H   UNL     1      25.371  43.476  54.330  1.00  0.00     0.169 HD
HETATM   19  O   UNL     1      24.324  43.983  52.260  1.00  0.00    -0.273 OA
BRANCH  17  20
HETATM   20  C   UNL     1      27.413  43.613  54.079  1.00  0.00     0.073 A 
HETATM   21  C   UNL     1      27.942  44.807  54.590  1.00  0.00     0.033 A 
HETATM   22  C   UNL     1      29.250  44.858  55.082  1.00  0.00     0.002 A 
HETATM   23  C   UNL     1      30.058  43.723  55.042  1.00  0.00     0.003 A 
HETATM   24  C   UNL     1      29.562  42.544  54.496  1.00  0.00     0.044 A 
HETATM   25  C   UNL     1      28.255  42.497  54.012  1.00  0.00     0.143 A 
HETATM   26  F   UNL     1      27.859  41.366  53.412  1.00  0.00    -0.204 F 
ENDBRANCH  17  20
ENDBRANCH  15  16
ENDBRANCH   1  15
TORSDOF 3
ENDMDL
MODEL 9
REMARK VINA RESULT:      -7.9      2.602      3.922
REMARK  3 active torsions:
REMARK  status: ('A' for Active; 'I' for Inactive)
REMARK    1  A    between atoms: C_3  and  N_4 
REMARK       I    between atoms: N_4  and  C_5 
REMARK    2  A    between atoms: C_5  and  C_6 
REMARK    3  A    between atoms: C_6  and  C_7 
ROOT
HETATM    1  C   UNL     1      25.797  44.348  51.164  1.00  0.00     0.286 C 
HETATM    2  N   UNL     1      25.278  42.974  51.583  1.00  0.00    -0.056 N 
HETATM    3  H   UNL     1      26.093  42.497  52.026  1.00  0.00     0.278 HD
HETATM    4  H   UNL     1      24.570  43.060  52.321  1.00  0.00     0.278 HD
HETATM    5  C   UNL     1      24.797  42.109  50.453  1.00  0.00     0.209 C 
HETATM    6  C   UNL     1      25.908  42.004  49.380  1.00  0.00     0.115 C 
HETATM    7  N   UNL     1      26.448  43.307  48.996  1.00  0.00    -0.353 N 
HETATM    8  C   UNL     1      26.683  44.314  49.899  1.00  0.00     0.249 C 
HETATM    9  O   UNL     1      27.503  45.188  49.641  1.00  0.00    -0.271 OA
HETATM   10  C   UNL     1      23.476  42.649  49.900  1.00  0.00     0.035 C 
HETATM   11  C   UNL     1      23.018  41.844  48.686  1.00  0.00     0.002 C 
HETATM   12  C   UNL     1      24.097  41.794  47.607  1.00  0.00     0.002 C 
HETATM   13  C   UNL     1      25.413  41.237  48.151  1.00  0.00     0.027 C 
HETATM   14  H   UNL     1      27.102  43.336  48.215  1.00  0.00     0.163 HD
ENDROOT
BRANCH   1  15
HETATM   15  C   UNL     1      26.533  45.029  52.323  1.00  0.00     0.146 C 
BRANCH  15  16
HETATM   16  C   UNL     1      25.897  44.631  53.634  1.00  0.00     0.224 C 
HETATM   17  N   UNL     1      26.620  44.159  54.682  1.00  0.00    -0.325 N 
HETATM   18  H   UNL     1      26.040  43.723  55.393  1.00  0.00     0.169 HD
HETATM   19  O   UNL     1      24.663  44.700  53.723  1.00  0.00    -0.273 OA
BRANCH  17  20
HETATM   20  C   UNL     1      28.011  44.102  54.917  1.00  0.00     0.073 A 
HETATM   21  C   UNL     1      28.582  45.208  55.559  1.00  0.00     0.033 A 
HETATM   22  C   UNL     1      29.949  45.239  55.852  1.00  0.00     0.002 A 
HETATM   23  C   UNL     1      30.769  44.176  55.480  1.00  0.00     0.003 A 
HETATM   24  C   UNL     1      30.224  43.091  54.801  1.00  0.00     0.044 A 
HETATM   25  C   UNL     1      28.859  43.063  54.516  1.00  0.00     0.143 A 
HETATM   26  F   UNL     1      28.403  42.041  53.779  1.00  0.00    -0.204 F 
ENDBRANCH  17  20
ENDBRANCH  15  16
ENDBRANCH   1  15
TORSDOF 3
ENDMDL
MODEL 10
REMARK VINA RESULT:      -7.7      5.595      8.271
REMARK  3 active torsions:
REMARK  status: ('A' for Active; 'I' for Inactive)
REMARK    1  A    between atoms: C_3  and  N_4 
REMARK       I    between atoms: N_4  and  C_5 
REMARK    2  A    between atoms: C_5  and  C_6 
REMARK    3  A    between atoms: C_6  and  C_7 
ROOT
HETATM    1  C   UNL     1      25.786  46.433  51.452  1.00  0.00     0.286 C 
HETATM    2  N   UNL     1      25.588  44.949  51.153  1.00  0.00    -0.056 N 
HETATM    3  H   UNL     1      24.560  44.790  51.226  1.00  0.00     0.278 HD
HETATM    4  H   UNL     1      25.836  44.736  50.180  1.00  0.00     0.278 HD
HETATM    5  C   UNL     1      26.268  44.015  52.114  1.00  0.00     0.209 C 
HETATM    6  C   UNL     1      25.848  44.374  53.560  1.00  0.00     0.115 C 
HETATM    7  N   UNL     1      25.990  45.799  53.853  1.00  0.00    -0.353 N 
HETATM    8  C   UNL     1      25.666  46.783  52.952  1.00  0.00     0.249 C 
HETATM    9  O   UNL     1      25.386  47.908  53.349  1.00  0.00    -0.271 OA
HETATM   10  C   UNL     1      27.783  44.050  51.901  1.00  0.00     0.035 C 
HETATM   11  C   UNL     1      28.502  43.184  52.933  1.00  0.00     0.002 C 
HETATM   12  C   UNL     1      28.129  43.582  54.358  1.00  0.00     0.002 C 
HETATM   13  C   UNL     1      26.617  43.530  54.580  1.00  0.00     0.027 C 
HETATM   14  H   UNL     1      25.843  46.100  54.815  1.00  0.00     0.163 HD
ENDROOT
BRANCH   1  15
HETATM   15  C   UNL     1      24.828  47.289  50.617  1.00  0.00     0.146 C 
BRANCH  15  16
HETATM   16  C   UNL     1      25.618  48.166  49.674  1.00  0.00     0.224 C 
HETATM   17  N   UNL     1      25.024  48.972  48.757  1.00  0.00    -0.325 N 
HETATM   18  H   UNL     1      25.675  49.313  48.056  1.00  0.00     0.169 HD
HETATM   19  O   UNL     1      26.855  48.099  49.722  1.00  0.00    -0.273 OA
BRANCH  17  20
HETATM   20  C   UNL     1      23.678  49.350  48.567  1.00  0.00     0.073 A 
HETATM   21  C   UNL     1      23.347  50.672  48.899  1.00  0.00     0.033 A 
HETATM   22  C   UNL     1      22.043  51.147  48.730  1.00  0.00     0.002 A 
HETATM   23  C   UNL     1      21.045  50.300  48.254  1.00  0.00     0.003 A 
HETATM   24  C   UNL     1      21.348  48.974  47.964  1.00  0.00     0.044 A 
HETATM   25  C   UNL     1      22.651  48.506  48.129  1.00  0.00     0.143 A 
HETATM   26  F   UNL     1      22.869  47.199  47.926  1.00  0.00    -0.204 F 
ENDBRANCH  17  20
ENDBRANCH  15  16
ENDBRANCH   1  15
TORSDOF 3
ENDMDL
