MODEL 1
REMARK VINA RESULT:      -8.0      0.000      0.000
REMARK  6 active torsions:
REMARK  status: ('A' for Active; 'I' for Inactive)
REMARK    1  A    between atoms: O_2  and  C_3 
REMARK    2  A    between atoms: C_4  and  O_5 
REMARK    3  A    between atoms: C_8  and  C_9 
REMARK    4  A    between atoms: C_13  and  C_14 
REMARK       I    between atoms: C_14  and  N_15 
REMARK    5  A    between atoms: N_15  and  C_16 
REMARK    6  A    between atoms: C_19  and  O_20 
ROOT
HETATM    1  C   UNL     1      25.589  46.712  50.455  1.00  0.00     0.063 A 
HETATM    2  N   UNL     1      26.098  47.935  50.098  1.00  0.00    -0.277 N 
HETATM    3  H   UNL     1      27.033  48.286  50.274  1.00  0.00     0.189 HD
HETATM    4  N   UNL     1      25.221  48.744  49.475  1.00  0.00    -0.169 NA
HETATM    5  C   UNL     1      24.085  48.015  49.434  1.00  0.00     0.147 A 
HETATM    6  C   UNL     1      24.274  46.746  50.036  1.00  0.00     0.071 A 
ENDROOT
BRANCH   5   7
HETATM    7  C   UNL     1      22.844  48.542  48.838  1.00  0.00     0.276 C 
HETATM    8  N   UNL     1      22.180  49.390  49.702  1.00  0.00    -0.320 N 
HETATM    9  H   UNL     1      22.651  49.508  50.596  1.00  0.00     0.169 HD
HETATM   10  O   UNL     1      22.484  48.228  47.709  1.00  0.00    -0.266 OA
BRANCH   8  11
HETATM   11  C   UNL     1      20.968  50.065  49.485  1.00  0.00     0.052 A 
HETATM   12  C   UNL     1      19.721  49.638  49.936  1.00  0.00     0.149 A 
HETATM   13  N   UNL     1      18.560  50.307  49.714  1.00  0.00    -0.235 NA
HETATM   14  C   UNL     1      18.644  51.455  49.013  1.00  0.00     0.163 A 
HETATM   15  C   UNL     1      19.834  51.967  48.524  1.00  0.00     0.060 A 
HETATM   16  C   UNL     1      21.011  51.259  48.764  1.00  0.00     0.035 A 
BRANCH  14  17
HETATM   17  O   UNL     1      17.507  52.190  48.747  1.00  0.00    -0.339 OA
HETATM   18  C   UNL     1      16.691  52.385  49.898  1.00  0.00     0.211 C 
ENDBRANCH  14  17
ENDBRANCH   8  11
ENDBRANCH   5   7
BRANCH   1  19
HETATM   19  C   UNL     1      26.353  45.695  51.170  1.00  0.00    -0.005 A 
HETATM   20  C   UNL     1      26.462  45.719  52.568  1.00  0.00     0.053 A 
HETATM   21  C   UNL     1      27.175  44.723  53.250  1.00  0.00     0.102 A 
HETATM   22  C   UNL     1      27.771  43.672  52.525  1.00  0.00     0.101 A 
HETATM   23  C   UNL     1      27.689  43.664  51.131  1.00  0.00     0.040 A 
HETATM   24  C   UNL     1      26.987  44.670  50.460  1.00  0.00     0.017 A 
BRANCH  21  25
HETATM   25  O   UNL     1      27.316  44.670  54.615  1.00  0.00    -0.353 OA
HETATM   26  C   UNL     1      28.041  45.718  55.240  1.00  0.00     0.210 C 
ENDBRANCH  21  25
BRANCH  22  27
HETATM   27  O   UNL     1      28.439  42.725  53.260  1.00  0.00    -0.353 OA
HETATM   28  C   UNL     1      29.851  42.667  53.093  1.00  0.00     0.210 C 
ENDBRANCH  22  27
ENDBRANCH   1  19
TORSDOF 6
ENDMDL
MODEL 2
REMARK VINA RESULT:      -7.9      0.788      1.769
REMARK  6 active torsions:
REMARK  status: ('A' for Active; 'I' for Inactive)
REMARK    1  A    between atoms: O_2  and  C_3 
REMARK    2  A    between atoms: C_4  and  O_5 
REMARK    3  A    between atoms: C_8  and  C_9 
REMARK    4  A    between atoms: C_13  and  C_14 
REMARK       I    between atoms: C_14  and  N_15 
REMARK    5  A    between atoms: N_15  and  C_16 
REMARK    6  A    between atoms: C_19  and  O_20 
ROOT
HETATM    1  C   UNL     1      25.654  46.784  50.772  1.00  0.00     0.063 A 
HETATM    2  N   UNL     1      26.264  47.877  50.213  1.00  0.00    -0.277 N 
HETATM    3  H   UNL     1      27.231  48.163  50.322  1.00  0.00     0.189 HD
HETATM    4  N   UNL     1      25.451  48.651  49.470  1.00  0.00    -0.169 NA
HETATM    5  C   UNL     1      24.252  48.035  49.559  1.00  0.00     0.147 A 
HETATM    6  C   UNL     1      24.338  46.872  50.363  1.00  0.00     0.071 A 
ENDROOT
BRANCH   5   7
HETATM    7  C   UNL     1      23.052  48.570  48.892  1.00  0.00     0.276 C 
HETATM    8  N   UNL     1      22.271  49.310  49.758  1.00  0.00    -0.320 N 
HETATM    9  H   UNL     1      22.648  49.362  50.701  1.00  0.00     0.169 HD
HETATM   10  O   UNL     1      22.816  48.350  47.709  1.00  0.00    -0.266 OA
BRANCH   8  11
HETATM   11  C   UNL     1      21.057  49.959  49.483  1.00  0.00     0.052 A 
HETATM   12  C   UNL     1      19.793  49.460  49.794  1.00  0.00     0.149 A 
HETATM   13  N   UNL     1      18.630  50.104  49.518  1.00  0.00    -0.235 NA
HETATM   14  C   UNL     1      18.729  51.301  48.905  1.00  0.00     0.163 A 
HETATM   15  C   UNL     1      19.934  51.885  48.557  1.00  0.00     0.060 A 
HETATM   16  C   UNL     1      21.113  51.201  48.849  1.00  0.00     0.035 A 
BRANCH  14  17
HETATM   17  O   UNL     1      17.590  52.015  48.592  1.00  0.00    -0.339 OA
HETATM   18  C   UNL     1      16.934  52.545  49.740  1.00  0.00     0.211 C 
ENDBRANCH  14  17
ENDBRANCH   8  11
ENDBRANCH   5   7
BRANCH   1  19
HETATM   19  C   UNL     1      26.337  45.832  51.643  1.00  0.00    -0.005 A 
HETATM   20  C   UNL     1      26.879  44.642  51.134  1.00  0.00     0.053 A 
HETATM   21  C   UNL     1      27.557  43.746  51.971  1.00  0.00     0.102 A 
HETATM   22  C   UNL     1      27.716  44.053  53.337  1.00  0.00     0.101 A 
HETATM   23  C   UNL     1      27.150  45.222  53.851  1.00  0.00     0.040 A 
HETATM   24  C   UNL     1      26.465  46.102  53.009  1.00  0.00     0.017 A 
BRANCH  21  25
HETATM   25  O   UNL     1      28.125  42.571  51.547  1.00  0.00    -0.353 OA
HETATM   26  C   UNL     1      27.251  41.540  51.110  1.00  0.00     0.210 C 
ENDBRANCH  21  25
BRANCH  22  27
HETATM   27  O   UNL     1      28.403  43.137  54.093  1.00  0.00    -0.353 OA
HETATM   28  C   UNL     1      29.563  43.608  54.768  1.00  0.00     0.210 C 
ENDBRANCH  22  27
ENDBRANCH   1  19
TORSDOF 6
ENDMDL
MODEL 3
REMARK VINA RESULT:      -7.8      3.341      4.679
REMARK  6 active torsions:
REMARK  status: ('A' for Active; 'I' for Inactive)
REMARK    1  A    between atoms: O_2  and  C_3 
REMARK    2  A    between atoms: C_4  and  O_5 
REMARK    3  A    between atoms: C_8  and  C_9 
REMARK    4  A    between atoms: C_13  and  C_14 
REMARK       I    between atoms: C_14  and  N_15 
REMARK    5  A    between atoms: N_15  and  C_16 
REMARK    6  A    between atoms: C_19  and  O_20 
ROOT
HETATM    1  C   UNL     1      26.956  44.266  52.885  1.00  0.00     0.063 A 
HETATM    2  N   UNL     1      25.715  43.835  53.277  1.00  0.00    -0.277 N 
HETATM    3  H   UNL     1      25.452  43.463  54.183  1.00  0.00     0.189 HD
HETATM    4  N   UNL     1      24.773  43.898  52.317  1.00  0.00    -0.169 NA
HETATM    5  C   UNL     1      25.438  44.384  51.247  1.00  0.00     0.147 A 
HETATM    6  C   UNL     1      26.798  44.623  51.560  1.00  0.00     0.071 A 
ENDROOT
BRANCH   5   7
HETATM    7  C   UNL     1      24.771  44.599  49.950  1.00  0.00     0.276 C 
HETATM    8  N   UNL     1      23.707  45.473  50.058  1.00  0.00    -0.320 N 
HETATM    9  H   UNL     1      23.562  45.818  51.004  1.00  0.00     0.169 HD
HETATM   10  O   UNL     1      25.149  44.039  48.927  1.00  0.00    -0.266 OA
BRANCH   8  11
HETATM   11  C   UNL     1      22.839  45.903  49.043  1.00  0.00     0.052 A 
HETATM   12  C   UNL     1      22.886  47.150  48.424  1.00  0.00     0.149 A 
HETATM   13  N   UNL     1      22.035  47.548  47.443  1.00  0.00    -0.235 NA
HETATM   14  C   UNL     1      21.094  46.662  47.060  1.00  0.00     0.163 A 
HETATM   15  C   UNL     1      20.964  45.399  47.609  1.00  0.00     0.060 A 
HETATM   16  C   UNL     1      21.849  45.017  48.616  1.00  0.00     0.035 A 
BRANCH  14  17
HETATM   17  O   UNL     1      20.192  46.994  46.069  1.00  0.00    -0.339 OA
HETATM   18  C   UNL     1      19.241  47.968  46.488  1.00  0.00     0.211 C 
ENDBRANCH  14  17
ENDBRANCH   8  11
ENDBRANCH   5   7
BRANCH   1  19
HETATM   19  C   UNL     1      28.130  44.252  53.752  1.00  0.00    -0.005 A 
HETATM   20  C   UNL     1      28.311  45.224  54.746  1.00  0.00     0.053 A 
HETATM   21  C   UNL     1      29.428  45.187  55.592  1.00  0.00     0.102 A 
HETATM   22  C   UNL     1      30.369  44.149  55.458  1.00  0.00     0.101 A 
HETATM   23  C   UNL     1      30.206  43.197  54.449  1.00  0.00     0.040 A 
HETATM   24  C   UNL     1      29.096  43.251  53.602  1.00  0.00     0.017 A 
BRANCH  21  25
HETATM   25  O   UNL     1      29.668  46.094  56.595  1.00  0.00    -0.353 OA
HETATM   26  C   UNL     1      28.774  46.103  57.698  1.00  0.00     0.210 C 
ENDBRANCH  21  25
BRANCH  22  27
HETATM   27  O   UNL     1      31.428  44.168  56.331  1.00  0.00    -0.353 OA
HETATM   28  C   UNL     1      31.494  43.109  57.279  1.00  0.00     0.210 C 
ENDBRANCH  22  27
ENDBRANCH   1  19
TORSDOF 6
ENDMDL
MODEL 4
REMARK VINA RESULT:      -7.7      1.861      9.962
REMARK  6 active torsions:
REMARK  status: ('A' for Active; 'I' for Inactive)
REMARK    1  A    between atoms: O_2  and  C_3 
REMARK    2  A    between atoms: C_4  and  O_5 
REMARK    3  A    between atoms: C_8  and  C_9 
REMARK    4  A    between atoms: C_13  and  C_14 
REMARK       I    between atoms: C_14  and  N_15 
REMARK    5  A    between atoms: N_15  and  C_16 
REMARK    6  A    between atoms: C_19  and  O_20 
ROOT
HETATM    1  C   UNL     1      21.930  50.121  48.448  1.00  0.00     0.063 A 
HETATM    2  N   UNL     1      22.773  50.452  47.417  1.00  0.00    -0.277 N 
HETATM    3  H   UNL     1      22.549  50.991  46.589  1.00  0.00     0.189 HD
HETATM    4  N   UNL     1      24.021  49.962  47.539  1.00  0.00    -0.169 NA
HETATM    5  C   UNL     1      23.984  49.271  48.699  1.00  0.00     0.147 A 
HETATM    6  C   UNL     1      22.699  49.345  49.292  1.00  0.00     0.071 A 
ENDROOT
BRANCH   5   7
HETATM    7  C   UNL     1      25.161  48.547  49.212  1.00  0.00     0.276 C 
HETATM    8  N   UNL     1      24.825  47.298  49.694  1.00  0.00    -0.320 N 
HETATM    9  H   UNL     1      23.833  47.087  49.617  1.00  0.00     0.169 HD
HETATM   10  O   UNL     1      26.282  49.042  49.197  1.00  0.00    -0.266 OA
BRANCH   8  11
HETATM   11  C   UNL     1      25.674  46.337  50.265  1.00  0.00     0.052 A 
HETATM   12  C   UNL     1      26.529  45.499  49.553  1.00  0.00     0.149 A 
HETATM   13  N   UNL     1      27.343  44.575  50.125  1.00  0.00    -0.235 NA
HETATM   14  C   UNL     1      27.306  44.481  51.469  1.00  0.00     0.163 A 
HETATM   15  C   UNL     1      26.495  45.269  52.268  1.00  0.00     0.060 A 
HETATM   16  C   UNL     1      25.667  46.208  51.655  1.00  0.00     0.035 A 
BRANCH  14  17
HETATM   17  O   UNL     1      28.104  43.565  52.123  1.00  0.00    -0.339 OA
HETATM   18  C   UNL     1      28.515  44.007  53.413  1.00  0.00     0.211 C 
ENDBRANCH  14  17
ENDBRANCH   8  11
ENDBRANCH   5   7
BRANCH   1  19
HETATM   19  C   UNL     1      20.526  50.515  48.502  1.00  0.00    -0.005 A 
HETATM   20  C   UNL     1      19.503  49.556  48.539  1.00  0.00     0.053 A 
HETATM   21  C   UNL     1      18.159  49.942  48.619  1.00  0.00     0.102 A 
HETATM   22  C   UNL     1      17.829  51.310  48.685  1.00  0.00     0.101 A 
HETATM   23  C   UNL     1      18.845  52.267  48.617  1.00  0.00     0.040 A 
HETATM   24  C   UNL     1      20.182  51.871  48.525  1.00  0.00     0.017 A 
BRANCH  21  25
HETATM   25  O   UNL     1      17.105  49.065  48.673  1.00  0.00    -0.353 OA
HETATM   26  C   UNL     1      17.373  47.744  49.120  1.00  0.00     0.210 C 
ENDBRANCH  21  25
BRANCH  22  27
HETATM   27  O   UNL     1      16.495  51.614  48.777  1.00  0.00    -0.353 OA
HETATM   28  C   UNL     1      16.075  52.298  49.952  1.00  0.00     0.210 C 
ENDBRANCH  22  27
ENDBRANCH   1  19
TORSDOF 6
ENDMDL
MODEL 5
REMARK VINA RESULT:      -7.4      7.624     10.444
REMARK  6 active torsions:
REMARK  status: ('A' for Active; 'I' for Inactive)
REMARK    1  A    between atoms: O_2  and  C_3 
REMARK    2  A    between atoms: C_4  and  O_5 
REMARK    3  A    between atoms: C_8  and  C_9 
REMARK    4  A    between atoms: C_13  and  C_14 
REMARK       I    between atoms: C_14  and  N_15 
REMARK    5  A    between atoms: N_15  and  C_16 
REMARK    6  A    between atoms: C_19  and  O_20 
ROOT
HETATM    1  C   UNL     1      28.037  42.898  52.790  1.00  0.00     0.063 A 
HETATM    2  N   UNL     1      26.795  43.262  52.334  1.00  0.00    -0.277 N 
HETATM    3  H   UNL     1      26.226  44.036  52.656  1.00  0.00     0.189 HD
HETATM    4  N   UNL     1      26.298  42.460  51.374  1.00  0.00    -0.169 NA
HETATM    5  C   UNL     1      27.257  41.525  51.206  1.00  0.00     0.147 A 
HETATM    6  C   UNL     1      28.353  41.762  52.072  1.00  0.00     0.071 A 
ENDROOT
BRANCH   5   7
HETATM    7  C   UNL     1      27.108  40.422  50.240  1.00  0.00     0.276 C 
HETATM    8  N   UNL     1      28.070  40.473  49.251  1.00  0.00    -0.320 N 
HETATM    9  H   UNL     1      28.714  41.254  49.352  1.00  0.00     0.169 HD
HETATM   10  O   UNL     1      26.214  39.589  50.341  1.00  0.00    -0.266 OA
BRANCH   8  11
HETATM   11  C   UNL     1      28.234  39.602  48.163  1.00  0.00     0.052 A 
HETATM   12  C   UNL     1      28.740  38.306  48.243  1.00  0.00     0.149 A 
HETATM   13  N   UNL     1      28.892  37.479  47.177  1.00  0.00    -0.235 NA
HETATM   14  C   UNL     1      28.522  37.963  45.975  1.00  0.00     0.163 A 
HETATM   15  C   UNL     1      28.006  39.233  45.789  1.00  0.00     0.060 A 
HETATM   16  C   UNL     1      27.863  40.063  46.899  1.00  0.00     0.035 A 
BRANCH  14  17
HETATM   17  O   UNL     1      28.647  37.181  44.844  1.00  0.00    -0.339 OA
HETATM   18  C   UNL     1      29.999  36.847  44.548  1.00  0.00     0.211 C 
ENDBRANCH  14  17
ENDBRANCH   8  11
ENDBRANCH   5   7
BRANCH   1  19
HETATM   19  C   UNL     1      28.748  43.604  53.852  1.00  0.00    -0.005 A 
HETATM   20  C   UNL     1      28.269  44.819  54.364  1.00  0.00     0.053 A 
HETATM   21  C   UNL     1      28.943  45.476  55.401  1.00  0.00     0.102 A 
HETATM   22  C   UNL     1      30.104  44.900  55.954  1.00  0.00     0.101 A 
HETATM   23  C   UNL     1      30.599  43.706  55.425  1.00  0.00     0.040 A 
HETATM   24  C   UNL     1      29.926  43.065  54.381  1.00  0.00     0.017 A 
BRANCH  21  25
HETATM   25  O   UNL     1      28.531  46.659  55.963  1.00  0.00    -0.353 OA
HETATM   26  C   UNL     1      27.564  47.420  55.254  1.00  0.00     0.210 C 
ENDBRANCH  21  25
BRANCH  22  27
HETATM   27  O   UNL     1      30.702  45.592  56.977  1.00  0.00    -0.353 OA
HETATM   28  C   UNL     1      30.997  44.856  58.158  1.00  0.00     0.210 C 
ENDBRANCH  22  27
ENDBRANCH   1  19
TORSDOF 6
ENDMDL
MODEL 6
REMARK VINA RESULT:      -7.4      2.053      9.847
REMARK  6 active torsions:
REMARK  status: ('A' for Active; 'I' for Inactive)
REMARK    1  A    between atoms: O_2  and  C_3 
REMARK    2  A    between atoms: C_4  and  O_5 
REMARK    3  A    between atoms: C_8  and  C_9 
REMARK    4  A    between atoms: C_13  and  C_14 
REMARK       I    between atoms: C_14  and  N_15 
REMARK    5  A    between atoms: N_15  and  C_16 
REMARK    6  A    between atoms: C_19  and  O_20 
ROOT
HETATM    1  C   UNL     1      23.290  49.082  49.168  1.00  0.00     0.063 A 
HETATM    2  N   UNL     1      24.436  49.771  48.860  1.00  0.00    -0.277 N 
HETATM    3  H   UNL     1      24.505  50.693  48.444  1.00  0.00     0.189 HD
HETATM    4  N   UNL     1      25.575  49.103  49.124  1.00  0.00    -0.169 NA
HETATM    5  C   UNL     1      25.148  47.921  49.617  1.00  0.00     0.147 A 
HETATM    6  C   UNL     1      23.733  47.870  49.657  1.00  0.00     0.071 A 
ENDROOT
BRANCH   5   7
HETATM    7  C   UNL     1      26.090  46.863  50.026  1.00  0.00     0.276 C 
HETATM    8  N   UNL     1      25.696  46.254  51.201  1.00  0.00    -0.320 N 
HETATM    9  H   UNL     1      24.834  46.631  51.585  1.00  0.00     0.169 HD
HETATM   10  O   UNL     1      27.092  46.600  49.372  1.00  0.00    -0.266 OA
BRANCH   8  11
HETATM   11  C   UNL     1      26.345  45.220  51.895  1.00  0.00     0.052 A 
HETATM   12  C   UNL     1      26.496  43.915  51.429  1.00  0.00     0.149 A 
HETATM   13  N   UNL     1      27.127  42.929  52.117  1.00  0.00    -0.235 NA
HETATM   14  C   UNL     1      27.633  43.256  53.323  1.00  0.00     0.163 A 
HETATM   15  C   UNL     1      27.539  44.522  53.873  1.00  0.00     0.060 A 
HETATM   16  C   UNL     1      26.884  45.516  53.147  1.00  0.00     0.035 A 
BRANCH  14  17
HETATM   17  O   UNL     1      28.288  42.306  54.081  1.00  0.00    -0.339 OA
HETATM   18  C   UNL     1      29.527  42.774  54.606  1.00  0.00     0.211 C 
ENDBRANCH  14  17
ENDBRANCH   8  11
ENDBRANCH   5   7
BRANCH   1  19
HETATM   19  C   UNL     1      21.946  49.601  48.931  1.00  0.00    -0.005 A 
HETATM   20  C   UNL     1      20.861  48.737  48.722  1.00  0.00     0.053 A 
HETATM   21  C   UNL     1      19.569  49.242  48.522  1.00  0.00     0.102 A 
HETATM   22  C   UNL     1      19.352  50.633  48.554  1.00  0.00     0.101 A 
HETATM   23  C   UNL     1      20.437  51.496  48.732  1.00  0.00     0.040 A 
HETATM   24  C   UNL     1      21.723  50.981  48.917  1.00  0.00     0.017 A 
BRANCH  21  25
HETATM   25  O   UNL     1      18.457  48.462  48.324  1.00  0.00    -0.353 OA
HETATM   26  C   UNL     1      18.587  47.066  48.546  1.00  0.00     0.210 C 
ENDBRANCH  21  25
BRANCH  22  27
HETATM   27  O   UNL     1      18.060  51.055  48.366  1.00  0.00    -0.353 OA
HETATM   28  C   UNL     1      17.496  51.861  49.393  1.00  0.00     0.210 C 
ENDBRANCH  22  27
ENDBRANCH   1  19
TORSDOF 6
ENDMDL
MODEL 7
REMARK VINA RESULT:      -7.3      7.759     10.549
REMARK  6 active torsions:
REMARK  status: ('A' for Active; 'I' for Inactive)
REMARK    1  A    between atoms: O_2  and  C_3 
REMARK    2  A    between atoms: C_4  and  O_5 
REMARK    3  A    between atoms: C_8  and  C_9 
REMARK    4  A    between atoms: C_13  and  C_14 
REMARK       I    between atoms: C_14  and  N_15 
REMARK    5  A    between atoms: N_15  and  C_16 
REMARK    6  A    between atoms: C_19  and  O_20 
ROOT
HETATM    1  C   UNL     1      28.358  42.697  53.003  1.00  0.00     0.063 A 
HETATM    2  N   UNL     1      27.012  42.469  52.879  1.00  0.00    -0.277 N 
HETATM    3  H   UNL     1      26.270  42.832  53.468  1.00  0.00     0.189 HD
HETATM    4  N   UNL     1      26.677  41.640  51.872  1.00  0.00    -0.169 NA
HETATM    5  C   UNL     1      27.865  41.307  51.322  1.00  0.00     0.147 A 
HETATM    6  C   UNL     1      28.934  41.942  52.000  1.00  0.00     0.071 A 
ENDROOT
BRANCH   5   7
HETATM    7  C   UNL     1      27.959  40.384  50.176  1.00  0.00     0.276 C 
HETATM    8  N   UNL     1      26.852  39.564  50.086  1.00  0.00    -0.320 N 
HETATM    9  H   UNL     1      26.164  39.730  50.817  1.00  0.00     0.169 HD
HETATM   10  O   UNL     1      28.929  40.380  49.428  1.00  0.00    -0.266 OA
BRANCH   8  11
HETATM   11  C   UNL     1      26.598  38.561  49.137  1.00  0.00     0.052 A 
HETATM   12  C   UNL     1      26.146  38.784  47.838  1.00  0.00     0.149 A 
HETATM   13  N   UNL     1      25.905  37.799  46.935  1.00  0.00    -0.235 NA
HETATM   14  C   UNL     1      26.125  36.533  47.343  1.00  0.00     0.163 A 
HETATM   15  C   UNL     1      26.576  36.206  48.611  1.00  0.00     0.060 A 
HETATM   16  C   UNL     1      26.813  37.236  49.519  1.00  0.00     0.035 A 
BRANCH  14  17
HETATM   17  O   UNL     1      25.903  35.478  46.482  1.00  0.00    -0.339 OA
HETATM   18  C   UNL     1      26.848  34.424  46.639  1.00  0.00     0.211 C 
ENDBRANCH  14  17
ENDBRANCH   8  11
ENDBRANCH   5   7
BRANCH   1  19
HETATM   19  C   UNL     1      28.945  43.532  54.047  1.00  0.00    -0.005 A 
HETATM   20  C   UNL     1      28.355  44.749  54.420  1.00  0.00     0.053 A 
HETATM   21  C   UNL     1      28.910  45.532  55.441  1.00  0.00     0.102 A 
HETATM   22  C   UNL     1      30.061  45.083  56.117  1.00  0.00     0.101 A 
HETATM   23  C   UNL     1      30.668  43.887  55.725  1.00  0.00     0.040 A 
HETATM   24  C   UNL     1      30.113  43.120  54.696  1.00  0.00     0.017 A 
BRANCH  21  25
HETATM   25  O   UNL     1      28.385  46.725  55.872  1.00  0.00    -0.353 OA
HETATM   26  C   UNL     1      27.804  47.576  54.895  1.00  0.00     0.210 C 
ENDBRANCH  21  25
BRANCH  22  27
HETATM   27  O   UNL     1      30.540  45.894  57.115  1.00  0.00    -0.353 OA
HETATM   28  C   UNL     1      30.482  45.378  58.439  1.00  0.00     0.210 C 
ENDBRANCH  22  27
ENDBRANCH   1  19
TORSDOF 6
ENDMDL
MODEL 8
REMARK VINA RESULT:      -6.9     13.495     16.069
REMARK  6 active torsions:
REMARK  status: ('A' for Active; 'I' for Inactive)
REMARK    1  A    between atoms: O_2  and  C_3 
REMARK    2  A    between atoms: C_4  and  O_5 
REMARK    3  A    between atoms: C_8  and  C_9 
REMARK    4  A    between atoms: C_13  and  C_14 
REMARK       I    between atoms: C_14  and  N_15 
REMARK    5  A    between atoms: N_15  and  C_16 
REMARK    6  A    between atoms: C_19  and  O_20 
ROOT
HETATM    1  C   UNL     1      33.596  50.660  42.419  1.00  0.00     0.063 A 
HETATM    2  N   UNL     1      34.542  49.874  41.812  1.00  0.00    -0.277 N 
HETATM    3  H   UNL     1      34.381  49.054  41.237  1.00  0.00     0.189 HD
HETATM    4  N   UNL     1      35.813  50.244  42.053  1.00  0.00    -0.169 NA
HETATM    5  C   UNL     1      35.688  51.315  42.865  1.00  0.00     0.147 A 
HETATM    6  C   UNL     1      34.324  51.603  43.118  1.00  0.00     0.071 A 
ENDROOT
BRANCH   5   7
HETATM    7  C   UNL     1      36.862  52.033  43.393  1.00  0.00     0.276 C 
HETATM    8  N   UNL     1      36.529  53.289  43.860  1.00  0.00    -0.320 N 
HETATM    9  H   UNL     1      35.540  53.508  43.762  1.00  0.00     0.169 HD
HETATM   10  O   UNL     1      37.982  51.534  43.388  1.00  0.00    -0.266 OA
BRANCH   8  11
HETATM   11  C   UNL     1      37.380  54.255  44.419  1.00  0.00     0.052 A 
HETATM   12  C   UNL     1      37.536  54.492  45.783  1.00  0.00     0.149 A 
HETATM   13  N   UNL     1      38.365  55.433  46.303  1.00  0.00    -0.235 NA
HETATM   14  C   UNL     1      39.074  56.171  45.426  1.00  0.00     0.163 A 
HETATM   15  C   UNL     1      38.993  56.012  44.053  1.00  0.00     0.060 A 
HETATM   16  C   UNL     1      38.132  55.041  43.545  1.00  0.00     0.035 A 
BRANCH  14  17
HETATM   17  O   UNL     1      39.937  57.147  45.880  1.00  0.00    -0.339 OA
HETATM   18  C   UNL     1      39.646  58.436  45.348  1.00  0.00     0.211 C 
ENDBRANCH  14  17
ENDBRANCH   8  11
ENDBRANCH   5   7
BRANCH   1  19
HETATM   19  C   UNL     1      32.160  50.420  42.323  1.00  0.00    -0.005 A 
HETATM   20  C   UNL     1      31.273  51.450  41.977  1.00  0.00     0.053 A 
HETATM   21  C   UNL     1      29.898  51.205  41.860  1.00  0.00     0.102 A 
HETATM   22  C   UNL     1      29.402  49.904  42.071  1.00  0.00     0.101 A 
HETATM   23  C   UNL     1      30.280  48.884  42.445  1.00  0.00     0.040 A 
HETATM   24  C   UNL     1      31.647  49.143  42.572  1.00  0.00     0.017 A 
BRANCH  21  25
HETATM   25  O   UNL     1      28.971  52.156  41.513  1.00  0.00    -0.353 OA
HETATM   26  C   UNL     1      29.357  53.130  40.555  1.00  0.00     0.210 C 
ENDBRANCH  21  25
BRANCH  22  27
HETATM   27  O   UNL     1      28.048  49.735  41.924  1.00  0.00    -0.353 OA
HETATM   28  C   UNL     1      27.621  48.892  40.861  1.00  0.00     0.210 C 
ENDBRANCH  22  27
ENDBRANCH   1  19
TORSDOF 6
ENDMDL
MODEL 9
REMARK VINA RESULT:      -6.8      6.449     10.392
REMARK  6 active torsions:
REMARK  status: ('A' for Active; 'I' for Inactive)
REMARK    1  A    between atoms: O_2  and  C_3 
REMARK    2  A    between atoms: C_4  and  O_5 
REMARK    3  A    between atoms: C_8  and  C_9 
REMARK    4  A    between atoms: C_13  and  C_14 
REMARK       I    between atoms: C_14  and  N_15 
REMARK    5  A    between atoms: N_15  and  C_16 
REMARK    6  A    between atoms: C_19  and  O_20 
ROOT
HETATM    1  C   UNL     1      16.925  52.390  49.019  1.00  0.00     0.063 A 
HETATM    2  N   UNL     1      15.959  52.647  48.080  1.00  0.00    -0.277 N 
HETATM    3  H   UNL     1      15.939  52.330  47.117  1.00  0.00     0.189 HD
HETATM    4  N   UNL     1      14.958  53.437  48.511  1.00  0.00    -0.169 NA
HETATM    5  C   UNL     1      15.296  53.715  49.789  1.00  0.00     0.147 A 
HETATM    6  C   UNL     1      16.514  53.083  50.140  1.00  0.00     0.071 A 
ENDROOT
BRANCH   5   7
HETATM    7  C   UNL     1      14.463  54.582  50.643  1.00  0.00     0.276 C 
HETATM    8  N   UNL     1      15.133  54.969  51.787  1.00  0.00    -0.320 N 
HETATM    9  H   UNL     1      16.077  54.596  51.850  1.00  0.00     0.169 HD
HETATM   10  O   UNL     1      13.317  54.886  50.334  1.00  0.00    -0.266 OA
BRANCH   8  11
HETATM   11  C   UNL     1      14.658  55.779  52.831  1.00  0.00     0.052 A 
HETATM   12  C   UNL     1      13.344  55.802  53.293  1.00  0.00     0.149 A 
HETATM   13  N   UNL     1      12.905  56.595  54.303  1.00  0.00    -0.235 NA
HETATM   14  C   UNL     1      13.816  57.402  54.883  1.00  0.00     0.163 A 
HETATM   15  C   UNL     1      15.145  57.452  54.500  1.00  0.00     0.060 A 
HETATM   16  C   UNL     1      15.569  56.630  53.458  1.00  0.00     0.035 A 
BRANCH  14  17
HETATM   17  O   UNL     1      13.445  58.237  55.917  1.00  0.00    -0.339 OA
HETATM   18  C   UNL     1      14.404  59.257  56.178  1.00  0.00     0.211 C 
ENDBRANCH  14  17
ENDBRANCH   8  11
ENDBRANCH   5   7
BRANCH   1  19
HETATM   19  C   UNL     1      18.116  51.588  48.756  1.00  0.00    -0.005 A 
HETATM   20  C   UNL     1      18.024  50.209  48.515  1.00  0.00     0.053 A 
HETATM   21  C   UNL     1      19.170  49.452  48.237  1.00  0.00     0.102 A 
HETATM   22  C   UNL     1      20.427  50.084  48.178  1.00  0.00     0.101 A 
HETATM   23  C   UNL     1      20.523  51.451  48.449  1.00  0.00     0.040 A 
HETATM   24  C   UNL     1      19.376  52.195  48.737  1.00  0.00     0.017 A 
BRANCH  21  25
HETATM   25  O   UNL     1      19.160  48.103  47.977  1.00  0.00    -0.353 OA
HETATM   26  C   UNL     1      18.201  47.311  48.662  1.00  0.00     0.210 C 
ENDBRANCH  21  25
BRANCH  22  27
HETATM   27  O   UNL     1      21.501  49.282  47.886  1.00  0.00    -0.353 OA
HETATM   28  C   UNL     1      22.422  49.039  48.943  1.00  0.00     0.210 C 
ENDBRANCH  22  27
ENDBRANCH   1  19
TORSDOF 6
ENDMDL
MODEL 10
REMARK VINA RESULT:      -6.7      6.859      8.952
REMARK  6 active torsions:
REMARK  status: ('A' for Active; 'I' for Inactive)
REMARK    1  A    between atoms: O_2  and  C_3 
REMARK    2  A    between atoms: C_4  and  O_5 
REMARK    3  A    between atoms: C_8  and  C_9 
REMARK    4  A    between atoms: C_13  and  C_14 
REMARK       I    between atoms: C_14  and  N_15 
REMARK    5  A    between atoms: N_15  and  C_16 
REMARK    6  A    between atoms: C_19  and  O_20 
ROOT
HETATM    1  C   UNL     1      27.713  43.799  52.730  1.00  0.00     0.063 A 
HETATM    2  N   UNL     1      26.413  44.234  52.785  1.00  0.00    -0.277 N 
HETATM    3  H   UNL     1      25.957  44.711  53.556  1.00  0.00     0.189 HD
HETATM    4  N   UNL     1      25.684  43.951  51.690  1.00  0.00    -0.169 NA
HETATM    5  C   UNL     1      26.548  43.291  50.890  1.00  0.00     0.147 A 
HETATM    6  C   UNL     1      27.820  43.176  51.503  1.00  0.00     0.071 A 
ENDROOT
BRANCH   5   7
HETATM    7  C   UNL     1      26.146  42.776  49.568  1.00  0.00     0.276 C 
HETATM    8  N   UNL     1      26.888  41.669  49.202  1.00  0.00    -0.320 N 
HETATM    9  H   UNL     1      27.580  41.398  49.897  1.00  0.00     0.169 HD
HETATM   10  O   UNL     1      25.260  43.307  48.909  1.00  0.00    -0.266 OA
BRANCH   8  11
HETATM   11  C   UNL     1      26.794  40.923  48.017  1.00  0.00     0.052 A 
HETATM   12  C   UNL     1      27.708  40.970  46.967  1.00  0.00     0.149 A 
HETATM   13  N   UNL     1      27.598  40.240  45.827  1.00  0.00    -0.235 NA
HETATM   14  C   UNL     1      26.531  39.423  45.729  1.00  0.00     0.163 A 
HETATM   15  C   UNL     1      25.569  39.301  46.717  1.00  0.00     0.060 A 
HETATM   16  C   UNL     1      25.704  40.064  47.875  1.00  0.00     0.035 A 
BRANCH  14  17
HETATM   17  O   UNL     1      26.351  38.649  44.601  1.00  0.00    -0.339 OA
HETATM   18  C   UNL     1      26.968  39.204  43.444  1.00  0.00     0.211 C 
ENDBRANCH  14  17
ENDBRANCH   8  11
ENDBRANCH   5   7
BRANCH   1  19
HETATM   19  C   UNL     1      28.670  43.967  53.819  1.00  0.00    -0.005 A 
HETATM   20  C   UNL     1      28.606  45.075  54.678  1.00  0.00     0.053 A 
HETATM   21  C   UNL     1      29.512  45.215  55.738  1.00  0.00     0.102 A 
HETATM   22  C   UNL     1      30.485  44.221  55.959  1.00  0.00     0.101 A 
HETATM   23  C   UNL     1      30.570  43.134  55.086  1.00  0.00     0.040 A 
HETATM   24  C   UNL     1      29.670  43.011  54.024  1.00  0.00     0.017 A 
BRANCH  21  25
HETATM   25  O   UNL     1      29.505  46.261  56.627  1.00  0.00    -0.353 OA
HETATM   26  C   UNL     1      28.599  46.189  57.717  1.00  0.00     0.210 C 
ENDBRANCH  21  25
BRANCH  22  27
HETATM   27  O   UNL     1      31.328  44.417  57.023  1.00  0.00    -0.353 OA
HETATM   28  C   UNL     1      32.178  43.331  57.373  1.00  0.00     0.210 C 
ENDBRANCH  22  27
ENDBRANCH   1  19
TORSDOF 6
ENDMDL
