MODEL 1
REMARK VINA RESULT:     -10.3      0.000      0.000
REMARK  6 active torsions:
REMARK  status: ('A' for Active; 'I' for Inactive)
REMARK    1  A    between atoms: N_2  and  C_5 
REMARK    2  A    between atoms: C_10  and  N_11 
REMARK       I    between atoms: N_11  and  C_12 
REMARK    3  A    between atoms: C_12  and  C_14 
REMARK    4  A    between atoms: C_18  and  C_20 
REMARK       I    between atoms: N_24  and  C_25 
REMARK    5  A    between atoms: C_25  and  C_27 
REMARK    6  A    between atoms: C_32  and  O_33 
ROOT
HETATM    1  C   UNL     1      23.134  48.503  48.819  1.00  0.00     0.033 A 
HETATM    2  C   UNL     1      22.754  49.851  48.817  1.00  0.00     0.017 A 
HETATM    3  C   UNL     1      21.648  50.272  48.081  1.00  0.00     0.002 A 
HETATM    4  C   UNL     1      20.912  49.349  47.338  1.00  0.00     0.009 A 
HETATM    5  C   UNL     1      21.271  47.992  47.324  1.00  0.00    -0.034 A 
HETATM    6  C   UNL     1      22.376  47.576  48.089  1.00  0.00     0.026 A 
ENDROOT
BRANCH   5   7
HETATM    7  C   UNL     1      20.504  46.981  46.498  1.00  0.00     0.120 C 
HETATM    8  C   UNL     1      21.430  46.210  45.542  1.00  0.00     0.032 C 
HETATM    9  C   UNL     1      20.709  44.882  45.355  1.00  0.00     0.022 C 
HETATM   10  C   UNL     1      20.137  44.612  46.738  1.00  0.00     0.127 C 
HETATM   11  N   UNL     1      19.829  45.929  47.269  1.00  0.00    -0.339 N 
HETATM   12  C   UNL     1      18.884  46.061  48.271  1.00  0.00     0.254 C 
HETATM   13  O   UNL     1      18.338  45.112  48.824  1.00  0.00    -0.267 OA
BRANCH  12  14
HETATM   14  C   UNL     1      18.534  47.418  48.728  1.00  0.00     0.033 A 
HETATM   15  C   UNL     1      19.091  47.885  49.918  1.00  0.00     0.018 A 
HETATM   16  C   UNL     1      18.844  49.195  50.324  1.00  0.00     0.013 A 
HETATM   17  C   UNL     1      18.020  50.036  49.560  1.00  0.00    -0.023 A 
HETATM   18  C   UNL     1      17.783  51.364  49.949  1.00  0.00     0.048 A 
HETATM   19  C   UNL     1      17.412  49.536  48.380  1.00  0.00    -0.025 A 
HETATM   20  C   UNL     1      16.947  52.175  49.188  1.00  0.00     0.066 A 
HETATM   21  C   UNL     1      16.330  51.687  48.044  1.00  0.00     0.037 A 
HETATM   22  C   UNL     1      16.562  50.373  47.638  1.00  0.00     0.015 A 
HETATM   23  C   UNL     1      17.674  48.220  47.973  1.00  0.00     0.029 A 
BRANCH  20  24
HETATM   24  O   UNL     1      16.706  53.471  49.537  1.00  0.00    -0.361 OA
HETATM   25  H   UNL     1      15.770  53.550  49.792  1.00  0.00     0.217 HD
ENDBRANCH  20  24
ENDBRANCH  12  14
ENDBRANCH   5   7
BRANCH   1  26
HETATM   26  C   UNL     1      24.309  48.103  49.652  1.00  0.00     0.257 C 
HETATM   27  N   UNL     1      24.064  47.151  50.618  1.00  0.00    -0.301 N 
HETATM   28  H   UNL     1      23.186  46.657  50.663  1.00  0.00     0.171 HD
HETATM   29  O   UNL     1      25.388  48.637  49.415  1.00  0.00    -0.267 OA
BRANCH  27  30
HETATM   30  C   UNL     1      25.015  46.804  51.538  1.00  0.00     0.174 A 
HETATM   31  N   UNL     1      25.414  47.449  52.606  1.00  0.00    -0.228 NA
HETATM   32  C   UNL     1      26.368  46.716  53.259  1.00  0.00     0.050 A 
HETATM   33  C   UNL     1      27.000  47.223  54.509  1.00  0.00     0.062 C 
HETATM   34  C   UNL     1      26.653  45.489  52.698  1.00  0.00     0.013 A 
HETATM   35  C   UNL     1      28.269  46.419  54.848  1.00  0.00     0.039 C 
HETATM   36  C   UNL     1      28.019  44.902  54.690  1.00  0.00     0.192 C 
HETATM   37  C   UNL     1      27.642  44.510  53.231  1.00  0.00     0.081 C 
HETATM   38  S   UNL     1      25.742  45.274  51.273  1.00  0.00    -0.055 SA
BRANCH  36  39
HETATM   39  N   UNL     1      29.209  44.070  55.187  1.00  0.00    -0.074 N 
HETATM   40  C   UNL     1      29.894  43.214  54.151  1.00  0.00     0.269 C 
HETATM   41  H   UNL     1      28.825  43.416  55.884  1.00  0.00     0.279 HD
HETATM   42  C   UNL     1      30.219  44.897  55.949  1.00  0.00     0.269 C 
ENDBRANCH  36  39
ENDBRANCH  27  30
ENDBRANCH   1  26
TORSDOF 6
ENDMDL
MODEL 2
REMARK VINA RESULT:     -10.2      2.058      4.920
REMARK  6 active torsions:
REMARK  status: ('A' for Active; 'I' for Inactive)
REMARK    1  A    between atoms: N_2  and  C_5 
REMARK    2  A    between atoms: C_10  and  N_11 
REMARK       I    between atoms: N_11  and  C_12 
REMARK    3  A    between atoms: C_12  and  C_14 
REMARK    4  A    between atoms: C_18  and  C_20 
REMARK       I    between atoms: N_24  and  C_25 
REMARK    5  A    between atoms: C_25  and  C_27 
REMARK    6  A    between atoms: C_32  and  O_33 
ROOT
HETATM    1  C   UNL     1      23.623  48.787  49.067  1.00  0.00     0.033 A 
HETATM    2  C   UNL     1      23.941  49.674  48.032  1.00  0.00     0.017 A 
HETATM    3  C   UNL     1      22.952  50.465  47.450  1.00  0.00     0.002 A 
HETATM    4  C   UNL     1      21.635  50.377  47.898  1.00  0.00     0.009 A 
HETATM    5  C   UNL     1      21.289  49.497  48.937  1.00  0.00    -0.034 A 
HETATM    6  C   UNL     1      22.301  48.719  49.530  1.00  0.00     0.026 A 
ENDROOT
BRANCH   5   7
HETATM    7  C   UNL     1      19.858  49.363  49.415  1.00  0.00     0.120 C 
HETATM    8  C   UNL     1      19.335  50.680  50.013  1.00  0.00     0.032 C 
HETATM    9  C   UNL     1      17.833  50.594  49.782  1.00  0.00     0.022 C 
HETATM   10  C   UNL     1      17.740  49.930  48.417  1.00  0.00     0.127 C 
HETATM   11  N   UNL     1      18.881  49.031  48.371  1.00  0.00    -0.339 N 
HETATM   12  C   UNL     1      18.862  47.942  47.517  1.00  0.00     0.254 C 
HETATM   13  O   UNL     1      17.967  47.725  46.707  1.00  0.00    -0.267 OA
BRANCH  12  14
HETATM   14  C   UNL     1      19.998  47.004  47.556  1.00  0.00     0.033 A 
HETATM   15  C   UNL     1      20.898  47.002  46.491  1.00  0.00     0.018 A 
HETATM   16  C   UNL     1      22.026  46.185  46.547  1.00  0.00     0.013 A 
HETATM   17  C   UNL     1      22.247  45.348  47.652  1.00  0.00    -0.023 A 
HETATM   18  C   UNL     1      23.392  44.540  47.727  1.00  0.00     0.048 A 
HETATM   19  C   UNL     1      21.298  45.314  48.706  1.00  0.00    -0.025 A 
HETATM   20  C   UNL     1      23.582  43.702  48.822  1.00  0.00     0.066 A 
HETATM   21  C   UNL     1      22.647  43.644  49.846  1.00  0.00     0.037 A 
HETATM   22  C   UNL     1      21.510  44.449  49.792  1.00  0.00     0.015 A 
HETATM   23  C   UNL     1      20.171  46.146  48.645  1.00  0.00     0.029 A 
BRANCH  20  24
HETATM   24  O   UNL     1      24.689  42.911  48.926  1.00  0.00    -0.361 OA
HETATM   25  H   UNL     1      25.029  42.741  48.030  1.00  0.00     0.217 HD
ENDBRANCH  20  24
ENDBRANCH  12  14
ENDBRANCH   5   7
BRANCH   1  26
HETATM   26  C   UNL     1      24.729  47.986  49.675  1.00  0.00     0.257 C 
HETATM   27  N   UNL     1      24.339  46.966  50.517  1.00  0.00    -0.301 N 
HETATM   28  H   UNL     1      23.373  46.691  50.603  1.00  0.00     0.171 HD
HETATM   29  O   UNL     1      25.882  48.285  49.380  1.00  0.00    -0.267 OA
BRANCH  27  30
HETATM   30  C   UNL     1      25.251  46.253  51.246  1.00  0.00     0.174 A 
HETATM   31  N   UNL     1      25.892  45.155  50.932  1.00  0.00    -0.228 NA
HETATM   32  C   UNL     1      26.737  44.804  51.951  1.00  0.00     0.050 A 
HETATM   33  C   UNL     1      27.585  43.584  51.856  1.00  0.00     0.062 C 
HETATM   34  C   UNL     1      26.761  45.675  53.020  1.00  0.00     0.013 A 
HETATM   35  C   UNL     1      28.160  43.206  53.234  1.00  0.00     0.039 C 
HETATM   36  C   UNL     1      28.709  44.453  53.963  1.00  0.00     0.192 C 
HETATM   37  C   UNL     1      27.605  45.517  54.237  1.00  0.00     0.081 C 
HETATM   38  S   UNL     1      25.646  46.940  52.767  1.00  0.00    -0.055 SA
BRANCH  36  39
HETATM   39  N   UNL     1      29.442  44.082  55.259  1.00  0.00    -0.074 N 
HETATM   40  C   UNL     1      30.677  43.233  55.099  1.00  0.00     0.269 C 
HETATM   41  H   UNL     1      28.779  43.514  55.807  1.00  0.00     0.279 HD
HETATM   42  C   UNL     1      29.729  45.284  56.129  1.00  0.00     0.269 C 
ENDBRANCH  36  39
ENDBRANCH  27  30
ENDBRANCH   1  26
TORSDOF 6
ENDMDL
MODEL 3
REMARK VINA RESULT:      -9.6      3.000      5.595
REMARK  6 active torsions:
REMARK  status: ('A' for Active; 'I' for Inactive)
REMARK    1  A    between atoms: N_2  and  C_5 
REMARK    2  A    between atoms: C_10  and  N_11 
REMARK       I    between atoms: N_11  and  C_12 
REMARK    3  A    between atoms: C_12  and  C_14 
REMARK    4  A    between atoms: C_18  and  C_20 
REMARK       I    between atoms: N_24  and  C_25 
REMARK    5  A    between atoms: C_25  and  C_27 
REMARK    6  A    between atoms: C_32  and  O_33 
ROOT
HETATM    1  C   UNL     1      19.459  47.443  47.785  1.00  0.00     0.033 A 
HETATM    2  C   UNL     1      18.443  46.732  48.434  1.00  0.00     0.017 A 
HETATM    3  C   UNL     1      17.140  47.227  48.460  1.00  0.00     0.002 A 
HETATM    4  C   UNL     1      16.842  48.438  47.837  1.00  0.00     0.009 A 
HETATM    5  C   UNL     1      17.843  49.170  47.177  1.00  0.00    -0.034 A 
HETATM    6  C   UNL     1      19.149  48.649  47.139  1.00  0.00     0.026 A 
ENDROOT
BRANCH   5   7
HETATM    7  C   UNL     1      17.545  50.503  46.523  1.00  0.00     0.120 C 
HETATM    8  C   UNL     1      16.364  50.402  45.542  1.00  0.00     0.032 C 
HETATM    9  C   UNL     1      15.790  51.812  45.543  1.00  0.00     0.022 C 
HETATM   10  C   UNL     1      15.939  52.235  46.996  1.00  0.00     0.127 C 
HETATM   11  N   UNL     1      17.154  51.576  47.445  1.00  0.00    -0.339 N 
HETATM   12  C   UNL     1      17.851  52.085  48.527  1.00  0.00     0.254 C 
HETATM   13  O   UNL     1      17.458  53.026  49.210  1.00  0.00    -0.267 OA
BRANCH  12  14
HETATM   14  C   UNL     1      19.123  51.444  48.903  1.00  0.00     0.033 A 
HETATM   15  C   UNL     1      19.151  50.638  50.041  1.00  0.00     0.018 A 
HETATM   16  C   UNL     1      20.320  49.953  50.367  1.00  0.00     0.013 A 
HETATM   17  C   UNL     1      21.472  50.087  49.576  1.00  0.00    -0.023 A 
HETATM   18  C   UNL     1      22.646  49.383  49.884  1.00  0.00     0.048 A 
HETATM   19  C   UNL     1      21.451  50.952  48.452  1.00  0.00    -0.025 A 
HETATM   20  C   UNL     1      23.782  49.546  49.098  1.00  0.00     0.066 A 
HETATM   21  C   UNL     1      23.779  50.408  48.010  1.00  0.00     0.037 A 
HETATM   22  C   UNL     1      22.617  51.107  47.684  1.00  0.00     0.015 A 
HETATM   23  C   UNL     1      20.268  51.631  48.126  1.00  0.00     0.029 A 
BRANCH  20  24
HETATM   24  O   UNL     1      24.936  48.868  49.368  1.00  0.00    -0.361 OA
HETATM   25  H   UNL     1      25.382  48.677  48.525  1.00  0.00     0.217 HD
ENDBRANCH  20  24
ENDBRANCH  12  14
ENDBRANCH   5   7
BRANCH   1  26
HETATM   26  C   UNL     1      20.831  46.848  47.762  1.00  0.00     0.257 C 
HETATM   27  N   UNL     1      21.100  45.922  48.746  1.00  0.00    -0.301 N 
HETATM   28  H   UNL     1      20.375  45.566  49.351  1.00  0.00     0.171 HD
HETATM   29  O   UNL     1      21.601  47.217  46.881  1.00  0.00    -0.267 OA
BRANCH  27  30
HETATM   30  C   UNL     1      22.356  45.411  48.924  1.00  0.00     0.174 A 
HETATM   31  N   UNL     1      23.407  45.962  49.481  1.00  0.00    -0.228 NA
HETATM   32  C   UNL     1      24.452  45.076  49.474  1.00  0.00     0.050 A 
HETATM   33  C   UNL     1      25.776  45.451  50.043  1.00  0.00     0.062 C 
HETATM   34  C   UNL     1      24.165  43.834  48.948  1.00  0.00     0.013 A 
HETATM   35  C   UNL     1      26.865  44.454  49.603  1.00  0.00     0.039 C 
HETATM   36  C   UNL     1      26.368  42.998  49.741  1.00  0.00     0.192 C 
HETATM   37  C   UNL     1      25.130  42.704  48.843  1.00  0.00     0.081 C 
HETATM   38  S   UNL     1      22.555  43.795  48.388  1.00  0.00    -0.055 SA
BRANCH  36  39
HETATM   39  N   UNL     1      27.487  41.983  49.476  1.00  0.00    -0.074 N 
HETATM   40  C   UNL     1      27.838  41.072  50.625  1.00  0.00     0.269 C 
HETATM   41  H   UNL     1      28.334  42.539  49.288  1.00  0.00     0.279 HD
HETATM   42  C   UNL     1      27.261  41.186  48.212  1.00  0.00     0.269 C 
ENDBRANCH  36  39
ENDBRANCH  27  30
ENDBRANCH   1  26
TORSDOF 6
ENDMDL
MODEL 4
REMARK VINA RESULT:      -9.0     15.106     17.205
REMARK  6 active torsions:
REMARK  status: ('A' for Active; 'I' for Inactive)
REMARK    1  A    between atoms: N_2  and  C_5 
REMARK    2  A    between atoms: C_10  and  N_11 
REMARK       I    between atoms: N_11  and  C_12 
REMARK    3  A    between atoms: C_12  and  C_14 
REMARK    4  A    between atoms: C_18  and  C_20 
REMARK       I    between atoms: N_24  and  C_25 
REMARK    5  A    between atoms: C_25  and  C_27 
REMARK    6  A    between atoms: C_32  and  O_33 
ROOT
HETATM    1  C   UNL     1      33.072  52.419  39.186  1.00  0.00     0.033 A 
HETATM    2  C   UNL     1      32.904  51.634  38.039  1.00  0.00     0.017 A 
HETATM    3  C   UNL     1      31.718  50.930  37.832  1.00  0.00     0.002 A 
HETATM    4  C   UNL     1      30.690  51.006  38.770  1.00  0.00     0.009 A 
HETATM    5  C   UNL     1      30.832  51.788  39.928  1.00  0.00    -0.034 A 
HETATM    6  C   UNL     1      32.025  52.510  40.115  1.00  0.00     0.026 A 
ENDROOT
BRANCH   5   7
HETATM    7  C   UNL     1      29.739  51.856  40.974  1.00  0.00     0.120 C 
HETATM    8  C   UNL     1      28.439  52.443  40.397  1.00  0.00     0.032 C 
HETATM    9  C   UNL     1      27.359  51.818  41.270  1.00  0.00     0.022 C 
HETATM   10  C   UNL     1      27.885  50.410  41.500  1.00  0.00     0.127 C 
HETATM   11  N   UNL     1      29.330  50.562  41.534  1.00  0.00    -0.339 N 
HETATM   12  C   UNL     1      30.105  49.615  42.179  1.00  0.00     0.254 C 
HETATM   13  O   UNL     1      29.657  48.579  42.661  1.00  0.00    -0.267 OA
BRANCH  12  14
HETATM   14  C   UNL     1      31.558  49.842  42.268  1.00  0.00     0.033 A 
HETATM   15  C   UNL     1      32.400  49.110  41.431  1.00  0.00     0.018 A 
HETATM   16  C   UNL     1      33.769  49.371  41.436  1.00  0.00     0.013 A 
HETATM   17  C   UNL     1      34.308  50.343  42.293  1.00  0.00    -0.023 A 
HETATM   18  C   UNL     1      35.682  50.628  42.288  1.00  0.00     0.048 A 
HETATM   19  C   UNL     1      33.453  51.045  43.181  1.00  0.00    -0.025 A 
HETATM   20  C   UNL     1      36.199  51.582  43.159  1.00  0.00     0.066 A 
HETATM   21  C   UNL     1      35.373  52.256  44.048  1.00  0.00     0.037 A 
HETATM   22  C   UNL     1      34.004  51.992  44.059  1.00  0.00     0.015 A 
HETATM   23  C   UNL     1      32.075  50.782  43.163  1.00  0.00     0.029 A 
BRANCH  20  24
HETATM   24  O   UNL     1      37.529  51.886  43.171  1.00  0.00    -0.361 OA
HETATM   25  H   UNL     1      38.018  51.129  42.804  1.00  0.00     0.217 HD
ENDBRANCH  20  24
ENDBRANCH  12  14
ENDBRANCH   5   7
BRANCH   1  26
HETATM   26  C   UNL     1      34.352  53.175  39.340  1.00  0.00     0.257 C 
HETATM   27  N   UNL     1      35.507  52.428  39.243  1.00  0.00    -0.301 N 
HETATM   28  H   UNL     1      35.490  51.464  38.945  1.00  0.00     0.171 HD
HETATM   29  O   UNL     1      34.283  54.385  39.533  1.00  0.00    -0.267 OA
BRANCH  27  30
HETATM   30  C   UNL     1      36.734  52.971  39.506  1.00  0.00     0.174 A 
HETATM   31  N   UNL     1      37.173  53.544  40.600  1.00  0.00    -0.228 NA
HETATM   32  C   UNL     1      38.481  53.915  40.435  1.00  0.00     0.050 A 
HETATM   33  C   UNL     1      39.226  54.597  41.529  1.00  0.00     0.062 C 
HETATM   34  C   UNL     1      39.039  53.574  39.221  1.00  0.00     0.013 A 
HETATM   35  C   UNL     1      40.527  55.228  40.997  1.00  0.00     0.039 C 
HETATM   36  C   UNL     1      41.278  54.245  40.070  1.00  0.00     0.192 C 
HETATM   37  C   UNL     1      40.444  53.858  38.813  1.00  0.00     0.081 C 
HETATM   38  S   UNL     1      37.872  52.821  38.233  1.00  0.00    -0.055 SA
BRANCH  36  39
HETATM   39  N   UNL     1      42.658  54.779  39.666  1.00  0.00    -0.074 N 
HETATM   40  C   UNL     1      43.724  54.726  40.731  1.00  0.00     0.269 C 
HETATM   41  H   UNL     1      42.523  55.778  39.452  1.00  0.00     0.279 HD
HETATM   42  C   UNL     1      43.160  54.173  38.376  1.00  0.00     0.269 C 
ENDBRANCH  36  39
ENDBRANCH  27  30
ENDBRANCH   1  26
TORSDOF 6
ENDMDL
MODEL 5
REMARK VINA RESULT:      -8.9     11.514     15.209
REMARK  6 active torsions:
REMARK  status: ('A' for Active; 'I' for Inactive)
REMARK    1  A    between atoms: N_2  and  C_5 
REMARK    2  A    between atoms: C_10  and  N_11 
REMARK       I    between atoms: N_11  and  C_12 
REMARK    3  A    between atoms: C_12  and  C_14 
REMARK    4  A    between atoms: C_18  and  C_20 
REMARK       I    between atoms: N_24  and  C_25 
REMARK    5  A    between atoms: C_25  and  C_27 
REMARK    6  A    between atoms: C_32  and  O_33 
ROOT
HETATM    1  C   UNL     1      27.984  51.006  39.513  1.00  0.00     0.033 A 
HETATM    2  C   UNL     1      27.730  51.908  40.553  1.00  0.00     0.017 A 
HETATM    3  C   UNL     1      28.784  52.514  41.235  1.00  0.00     0.002 A 
HETATM    4  C   UNL     1      30.102  52.224  40.883  1.00  0.00     0.009 A 
HETATM    5  C   UNL     1      30.384  51.325  39.842  1.00  0.00    -0.034 A 
HETATM    6  C   UNL     1      29.311  50.736  39.147  1.00  0.00     0.026 A 
ENDROOT
BRANCH   5   7
HETATM    7  C   UNL     1      31.808  50.973  39.467  1.00  0.00     0.120 C 
HETATM    8  C   UNL     1      32.584  52.203  38.968  1.00  0.00     0.032 C 
HETATM    9  C   UNL     1      34.029  51.864  39.307  1.00  0.00     0.022 C 
HETATM   10  C   UNL     1      33.902  51.152  40.645  1.00  0.00     0.127 C 
HETATM   11  N   UNL     1      32.631  50.452  40.566  1.00  0.00    -0.339 N 
HETATM   12  C   UNL     1      32.404  49.349  41.371  1.00  0.00     0.254 C 
HETATM   13  O   UNL     1      33.184  48.963  42.236  1.00  0.00    -0.267 OA
BRANCH  12  14
HETATM   14  C   UNL     1      31.139  48.612  41.206  1.00  0.00     0.033 A 
HETATM   15  C   UNL     1      30.101  48.861  42.103  1.00  0.00     0.018 A 
HETATM   16  C   UNL     1      28.867  48.240  41.914  1.00  0.00     0.013 A 
HETATM   17  C   UNL     1      28.671  47.350  40.847  1.00  0.00    -0.023 A 
HETATM   18  C   UNL     1      27.426  46.738  40.637  1.00  0.00     0.048 A 
HETATM   19  C   UNL     1      29.749  47.059  39.972  1.00  0.00    -0.025 A 
HETATM   20  C   UNL     1      27.258  45.843  39.584  1.00  0.00     0.066 A 
HETATM   21  C   UNL     1      28.314  45.535  38.737  1.00  0.00     0.037 A 
HETATM   22  C   UNL     1      29.555  46.142  38.926  1.00  0.00     0.015 A 
HETATM   23  C   UNL     1      30.984  47.695  40.163  1.00  0.00     0.029 A 
BRANCH  20  24
HETATM   24  O   UNL     1      26.057  45.240  39.350  1.00  0.00    -0.361 OA
HETATM   25  H   UNL     1      25.431  45.917  39.039  1.00  0.00     0.217 HD
ENDBRANCH  20  24
ENDBRANCH  12  14
ENDBRANCH   5   7
BRANCH   1  26
HETATM   26  C   UNL     1      26.816  50.410  38.796  1.00  0.00     0.257 C 
HETATM   27  N   UNL     1      25.774  49.989  39.594  1.00  0.00    -0.301 N 
HETATM   28  H   UNL     1      25.743  50.199  40.580  1.00  0.00     0.171 HD
HETATM   29  O   UNL     1      26.866  50.347  37.572  1.00  0.00    -0.267 OA
BRANCH  27  30
HETATM   30  C   UNL     1      24.712  49.298  39.077  1.00  0.00     0.174 A 
HETATM   31  N   UNL     1      24.597  48.019  38.818  1.00  0.00    -0.228 NA
HETATM   32  C   UNL     1      23.343  47.755  38.338  1.00  0.00     0.050 A 
HETATM   33  C   UNL     1      22.946  46.371  37.955  1.00  0.00     0.062 C 
HETATM   34  C   UNL     1      22.495  48.841  38.280  1.00  0.00     0.013 A 
HETATM   35  C   UNL     1      21.651  46.382  37.122  1.00  0.00     0.039 C 
HETATM   36  C   UNL     1      20.598  47.324  37.749  1.00  0.00     0.192 C 
HETATM   37  C   UNL     1      21.083  48.803  37.807  1.00  0.00     0.081 C 
HETATM   38  S   UNL     1      23.314  50.248  38.785  1.00  0.00    -0.055 SA
BRANCH  36  39
HETATM   39  N   UNL     1      19.242  47.222  37.039  1.00  0.00    -0.074 N 
HETATM   40  C   UNL     1      18.639  48.525  36.580  1.00  0.00     0.269 C 
HETATM   41  H   UNL     1      18.586  46.838  37.735  1.00  0.00     0.279 HD
HETATM   42  C   UNL     1      19.248  46.211  35.916  1.00  0.00     0.269 C 
ENDBRANCH  36  39
ENDBRANCH  27  30
ENDBRANCH   1  26
TORSDOF 6
ENDMDL
MODEL 6
REMARK VINA RESULT:      -8.9      3.415      6.017
REMARK  6 active torsions:
REMARK  status: ('A' for Active; 'I' for Inactive)
REMARK    1  A    between atoms: N_2  and  C_5 
REMARK    2  A    between atoms: C_10  and  N_11 
REMARK       I    between atoms: N_11  and  C_12 
REMARK    3  A    between atoms: C_12  and  C_14 
REMARK    4  A    between atoms: C_18  and  C_20 
REMARK       I    between atoms: N_24  and  C_25 
REMARK    5  A    between atoms: C_25  and  C_27 
REMARK    6  A    between atoms: C_32  and  O_33 
ROOT
HETATM    1  C   UNL     1      18.295  48.041  45.774  1.00  0.00     0.033 A 
HETATM    2  C   UNL     1      17.157  47.365  45.317  1.00  0.00     0.017 A 
HETATM    3  C   UNL     1      16.361  47.920  44.316  1.00  0.00     0.002 A 
HETATM    4  C   UNL     1      16.694  49.156  43.764  1.00  0.00     0.009 A 
HETATM    5  C   UNL     1      17.831  49.854  44.204  1.00  0.00    -0.034 A 
HETATM    6  C   UNL     1      18.639  49.273  45.199  1.00  0.00     0.026 A 
ENDROOT
BRANCH   5   7
HETATM    7  C   UNL     1      18.191  51.212  43.639  1.00  0.00     0.120 C 
HETATM    8  C   UNL     1      18.485  51.139  42.131  1.00  0.00     0.032 C 
HETATM    9  C   UNL     1      18.136  52.538  41.641  1.00  0.00     0.022 C 
HETATM   10  C   UNL     1      16.914  52.891  42.475  1.00  0.00     0.127 C 
HETATM   11  N   UNL     1      17.140  52.231  43.750  1.00  0.00    -0.339 N 
HETATM   12  C   UNL     1      16.503  52.698  44.887  1.00  0.00     0.254 C 
HETATM   13  O   UNL     1      15.667  53.597  44.880  1.00  0.00    -0.267 OA
BRANCH  12  14
HETATM   14  C   UNL     1      16.819  52.061  46.177  1.00  0.00     0.033 A 
HETATM   15  C   UNL     1      15.899  51.166  46.721  1.00  0.00     0.018 A 
HETATM   16  C   UNL     1      16.215  50.486  47.896  1.00  0.00     0.013 A 
HETATM   17  C   UNL     1      17.438  50.715  48.547  1.00  0.00    -0.023 A 
HETATM   18  C   UNL     1      17.774  50.018  49.718  1.00  0.00     0.048 A 
HETATM   19  C   UNL     1      18.345  51.668  48.017  1.00  0.00    -0.025 A 
HETATM   20  C   UNL     1      18.983  50.274  50.358  1.00  0.00     0.066 A 
HETATM   21  C   UNL     1      19.866  51.222  49.860  1.00  0.00     0.037 A 
HETATM   22  C   UNL     1      19.552  51.915  48.692  1.00  0.00     0.015 A 
HETATM   23  C   UNL     1      18.023  52.341  46.830  1.00  0.00     0.029 A 
BRANCH  20  24
HETATM   24  O   UNL     1      19.340  49.606  51.493  1.00  0.00    -0.361 OA
HETATM   25  H   UNL     1      20.309  49.515  51.501  1.00  0.00     0.217 HD
ENDBRANCH  20  24
ENDBRANCH  12  14
ENDBRANCH   5   7
BRANCH   1  26
HETATM   26  C   UNL     1      19.130  47.384  46.826  1.00  0.00     0.257 C 
HETATM   27  N   UNL     1      20.435  47.115  46.475  1.00  0.00    -0.301 N 
HETATM   28  H   UNL     1      20.837  47.467  45.619  1.00  0.00     0.171 HD
HETATM   29  O   UNL     1      18.603  47.143  47.908  1.00  0.00    -0.267 OA
BRANCH  27  30
HETATM   30  C   UNL     1      21.260  46.391  47.291  1.00  0.00     0.174 A 
HETATM   31  N   UNL     1      21.360  45.092  47.433  1.00  0.00    -0.228 NA
HETATM   32  C   UNL     1      22.344  44.799  48.339  1.00  0.00     0.050 A 
HETATM   33  C   UNL     1      22.663  43.388  48.693  1.00  0.00     0.062 C 
HETATM   34  C   UNL     1      23.018  45.890  48.846  1.00  0.00     0.013 A 
HETATM   35  C   UNL     1      23.525  43.323  49.967  1.00  0.00     0.039 C 
HETATM   36  C   UNL     1      24.665  44.365  49.915  1.00  0.00     0.192 C 
HETATM   37  C   UNL     1      24.133  45.826  49.833  1.00  0.00     0.081 C 
HETATM   38  S   UNL     1      22.358  47.329  48.215  1.00  0.00    -0.055 SA
BRANCH  36  39
HETATM   39  N   UNL     1      25.641  44.206  51.089  1.00  0.00    -0.074 N 
HETATM   40  C   UNL     1      27.104  44.351  50.754  1.00  0.00     0.269 C 
HETATM   41  H   UNL     1      25.523  43.239  51.425  1.00  0.00     0.279 HD
HETATM   42  C   UNL     1      25.274  45.073  52.271  1.00  0.00     0.269 C 
ENDBRANCH  36  39
ENDBRANCH  27  30
ENDBRANCH   1  26
TORSDOF 6
ENDMDL
MODEL 7
REMARK VINA RESULT:      -8.8      2.749      4.321
REMARK  6 active torsions:
REMARK  status: ('A' for Active; 'I' for Inactive)
REMARK    1  A    between atoms: N_2  and  C_5 
REMARK    2  A    between atoms: C_10  and  N_11 
REMARK       I    between atoms: N_11  and  C_12 
REMARK    3  A    between atoms: C_12  and  C_14 
REMARK    4  A    between atoms: C_18  and  C_20 
REMARK       I    between atoms: N_24  and  C_25 
REMARK    5  A    between atoms: C_25  and  C_27 
REMARK    6  A    between atoms: C_32  and  O_33 
ROOT
HETATM    1  C   UNL     1      19.872  46.696  47.668  1.00  0.00     0.033 A 
HETATM    2  C   UNL     1      18.793  45.960  48.175  1.00  0.00     0.017 A 
HETATM    3  C   UNL     1      17.538  46.042  47.574  1.00  0.00     0.002 A 
HETATM    4  C   UNL     1      17.350  46.861  46.462  1.00  0.00     0.009 A 
HETATM    5  C   UNL     1      18.415  47.608  45.933  1.00  0.00    -0.034 A 
HETATM    6  C   UNL     1      19.682  47.500  46.535  1.00  0.00     0.026 A 
ENDROOT
BRANCH   5   7
HETATM    7  C   UNL     1      18.221  48.528  44.745  1.00  0.00     0.120 C 
HETATM    8  C   UNL     1      18.041  47.736  43.439  1.00  0.00     0.032 C 
HETATM    9  C   UNL     1      17.211  48.676  42.575  1.00  0.00     0.022 C 
HETATM   10  C   UNL     1      16.261  49.307  43.581  1.00  0.00     0.127 C 
HETATM   11  N   UNL     1      17.033  49.387  44.810  1.00  0.00    -0.339 N 
HETATM   12  C   UNL     1      16.683  50.310  45.781  1.00  0.00     0.254 C 
HETATM   13  O   UNL     1      15.685  51.022  45.718  1.00  0.00    -0.267 OA
BRANCH  12  14
HETATM   14  C   UNL     1      17.536  50.424  46.977  1.00  0.00     0.033 A 
HETATM   15  C   UNL     1      16.995  50.082  48.216  1.00  0.00     0.018 A 
HETATM   16  C   UNL     1      17.809  50.099  49.347  1.00  0.00     0.013 A 
HETATM   17  C   UNL     1      19.156  50.481  49.253  1.00  0.00    -0.023 A 
HETATM   18  C   UNL     1      19.988  50.479  50.384  1.00  0.00     0.048 A 
HETATM   19  C   UNL     1      19.684  50.881  47.999  1.00  0.00    -0.025 A 
HETATM   20  C   UNL     1      21.315  50.880  50.272  1.00  0.00     0.066 A 
HETATM   21  C   UNL     1      21.834  51.296  49.054  1.00  0.00     0.037 A 
HETATM   22  C   UNL     1      21.024  51.294  47.919  1.00  0.00     0.015 A 
HETATM   23  C   UNL     1      18.861  50.852  46.864  1.00  0.00     0.029 A 
BRANCH  20  24
HETATM   24  O   UNL     1      22.150  50.881  51.352  1.00  0.00    -0.361 OA
HETATM   25  H   UNL     1      21.606  50.920  52.158  1.00  0.00     0.217 HD
ENDBRANCH  20  24
ENDBRANCH  12  14
ENDBRANCH   5   7
BRANCH   1  26
HETATM   26  C   UNL     1      21.202  46.545  48.333  1.00  0.00     0.257 C 
HETATM   27  N   UNL     1      21.812  45.318  48.182  1.00  0.00    -0.301 N 
HETATM   28  H   UNL     1      21.451  44.621  47.548  1.00  0.00     0.171 HD
HETATM   29  O   UNL     1      21.649  47.508  48.947  1.00  0.00    -0.267 OA
BRANCH  27  30
HETATM   30  C   UNL     1      22.960  45.002  48.856  1.00  0.00     0.174 A 
HETATM   31  N   UNL     1      24.139  45.572  48.805  1.00  0.00    -0.228 NA
HETATM   32  C   UNL     1      24.992  44.948  49.675  1.00  0.00     0.050 A 
HETATM   33  C   UNL     1      26.406  45.395  49.812  1.00  0.00     0.062 C 
HETATM   34  C   UNL     1      24.433  43.930  50.419  1.00  0.00     0.013 A 
HETATM   35  C   UNL     1      27.246  44.340  50.557  1.00  0.00     0.039 C 
HETATM   36  C   UNL     1      26.496  43.816  51.802  1.00  0.00     0.192 C 
HETATM   37  C   UNL     1      25.154  43.115  51.436  1.00  0.00     0.081 C 
HETATM   38  S   UNL     1      22.804  43.707  49.969  1.00  0.00    -0.055 SA
BRANCH  36  39
HETATM   39  N   UNL     1      27.376  42.895  52.656  1.00  0.00    -0.074 N 
HETATM   40  C   UNL     1      28.747  42.595  52.104  1.00  0.00     0.269 C 
HETATM   41  H   UNL     1      26.885  41.990  52.695  1.00  0.00     0.279 HD
HETATM   42  C   UNL     1      27.467  43.347  54.095  1.00  0.00     0.269 C 
ENDBRANCH  36  39
ENDBRANCH  27  30
ENDBRANCH   1  26
TORSDOF 6
ENDMDL
MODEL 8
REMARK VINA RESULT:      -8.6     21.698     25.258
REMARK  6 active torsions:
REMARK  status: ('A' for Active; 'I' for Inactive)
REMARK    1  A    between atoms: N_2  and  C_5 
REMARK    2  A    between atoms: C_10  and  N_11 
REMARK       I    between atoms: N_11  and  C_12 
REMARK    3  A    between atoms: C_12  and  C_14 
REMARK    4  A    between atoms: C_18  and  C_20 
REMARK       I    between atoms: N_24  and  C_25 
REMARK    5  A    between atoms: C_25  and  C_27 
REMARK    6  A    between atoms: C_32  and  O_33 
ROOT
HETATM    1  C   UNL     1      41.865  43.790  65.322  1.00  0.00     0.033 A 
HETATM    2  C   UNL     1      42.496  44.750  64.522  1.00  0.00     0.017 A 
HETATM    3  C   UNL     1      41.935  46.017  64.364  1.00  0.00     0.002 A 
HETATM    4  C   UNL     1      40.739  46.335  65.006  1.00  0.00     0.009 A 
HETATM    5  C   UNL     1      40.087  45.390  65.815  1.00  0.00    -0.034 A 
HETATM    6  C   UNL     1      40.674  44.122  65.983  1.00  0.00     0.026 A 
ENDROOT
BRANCH   5   7
HETATM    7  C   UNL     1      38.770  45.706  66.493  1.00  0.00     0.120 C 
HETATM    8  C   UNL     1      38.934  46.792  67.571  1.00  0.00     0.032 C 
HETATM    9  C   UNL     1      37.558  47.442  67.620  1.00  0.00     0.022 C 
HETATM   10  C   UNL     1      37.133  47.442  66.160  1.00  0.00     0.127 C 
HETATM   11  N   UNL     1      37.725  46.235  65.608  1.00  0.00    -0.339 N 
HETATM   12  C   UNL     1      37.181  45.663  64.471  1.00  0.00     0.254 C 
HETATM   13  O   UNL     1      36.268  46.165  63.824  1.00  0.00    -0.267 OA
BRANCH  12  14
HETATM   14  C   UNL     1      37.752  44.393  63.987  1.00  0.00     0.033 A 
HETATM   15  C   UNL     1      38.541  44.413  62.838  1.00  0.00     0.018 A 
HETATM   16  C   UNL     1      39.161  43.240  62.411  1.00  0.00     0.013 A 
HETATM   17  C   UNL     1      38.977  42.038  63.113  1.00  0.00    -0.023 A 
HETATM   18  C   UNL     1      39.616  40.857  62.703  1.00  0.00     0.048 A 
HETATM   19  C   UNL     1      38.128  42.014  64.249  1.00  0.00    -0.025 A 
HETATM   20  C   UNL     1      39.404  39.673  63.401  1.00  0.00     0.066 A 
HETATM   21  C   UNL     1      38.557  39.635  64.500  1.00  0.00     0.037 A 
HETATM   22  C   UNL     1      37.922  40.801  64.926  1.00  0.00     0.015 A 
HETATM   23  C   UNL     1      37.515  43.201  64.677  1.00  0.00     0.029 A 
BRANCH  20  24
HETATM   24  O   UNL     1      40.018  38.511  63.032  1.00  0.00    -0.361 OA
HETATM   25  H   UNL     1      39.637  38.221  62.184  1.00  0.00     0.217 HD
ENDBRANCH  20  24
ENDBRANCH  12  14
ENDBRANCH   5   7
BRANCH   1  26
HETATM   26  C   UNL     1      42.528  42.459  65.480  1.00  0.00     0.257 C 
HETATM   27  N   UNL     1      41.704  41.360  65.354  1.00  0.00    -0.301 N 
HETATM   28  H   UNL     1      40.751  41.447  65.036  1.00  0.00     0.171 HD
HETATM   29  O   UNL     1      43.734  42.442  65.699  1.00  0.00    -0.267 OA
BRANCH  27  30
HETATM   30  C   UNL     1      42.155  40.096  65.617  1.00  0.00     0.174 A 
HETATM   31  N   UNL     1      42.646  39.200  64.797  1.00  0.00    -0.228 NA
HETATM   32  C   UNL     1      43.002  38.078  65.496  1.00  0.00     0.050 A 
HETATM   33  C   UNL     1      43.585  36.896  64.802  1.00  0.00     0.062 C 
HETATM   34  C   UNL     1      42.817  38.153  66.861  1.00  0.00     0.013 A 
HETATM   35  C   UNL     1      43.564  35.657  65.717  1.00  0.00     0.039 C 
HETATM   36  C   UNL     1      44.049  36.012  67.139  1.00  0.00     0.192 C 
HETATM   37  C   UNL     1      43.140  37.070  67.832  1.00  0.00     0.081 C 
HETATM   38  S   UNL     1      42.118  39.653  67.273  1.00  0.00    -0.055 SA
BRANCH  36  39
HETATM   39  N   UNL     1      44.203  34.766  68.021  1.00  0.00    -0.074 N 
HETATM   40  C   UNL     1      43.198  34.618  69.135  1.00  0.00     0.269 C 
HETATM   41  H   UNL     1      45.121  34.855  68.480  1.00  0.00     0.279 HD
HETATM   42  C   UNL     1      44.298  33.491  67.214  1.00  0.00     0.269 C 
ENDBRANCH  36  39
ENDBRANCH  27  30
ENDBRANCH   1  26
TORSDOF 6
ENDMDL
MODEL 9
REMARK VINA RESULT:      -8.6     14.908     19.244
REMARK  6 active torsions:
REMARK  status: ('A' for Active; 'I' for Inactive)
REMARK    1  A    between atoms: N_2  and  C_5 
REMARK    2  A    between atoms: C_10  and  N_11 
REMARK       I    between atoms: N_11  and  C_12 
REMARK    3  A    between atoms: C_12  and  C_14 
REMARK    4  A    between atoms: C_18  and  C_20 
REMARK       I    between atoms: N_24  and  C_25 
REMARK    5  A    between atoms: C_25  and  C_27 
REMARK    6  A    between atoms: C_32  and  O_33 
ROOT
HETATM    1  C   UNL     1      37.888  50.968  42.505  1.00  0.00     0.033 A 
HETATM    2  C   UNL     1      38.799  51.184  41.463  1.00  0.00     0.017 A 
HETATM    3  C   UNL     1      40.079  50.635  41.519  1.00  0.00     0.002 A 
HETATM    4  C   UNL     1      40.459  49.864  42.617  1.00  0.00     0.009 A 
HETATM    5  C   UNL     1      39.565  49.631  43.673  1.00  0.00    -0.034 A 
HETATM    6  C   UNL     1      38.268  50.173  43.595  1.00  0.00     0.026 A 
ENDROOT
BRANCH   5   7
HETATM    7  C   UNL     1      39.971  48.823  44.889  1.00  0.00     0.120 C 
HETATM    8  C   UNL     1      39.724  47.320  44.679  1.00  0.00     0.032 C 
HETATM    9  C   UNL     1      40.757  46.668  45.588  1.00  0.00     0.022 C 
HETATM   10  C   UNL     1      41.962  47.583  45.438  1.00  0.00     0.127 C 
HETATM   11  N   UNL     1      41.393  48.907  45.245  1.00  0.00    -0.339 N 
HETATM   12  C   UNL     1      42.147  50.028  45.543  1.00  0.00     0.254 C 
HETATM   13  O   UNL     1      43.326  49.988  45.882  1.00  0.00    -0.267 OA
BRANCH  12  14
HETATM   14  C   UNL     1      41.511  51.351  45.416  1.00  0.00     0.033 A 
HETATM   15  C   UNL     1      41.964  52.216  44.420  1.00  0.00     0.018 A 
HETATM   16  C   UNL     1      41.321  53.436  44.226  1.00  0.00     0.013 A 
HETATM   17  C   UNL     1      40.241  53.812  45.040  1.00  0.00    -0.023 A 
HETATM   18  C   UNL     1      39.572  55.029  44.836  1.00  0.00     0.048 A 
HETATM   19  C   UNL     1      39.821  52.952  46.087  1.00  0.00    -0.025 A 
HETATM   20  C   UNL     1      38.516  55.392  45.667  1.00  0.00     0.066 A 
HETATM   21  C   UNL     1      38.114  54.567  46.709  1.00  0.00     0.037 A 
HETATM   22  C   UNL     1      38.761  53.350  46.918  1.00  0.00     0.015 A 
HETATM   23  C   UNL     1      40.469  51.722  46.270  1.00  0.00     0.029 A 
BRANCH  20  24
HETATM   24  O   UNL     1      37.843  56.565  45.488  1.00  0.00    -0.361 OA
HETATM   25  H   UNL     1      37.457  56.828  46.342  1.00  0.00     0.217 HD
ENDBRANCH  20  24
ENDBRANCH  12  14
ENDBRANCH   5   7
BRANCH   1  26
HETATM   26  C   UNL     1      36.519  51.556  42.377  1.00  0.00     0.257 C 
HETATM   27  N   UNL     1      35.475  50.655  42.397  1.00  0.00    -0.301 N 
HETATM   28  H   UNL     1      35.619  49.684  42.625  1.00  0.00     0.171 HD
HETATM   29  O   UNL     1      36.426  52.775  42.273  1.00  0.00    -0.267 OA
BRANCH  27  30
HETATM   30  C   UNL     1      34.189  51.047  42.146  1.00  0.00     0.174 A 
HETATM   31  N   UNL     1      33.345  51.681  42.922  1.00  0.00    -0.228 NA
HETATM   32  C   UNL     1      32.172  51.898  42.251  1.00  0.00     0.050 A 
HETATM   33  C   UNL     1      31.033  52.599  42.907  1.00  0.00     0.062 C 
HETATM   34  C   UNL     1      32.154  51.462  40.943  1.00  0.00     0.013 A 
HETATM   35  C   UNL     1      29.733  52.405  42.104  1.00  0.00     0.039 C 
HETATM   36  C   UNL     1      29.981  52.617  40.594  1.00  0.00     0.192 C 
HETATM   37  C   UNL     1      31.001  51.596  40.009  1.00  0.00     0.081 C 
HETATM   38  S   UNL     1      33.632  50.701  40.562  1.00  0.00    -0.055 SA
BRANCH  36  39
HETATM   39  N   UNL     1      28.674  52.601  39.791  1.00  0.00    -0.074 N 
HETATM   40  C   UNL     1      28.809  52.825  38.306  1.00  0.00     0.269 C 
HETATM   41  H   UNL     1      28.115  53.391  40.145  1.00  0.00     0.279 HD
HETATM   42  C   UNL     1      27.833  51.378  40.073  1.00  0.00     0.269 C 
ENDBRANCH  36  39
ENDBRANCH  27  30
ENDBRANCH   1  26
TORSDOF 6
ENDMDL
MODEL 10
REMARK VINA RESULT:      -8.6     21.380     24.026
REMARK  6 active torsions:
REMARK  status: ('A' for Active; 'I' for Inactive)
REMARK    1  A    between atoms: N_2  and  C_5 
REMARK    2  A    between atoms: C_10  and  N_11 
REMARK       I    between atoms: N_11  and  C_12 
REMARK    3  A    between atoms: C_12  and  C_14 
REMARK    4  A    between atoms: C_18  and  C_20 
REMARK       I    between atoms: N_24  and  C_25 
REMARK    5  A    between atoms: C_25  and  C_27 
REMARK    6  A    between atoms: C_32  and  O_33 
ROOT
HETATM    1  C   UNL     1      39.931  47.179  65.345  1.00  0.00     0.033 A 
HETATM    2  C   UNL     1      40.028  48.286  64.493  1.00  0.00     0.017 A 
HETATM    3  C   UNL     1      39.863  49.578  64.991  1.00  0.00     0.002 A 
HETATM    4  C   UNL     1      39.599  49.774  66.345  1.00  0.00     0.009 A 
HETATM    5  C   UNL     1      39.498  48.682  67.222  1.00  0.00    -0.034 A 
HETATM    6  C   UNL     1      39.689  47.384  66.712  1.00  0.00     0.026 A 
ENDROOT
BRANCH   5   7
HETATM    7  C   UNL     1      39.180  48.874  68.690  1.00  0.00     0.120 C 
HETATM    8  C   UNL     1      40.309  49.619  69.422  1.00  0.00     0.032 C 
HETATM    9  C   UNL     1      39.584  50.305  70.572  1.00  0.00     0.022 C 
HETATM   10  C   UNL     1      38.266  50.722  69.938  1.00  0.00     0.127 C 
HETATM   11  N   UNL     1      37.982  49.677  68.968  1.00  0.00    -0.339 N 
HETATM   12  C   UNL     1      36.680  49.462  68.552  1.00  0.00     0.254 C 
HETATM   13  O   UNL     1      35.732  50.168  68.883  1.00  0.00    -0.267 OA
BRANCH  12  14
HETATM   14  C   UNL     1      36.415  48.341  67.633  1.00  0.00     0.033 A 
HETATM   15  C   UNL     1      36.332  48.605  66.267  1.00  0.00     0.018 A 
HETATM   16  C   UNL     1      36.169  47.549  65.372  1.00  0.00     0.013 A 
HETATM   17  C   UNL     1      36.063  46.229  65.837  1.00  0.00    -0.023 A 
HETATM   18  C   UNL     1      35.922  45.157  64.942  1.00  0.00     0.048 A 
HETATM   19  C   UNL     1      36.093  45.974  67.232  1.00  0.00    -0.025 A 
HETATM   20  C   UNL     1      35.798  43.858  65.425  1.00  0.00     0.066 A 
HETATM   21  C   UNL     1      35.803  43.602  66.790  1.00  0.00     0.037 A 
HETATM   22  C   UNL     1      35.953  44.654  67.692  1.00  0.00     0.015 A 
HETATM   23  C   UNL     1      36.266  47.042  68.125  1.00  0.00     0.029 A 
BRANCH  20  24
HETATM   24  O   UNL     1      35.668  42.795  64.579  1.00  0.00    -0.361 OA
HETATM   25  H   UNL     1      35.333  43.123  63.727  1.00  0.00     0.217 HD
ENDBRANCH  20  24
ENDBRANCH  12  14
ENDBRANCH   5   7
BRANCH   1  26
HETATM   26  C   UNL     1      40.148  45.820  64.763  1.00  0.00     0.257 C 
HETATM   27  N   UNL     1      39.398  44.803  65.315  1.00  0.00    -0.301 N 
HETATM   28  H   UNL     1      38.652  44.991  65.967  1.00  0.00     0.171 HD
HETATM   29  O   UNL     1      40.958  45.711  63.849  1.00  0.00    -0.267 OA
BRANCH  27  30
HETATM   30  C   UNL     1      39.604  43.495  64.973  1.00  0.00     0.174 A 
HETATM   31  N   UNL     1      39.251  42.853  63.886  1.00  0.00    -0.228 NA
HETATM   32  C   UNL     1      39.693  41.559  63.949  1.00  0.00     0.050 A 
HETATM   33  C   UNL     1      39.420  40.603  62.841  1.00  0.00     0.062 C 
HETATM   34  C   UNL     1      40.423  41.242  65.075  1.00  0.00     0.013 A 
HETATM   35  C   UNL     1      39.686  39.153  63.288  1.00  0.00     0.039 C 
HETATM   36  C   UNL     1      41.019  39.051  64.063  1.00  0.00     0.192 C 
HETATM   37  C   UNL     1      41.018  39.907  65.364  1.00  0.00     0.081 C 
HETATM   38  S   UNL     1      40.507  42.590  66.115  1.00  0.00    -0.055 SA
BRANCH  36  39
HETATM   39  N   UNL     1      41.394  37.595  64.369  1.00  0.00    -0.074 N 
HETATM   40  C   UNL     1      42.870  37.298  64.455  1.00  0.00     0.269 C 
HETATM   41  H   UNL     1      41.041  37.039  63.577  1.00  0.00     0.279 HD
HETATM   42  C   UNL     1      40.668  37.049  65.577  1.00  0.00     0.269 C 
ENDBRANCH  36  39
ENDBRANCH  27  30
ENDBRANCH   1  26
TORSDOF 6
ENDMDL
