MODEL 1
REMARK VINA RESULT:      -9.3      0.000      0.000
REMARK  6 active torsions:
REMARK  status: ('A' for Active; 'I' for Inactive)
REMARK    1  A    between atoms: C_2  and  N_3 
REMARK    2  A    between atoms: C_2  and  C_25 
REMARK       I    between atoms: N_3  and  C_4 
REMARK    3  A    between atoms: C_4  and  C_5 
REMARK    4  A    between atoms: C_5  and  N_6 
REMARK    5  A    between atoms: C_10  and  N_11 
REMARK       I    between atoms: N_11  and  C_12 
REMARK       I    between atoms: C_12  and  N_13 
REMARK    6  A    between atoms: N_13  and  C_14 
ROOT
HETATM    1  N   UNL     1      26.006  45.724  52.289  1.00  0.00    -0.063 N 
HETATM    2  H   UNL     1      26.969  45.534  51.989  1.00  0.00     0.280 HD
HETATM    3  C   UNL     1      25.096  44.853  51.445  1.00  0.00     0.237 C 
HETATM    4  C   UNL     1      25.361  45.172  49.982  1.00  0.00     0.053 C 
HETATM    5  C   UNL     1      25.090  46.649  49.662  1.00  0.00     0.089 C 
HETATM    6  C   UNL     1      25.975  47.517  50.570  1.00  0.00     0.053 C 
HETATM    7  C   UNL     1      25.748  47.194  52.046  1.00  0.00     0.237 C 
ENDROOT
BRANCH   1   8
HETATM    8  C   UNL     1      25.968  45.339  53.773  1.00  0.00     0.337 C 
BRANCH   8   9
HETATM    9  C   UNL     1      26.882  44.183  54.198  1.00  0.00     0.244 C 
HETATM   10  N   UNL     1      28.214  44.381  53.928  1.00  0.00    -0.351 N 
HETATM   11  H   UNL     1      28.542  45.198  53.425  1.00  0.00     0.163 HD
HETATM   12  O   UNL     1      26.449  43.172  54.744  1.00  0.00    -0.272 OA
BRANCH  10  13
HETATM   13  C   UNL     1      29.227  43.373  54.217  1.00  0.00     0.120 C 
HETATM   14  C   UNL     1      30.138  43.135  53.014  1.00  0.00     0.038 C 
BRANCH  13  15
HETATM   15  C   UNL     1      30.012  43.810  55.430  1.00  0.00     0.005 A 
HETATM   16  S   UNL     1      29.750  45.341  56.172  1.00  0.00    -0.104 SA
HETATM   17  C   UNL     1      30.948  45.051  57.354  1.00  0.00     0.050 A 
HETATM   18  C   UNL     1      31.548  43.823  57.191  1.00  0.00     0.008 A 
HETATM   19  C   UNL     1      31.009  43.108  56.082  1.00  0.00     0.017 A 
ENDBRANCH  13  15
ENDBRANCH  10  13
ENDBRANCH   8   9
ENDBRANCH   1   8
BRANCH   5  20
HETATM   20  N   UNL     1      23.704  47.125  49.757  1.00  0.00    -0.338 N 
HETATM   21  C   UNL     1      23.169  48.182  49.042  1.00  0.00     0.321 C 
HETATM   22  N   UNL     1      21.903  48.485  49.493  1.00  0.00    -0.309 N 
HETATM   23  O   UNL     1      23.756  48.710  48.110  1.00  0.00    -0.247 OA
HETATM   24  H   UNL     1      21.460  47.796  50.083  1.00  0.00     0.170 HD
HETATM   25  H   UNL     1      23.319  47.080  50.694  1.00  0.00     0.164 HD
BRANCH  22  26
HETATM   26  C   UNL     1      21.086  49.559  49.085  1.00  0.00     0.036 A 
HETATM   27  C   UNL     1      20.603  49.718  47.782  1.00  0.00     0.032 A 
HETATM   28  C   UNL     1      19.807  50.820  47.452  1.00  0.00     0.044 A 
HETATM   29  C   UNL     1      19.499  51.763  48.424  1.00  0.00     0.116 A 
HETATM   30  F   UNL     1      18.737  52.817  48.106  1.00  0.00    -0.206 F 
HETATM   31  C   UNL     1      19.974  51.628  49.720  1.00  0.00     0.044 A 
HETATM   32  C   UNL     1      20.769  50.526  50.051  1.00  0.00     0.032 A 
ENDBRANCH  22  26
ENDBRANCH   5  20
TORSDOF 6
ENDMDL
MODEL 2
REMARK VINA RESULT:      -9.2      4.422     10.824
REMARK  6 active torsions:
REMARK  status: ('A' for Active; 'I' for Inactive)
REMARK    1  A    between atoms: C_2  and  N_3 
REMARK    2  A    between atoms: C_2  and  C_25 
REMARK       I    between atoms: N_3  and  C_4 
REMARK    3  A    between atoms: C_4  and  C_5 
REMARK    4  A    between atoms: C_5  and  N_6 
REMARK    5  A    between atoms: C_10  and  N_11 
REMARK       I    between atoms: N_11  and  C_12 
REMARK       I    between atoms: C_12  and  N_13 
REMARK    6  A    between atoms: N_13  and  C_14 
ROOT
HETATM    1  N   UNL     1      24.915  46.418  50.495  1.00  0.00    -0.063 N 
HETATM    2  H   UNL     1      23.966  46.072  50.314  1.00  0.00     0.280 HD
HETATM    3  C   UNL     1      25.872  45.503  49.757  1.00  0.00     0.237 C 
HETATM    4  C   UNL     1      25.632  44.081  50.238  1.00  0.00     0.053 C 
HETATM    5  C   UNL     1      25.862  43.943  51.750  1.00  0.00     0.089 C 
HETATM    6  C   UNL     1      24.929  44.922  52.478  1.00  0.00     0.053 C 
HETATM    7  C   UNL     1      25.131  46.355  51.991  1.00  0.00     0.237 C 
ENDROOT
BRANCH   1   8
HETATM    8  C   UNL     1      24.931  47.848  49.940  1.00  0.00     0.337 C 
BRANCH   8   9
HETATM    9  C   UNL     1      23.778  48.224  49.002  1.00  0.00     0.244 C 
HETATM   10  N   UNL     1      22.555  47.717  49.371  1.00  0.00    -0.351 N 
HETATM   11  H   UNL     1      22.453  47.090  50.160  1.00  0.00     0.163 HD
HETATM   12  O   UNL     1      23.942  48.931  48.012  1.00  0.00    -0.272 OA
BRANCH  10  13
HETATM   13  C   UNL     1      21.351  47.929  48.576  1.00  0.00     0.120 C 
HETATM   14  C   UNL     1      20.520  46.652  48.470  1.00  0.00     0.038 C 
BRANCH  13  15
HETATM   15  C   UNL     1      20.559  49.057  49.191  1.00  0.00     0.005 A 
HETATM   16  S   UNL     1      19.081  48.774  50.026  1.00  0.00    -0.104 SA
HETATM   17  C   UNL     1      18.869  50.436  50.358  1.00  0.00     0.050 A 
HETATM   18  C   UNL     1      19.890  51.200  49.841  1.00  0.00     0.008 A 
HETATM   19  C   UNL     1      20.864  50.406  49.168  1.00  0.00     0.017 A 
ENDBRANCH  13  15
ENDBRANCH  10  13
ENDBRANCH   8   9
ENDBRANCH   1   8
BRANCH   5  20
HETATM   20  N   UNL     1      27.229  44.131  52.251  1.00  0.00    -0.338 N 
HETATM   21  C   UNL     1      27.650  43.873  53.544  1.00  0.00     0.321 C 
HETATM   22  N   UNL     1      28.938  44.323  53.736  1.00  0.00    -0.309 N 
HETATM   23  O   UNL     1      26.958  43.278  54.356  1.00  0.00    -0.247 OA
HETATM   24  H   UNL     1      29.463  44.551  52.905  1.00  0.00     0.170 HD
HETATM   25  H   UNL     1      27.701  44.940  51.864  1.00  0.00     0.164 HD
BRANCH  22  26
HETATM   26  C   UNL     1      29.667  44.333  54.943  1.00  0.00     0.036 A 
HETATM   27  C   UNL     1      30.551  43.319  55.328  1.00  0.00     0.032 A 
HETATM   28  C   UNL     1      31.228  43.396  56.549  1.00  0.00     0.044 A 
HETATM   29  C   UNL     1      31.018  44.485  57.386  1.00  0.00     0.116 A 
HETATM   30  F   UNL     1      31.667  44.557  58.555  1.00  0.00    -0.206 F 
HETATM   31  C   UNL     1      30.139  45.497  57.027  1.00  0.00     0.044 A 
HETATM   32  C   UNL     1      29.462  45.421  55.806  1.00  0.00     0.032 A 
ENDBRANCH  22  26
ENDBRANCH   5  20
TORSDOF 6
ENDMDL
MODEL 3
REMARK VINA RESULT:      -9.1      1.316      1.912
REMARK  6 active torsions:
REMARK  status: ('A' for Active; 'I' for Inactive)
REMARK    1  A    between atoms: C_2  and  N_3 
REMARK    2  A    between atoms: C_2  and  C_25 
REMARK       I    between atoms: N_3  and  C_4 
REMARK    3  A    between atoms: C_4  and  C_5 
REMARK    4  A    between atoms: C_5  and  N_6 
REMARK    5  A    between atoms: C_10  and  N_11 
REMARK       I    between atoms: N_11  and  C_12 
REMARK       I    between atoms: C_12  and  N_13 
REMARK    6  A    between atoms: N_13  and  C_14 
ROOT
HETATM    1  N   UNL     1      26.321  44.843  51.224  1.00  0.00    -0.063 N 
HETATM    2  H   UNL     1      27.268  45.062  51.552  1.00  0.00     0.280 HD
HETATM    3  C   UNL     1      26.227  45.307  49.784  1.00  0.00     0.237 C 
HETATM    4  C   UNL     1      26.567  46.788  49.742  1.00  0.00     0.053 C 
HETATM    5  C   UNL     1      25.607  47.619  50.606  1.00  0.00     0.089 C 
HETATM    6  C   UNL     1      25.668  47.094  52.048  1.00  0.00     0.053 C 
HETATM    7  C   UNL     1      25.358  45.599  52.113  1.00  0.00     0.237 C 
ENDROOT
BRANCH   1   8
HETATM    8  C   UNL     1      26.197  43.320  51.355  1.00  0.00     0.337 C 
BRANCH   8   9
HETATM    9  C   UNL     1      27.222  42.631  52.264  1.00  0.00     0.244 C 
HETATM   10  N   UNL     1      27.999  43.492  53.000  1.00  0.00    -0.351 N 
HETATM   11  H   UNL     1      27.937  44.497  52.888  1.00  0.00     0.163 HD
HETATM   12  O   UNL     1      27.323  41.409  52.329  1.00  0.00    -0.272 OA
BRANCH  10  13
HETATM   13  C   UNL     1      29.060  43.023  53.884  1.00  0.00     0.120 C 
HETATM   14  C   UNL     1      30.314  42.645  53.099  1.00  0.00     0.038 C 
BRANCH  13  15
HETATM   15  C   UNL     1      29.347  44.096  54.906  1.00  0.00     0.005 A 
HETATM   16  S   UNL     1      30.764  44.060  55.881  1.00  0.00    -0.104 SA
HETATM   17  C   UNL     1      30.330  45.502  56.688  1.00  0.00     0.050 A 
HETATM   18  C   UNL     1      29.129  46.003  56.239  1.00  0.00     0.008 A 
HETATM   19  C   UNL     1      28.562  45.193  55.213  1.00  0.00     0.017 A 
ENDBRANCH  13  15
ENDBRANCH  10  13
ENDBRANCH   8   9
ENDBRANCH   1   8
BRANCH   5  20
HETATM   20  N   UNL     1      24.201  47.690  50.187  1.00  0.00    -0.338 N 
HETATM   21  C   UNL     1      23.604  48.773  49.567  1.00  0.00     0.321 C 
HETATM   22  N   UNL     1      22.242  48.590  49.472  1.00  0.00    -0.309 N 
HETATM   23  O   UNL     1      24.244  49.718  49.132  1.00  0.00    -0.247 OA
HETATM   24  H   UNL     1      21.901  47.655  49.636  1.00  0.00     0.170 HD
HETATM   25  H   UNL     1      23.560  47.229  50.823  1.00  0.00     0.164 HD
BRANCH  22  26
HETATM   26  C   UNL     1      21.287  49.515  48.999  1.00  0.00     0.036 A 
HETATM   27  C   UNL     1      20.899  50.661  49.700  1.00  0.00     0.032 A 
HETATM   28  C   UNL     1      19.935  51.523  49.168  1.00  0.00     0.044 A 
HETATM   29  C   UNL     1      19.357  51.236  47.938  1.00  0.00     0.116 A 
HETATM   30  F   UNL     1      18.434  52.062  47.430  1.00  0.00    -0.206 F 
HETATM   31  C   UNL     1      19.722  50.099  47.230  1.00  0.00     0.044 A 
HETATM   32  C   UNL     1      20.686  49.238  47.761  1.00  0.00     0.032 A 
ENDBRANCH  22  26
ENDBRANCH   5  20
TORSDOF 6
ENDMDL
MODEL 4
REMARK VINA RESULT:      -8.6      4.580     10.480
REMARK  6 active torsions:
REMARK  status: ('A' for Active; 'I' for Inactive)
REMARK    1  A    between atoms: C_2  and  N_3 
REMARK    2  A    between atoms: C_2  and  C_25 
REMARK       I    between atoms: N_3  and  C_4 
REMARK    3  A    between atoms: C_4  and  C_5 
REMARK    4  A    between atoms: C_5  and  N_6 
REMARK    5  A    between atoms: C_10  and  N_11 
REMARK       I    between atoms: N_11  and  C_12 
REMARK       I    between atoms: C_12  and  N_13 
REMARK    6  A    between atoms: N_13  and  C_14 
ROOT
HETATM    1  N   UNL     1      24.377  43.604  49.961  1.00  0.00    -0.063 N 
HETATM    2  H   UNL     1      24.458  43.075  49.085  1.00  0.00     0.280 HD
HETATM    3  C   UNL     1      25.315  44.791  49.855  1.00  0.00     0.237 C 
HETATM    4  C   UNL     1      26.714  44.264  49.583  1.00  0.00     0.053 C 
HETATM    5  C   UNL     1      27.201  43.330  50.701  1.00  0.00     0.089 C 
HETATM    6  C   UNL     1      26.205  42.168  50.835  1.00  0.00     0.053 C 
HETATM    7  C   UNL     1      24.784  42.674  51.081  1.00  0.00     0.237 C 
ENDROOT
BRANCH   1   8
HETATM    8  C   UNL     1      22.905  44.030  50.032  1.00  0.00     0.337 C 
BRANCH   8   9
HETATM    9  C   UNL     1      22.390  44.891  48.872  1.00  0.00     0.244 C 
HETATM   10  N   UNL     1      22.245  46.224  49.172  1.00  0.00    -0.351 N 
HETATM   11  H   UNL     1      22.401  46.581  50.108  1.00  0.00     0.163 HD
HETATM   12  O   UNL     1      22.142  44.420  47.766  1.00  0.00    -0.272 OA
BRANCH  10  13
HETATM   13  C   UNL     1      21.723  47.188  48.211  1.00  0.00     0.120 C 
HETATM   14  C   UNL     1      20.251  47.499  48.475  1.00  0.00     0.038 C 
BRANCH  13  15
HETATM   15  C   UNL     1      22.573  48.435  48.267  1.00  0.00     0.005 A 
HETATM   16  S   UNL     1      24.105  48.449  49.049  1.00  0.00    -0.104 SA
HETATM   17  C   UNL     1      24.354  50.099  48.685  1.00  0.00     0.050 A 
HETATM   18  C   UNL     1      23.295  50.640  47.991  1.00  0.00     0.008 A 
HETATM   19  C   UNL     1      22.268  49.681  47.751  1.00  0.00     0.017 A 
ENDBRANCH  13  15
ENDBRANCH  10  13
ENDBRANCH   8   9
ENDBRANCH   1   8
BRANCH   5  20
HETATM   20  N   UNL     1      27.426  43.916  52.028  1.00  0.00    -0.338 N 
HETATM   21  C   UNL     1      28.602  43.828  52.753  1.00  0.00     0.321 C 
HETATM   22  N   UNL     1      28.428  44.324  54.026  1.00  0.00    -0.309 N 
HETATM   23  O   UNL     1      29.643  43.408  52.271  1.00  0.00    -0.247 OA
HETATM   24  H   UNL     1      27.594  44.870  54.186  1.00  0.00     0.170 HD
HETATM   25  H   UNL     1      26.615  43.881  52.635  1.00  0.00     0.164 HD
BRANCH  22  26
HETATM   26  C   UNL     1      29.362  44.309  55.083  1.00  0.00     0.036 A 
HETATM   27  C   UNL     1      30.254  43.258  55.319  1.00  0.00     0.032 A 
HETATM   28  C   UNL     1      31.142  43.313  56.398  1.00  0.00     0.044 A 
HETATM   29  C   UNL     1      31.133  44.415  57.243  1.00  0.00     0.116 A 
HETATM   30  F   UNL     1      31.984  44.466  58.275  1.00  0.00    -0.206 F 
HETATM   31  C   UNL     1      30.250  45.464  57.031  1.00  0.00     0.044 A 
HETATM   32  C   UNL     1      29.362  45.411  55.952  1.00  0.00     0.032 A 
ENDBRANCH  22  26
ENDBRANCH   5  20
TORSDOF 6
ENDMDL
MODEL 5
REMARK VINA RESULT:      -8.5      4.605     10.676
REMARK  6 active torsions:
REMARK  status: ('A' for Active; 'I' for Inactive)
REMARK    1  A    between atoms: C_2  and  N_3 
REMARK    2  A    between atoms: C_2  and  C_25 
REMARK       I    between atoms: N_3  and  C_4 
REMARK    3  A    between atoms: C_4  and  C_5 
REMARK    4  A    between atoms: C_5  and  N_6 
REMARK    5  A    between atoms: C_10  and  N_11 
REMARK       I    between atoms: N_11  and  C_12 
REMARK       I    between atoms: C_12  and  N_13 
REMARK    6  A    between atoms: N_13  and  C_14 
ROOT
HETATM    1  N   UNL     1      24.679  44.789  49.665  1.00  0.00    -0.063 N 
HETATM    2  H   UNL     1      24.629  44.116  48.892  1.00  0.00     0.280 HD
HETATM    3  C   UNL     1      26.039  45.455  49.589  1.00  0.00     0.237 C 
HETATM    4  C   UNL     1      27.101  44.369  49.649  1.00  0.00     0.053 C 
HETATM    5  C   UNL     1      27.008  43.549  50.944  1.00  0.00     0.089 C 
HETATM    6  C   UNL     1      25.603  42.934  51.034  1.00  0.00     0.053 C 
HETATM    7  C   UNL     1      24.517  44.005  50.948  1.00  0.00     0.237 C 
ENDROOT
BRANCH   1   8
HETATM    8  C   UNL     1      23.533  45.776  49.409  1.00  0.00     0.337 C 
BRANCH   8   9
HETATM    9  C   UNL     1      23.806  47.242  49.766  1.00  0.00     0.244 C 
HETATM   10  N   UNL     1      23.184  48.153  48.947  1.00  0.00    -0.351 N 
HETATM   11  H   UNL     1      22.651  47.865  48.135  1.00  0.00     0.163 HD
HETATM   12  O   UNL     1      24.515  47.564  50.715  1.00  0.00    -0.272 OA
BRANCH  10  13
HETATM   13  C   UNL     1      23.365  49.592  49.102  1.00  0.00     0.120 C 
HETATM   14  C   UNL     1      24.314  50.153  48.046  1.00  0.00     0.038 C 
BRANCH  13  15
HETATM   15  C   UNL     1      22.011  50.257  49.042  1.00  0.00     0.005 A 
HETATM   16  S   UNL     1      21.080  50.283  47.595  1.00  0.00    -0.104 SA
HETATM   17  C   UNL     1      19.818  51.160  48.340  1.00  0.00     0.050 A 
HETATM   18  C   UNL     1      20.093  51.440  49.660  1.00  0.00     0.008 A 
HETATM   19  C   UNL     1      21.356  50.921  50.065  1.00  0.00     0.017 A 
ENDBRANCH  13  15
ENDBRANCH  10  13
ENDBRANCH   8   9
ENDBRANCH   1   8
BRANCH   5  20
HETATM   20  N   UNL     1      27.306  44.236  52.208  1.00  0.00    -0.338 N 
HETATM   21  C   UNL     1      28.454  44.063  52.961  1.00  0.00     0.321 C 
HETATM   22  N   UNL     1      28.343  44.711  54.172  1.00  0.00    -0.309 N 
HETATM   23  O   UNL     1      29.429  43.456  52.547  1.00  0.00    -0.247 OA
HETATM   24  H   UNL     1      27.594  45.381  54.257  1.00  0.00     0.170 HD
HETATM   25  H   UNL     1      26.494  44.378  52.798  1.00  0.00     0.164 HD
BRANCH  22  26
HETATM   26  C   UNL     1      29.260  44.679  55.244  1.00  0.00     0.036 A 
HETATM   27  C   UNL     1      30.221  43.678  55.417  1.00  0.00     0.032 A 
HETATM   28  C   UNL     1      31.086  43.710  56.515  1.00  0.00     0.044 A 
HETATM   29  C   UNL     1      30.988  44.742  57.440  1.00  0.00     0.116 A 
HETATM   30  F   UNL     1      31.817  44.771  58.490  1.00  0.00    -0.206 F 
HETATM   31  C   UNL     1      30.036  45.740  57.291  1.00  0.00     0.044 A 
HETATM   32  C   UNL     1      29.171  45.709  56.193  1.00  0.00     0.032 A 
ENDBRANCH  22  26
ENDBRANCH   5  20
TORSDOF 6
ENDMDL
MODEL 6
REMARK VINA RESULT:      -8.4      4.905      9.774
REMARK  6 active torsions:
REMARK  status: ('A' for Active; 'I' for Inactive)
REMARK    1  A    between atoms: C_2  and  N_3 
REMARK    2  A    between atoms: C_2  and  C_25 
REMARK       I    between atoms: N_3  and  C_4 
REMARK    3  A    between atoms: C_4  and  C_5 
REMARK    4  A    between atoms: C_5  and  N_6 
REMARK    5  A    between atoms: C_10  and  N_11 
REMARK       I    between atoms: N_11  and  C_12 
REMARK       I    between atoms: C_12  and  N_13 
REMARK    6  A    between atoms: N_13  and  C_14 
ROOT
HETATM    1  N   UNL     1      25.514  42.310  49.347  1.00  0.00    -0.063 N 
HETATM    2  H   UNL     1      25.039  41.436  49.096  1.00  0.00     0.280 HD
HETATM    3  C   UNL     1      26.924  42.227  48.793  1.00  0.00     0.237 C 
HETATM    4  C   UNL     1      27.582  40.982  49.364  1.00  0.00     0.053 C 
HETATM    5  C   UNL     1      27.641  41.019  50.898  1.00  0.00     0.089 C 
HETATM    6  C   UNL     1      26.211  41.167  51.439  1.00  0.00     0.053 C 
HETATM    7  C   UNL     1      25.516  42.397  50.856  1.00  0.00     0.237 C 
ENDROOT
BRANCH   1   8
HETATM    8  C   UNL     1      24.690  43.417  48.677  1.00  0.00     0.337 C 
BRANCH   8   9
HETATM    9  C   UNL     1      24.320  44.616  49.559  1.00  0.00     0.244 C 
HETATM   10  N   UNL     1      25.286  45.591  49.630  1.00  0.00    -0.351 N 
HETATM   11  H   UNL     1      26.191  45.480  49.187  1.00  0.00     0.163 HD
HETATM   12  O   UNL     1      23.242  44.693  50.141  1.00  0.00    -0.272 OA
BRANCH  10  13
HETATM   13  C   UNL     1      25.133  46.782  50.457  1.00  0.00     0.120 C 
HETATM   14  C   UNL     1      25.970  46.688  51.731  1.00  0.00     0.038 C 
BRANCH  13  15
HETATM   15  C   UNL     1      25.505  47.992  49.635  1.00  0.00     0.005 A 
HETATM   16  S   UNL     1      24.312  48.962  48.863  1.00  0.00    -0.104 SA
HETATM   17  C   UNL     1      25.490  50.010  48.205  1.00  0.00     0.050 A 
HETATM   18  C   UNL     1      26.767  49.633  48.551  1.00  0.00     0.008 A 
HETATM   19  C   UNL     1      26.777  48.470  49.375  1.00  0.00     0.017 A 
ENDBRANCH  13  15
ENDBRANCH  10  13
ENDBRANCH   8   9
ENDBRANCH   1   8
BRANCH   5  20
HETATM   20  N   UNL     1      28.491  42.041  51.524  1.00  0.00    -0.338 N 
HETATM   21  C   UNL     1      28.794  42.114  52.872  1.00  0.00     0.321 C 
HETATM   22  N   UNL     1      29.461  43.285  53.158  1.00  0.00    -0.309 N 
HETATM   23  O   UNL     1      28.534  41.214  53.655  1.00  0.00    -0.247 OA
HETATM   24  H   UNL     1      29.831  43.796  52.371  1.00  0.00     0.170 HD
HETATM   25  H   UNL     1      28.389  42.964  51.117  1.00  0.00     0.164 HD
BRANCH  22  26
HETATM   26  C   UNL     1      29.841  43.762  54.430  1.00  0.00     0.036 A 
HETATM   27  C   UNL     1      30.871  43.204  55.195  1.00  0.00     0.032 A 
HETATM   28  C   UNL     1      31.179  43.726  56.455  1.00  0.00     0.044 A 
HETATM   29  C   UNL     1      30.454  44.803  56.951  1.00  0.00     0.116 A 
HETATM   30  F   UNL     1      30.751  45.301  58.157  1.00  0.00    -0.206 F 
HETATM   31  C   UNL     1      29.424  45.365  56.212  1.00  0.00     0.044 A 
HETATM   32  C   UNL     1      29.115  44.844  54.952  1.00  0.00     0.032 A 
ENDBRANCH  22  26
ENDBRANCH   5  20
TORSDOF 6
ENDMDL
MODEL 7
REMARK VINA RESULT:      -8.1      4.768     11.170
REMARK  6 active torsions:
REMARK  status: ('A' for Active; 'I' for Inactive)
REMARK    1  A    between atoms: C_2  and  N_3 
REMARK    2  A    between atoms: C_2  and  C_25 
REMARK       I    between atoms: N_3  and  C_4 
REMARK    3  A    between atoms: C_4  and  C_5 
REMARK    4  A    between atoms: C_5  and  N_6 
REMARK    5  A    between atoms: C_10  and  N_11 
REMARK       I    between atoms: N_11  and  C_12 
REMARK       I    between atoms: C_12  and  N_13 
REMARK    6  A    between atoms: N_13  and  C_14 
ROOT
HETATM    1  N   UNL     1      24.584  45.307  49.694  1.00  0.00    -0.063 N 
HETATM    2  H   UNL     1      24.377  44.659  48.925  1.00  0.00     0.280 HD
HETATM    3  C   UNL     1      26.066  45.621  49.626  1.00  0.00     0.237 C 
HETATM    4  C   UNL     1      26.830  44.309  49.704  1.00  0.00     0.053 C 
HETATM    5  C   UNL     1      26.531  43.550  51.005  1.00  0.00     0.089 C 
HETATM    6  C   UNL     1      25.018  43.297  51.086  1.00  0.00     0.053 C 
HETATM    7  C   UNL     1      24.226  44.599  50.981  1.00  0.00     0.237 C 
ENDROOT
BRANCH   1   8
HETATM    8  C   UNL     1      23.715  46.540  49.418  1.00  0.00     0.337 C 
BRANCH   8   9
HETATM    9  C   UNL     1      22.533  46.338  48.462  1.00  0.00     0.244 C 
HETATM   10  N   UNL     1      21.344  46.864  48.907  1.00  0.00    -0.351 N 
HETATM   11  H   UNL     1      21.256  47.285  49.825  1.00  0.00     0.163 HD
HETATM   12  O   UNL     1      22.653  45.762  47.385  1.00  0.00    -0.272 OA
BRANCH  10  13
HETATM   13  C   UNL     1      20.101  46.728  48.156  1.00  0.00     0.120 C 
HETATM   14  C   UNL     1      19.415  45.395  48.448  1.00  0.00     0.038 C 
BRANCH  13  15
HETATM   15  C   UNL     1      19.207  47.898  48.487  1.00  0.00     0.005 A 
HETATM   16  S   UNL     1      19.819  49.320  49.239  1.00  0.00    -0.104 SA
HETATM   17  C   UNL     1      18.279  50.058  49.257  1.00  0.00     0.050 A 
HETATM   18  C   UNL     1      17.310  49.244  48.714  1.00  0.00     0.008 A 
HETATM   19  C   UNL     1      17.844  48.000  48.270  1.00  0.00     0.017 A 
ENDBRANCH  13  15
ENDBRANCH  10  13
ENDBRANCH   8   9
ENDBRANCH   1   8
BRANCH   5  20
HETATM   20  N   UNL     1      26.978  44.156  52.266  1.00  0.00    -0.338 N 
HETATM   21  C   UNL     1      28.199  43.928  52.875  1.00  0.00     0.321 C 
HETATM   22  N   UNL     1      28.233  44.502  54.127  1.00  0.00    -0.309 N 
HETATM   23  O   UNL     1      29.112  43.338  52.320  1.00  0.00    -0.247 OA
HETATM   24  H   UNL     1      27.508  45.173  54.335  1.00  0.00     0.170 HD
HETATM   25  H   UNL     1      26.239  44.270  52.951  1.00  0.00     0.164 HD
BRANCH  22  26
HETATM   26  C   UNL     1      29.263  44.398  55.086  1.00  0.00     0.036 A 
HETATM   27  C   UNL     1      30.121  43.298  55.191  1.00  0.00     0.032 A 
HETATM   28  C   UNL     1      31.109  43.264  56.179  1.00  0.00     0.044 A 
HETATM   29  C   UNL     1      31.236  44.327  57.065  1.00  0.00     0.116 A 
HETATM   30  F   UNL     1      32.183  44.292  58.010  1.00  0.00    -0.206 F 
HETATM   31  C   UNL     1      30.390  45.423  56.983  1.00  0.00     0.044 A 
HETATM   32  C   UNL     1      29.401  45.458  55.995  1.00  0.00     0.032 A 
ENDBRANCH  22  26
ENDBRANCH   5  20
TORSDOF 6
ENDMDL
MODEL 8
REMARK VINA RESULT:      -8.0      5.430     12.108
REMARK  6 active torsions:
REMARK  status: ('A' for Active; 'I' for Inactive)
REMARK    1  A    between atoms: C_2  and  N_3 
REMARK    2  A    between atoms: C_2  and  C_25 
REMARK       I    between atoms: N_3  and  C_4 
REMARK    3  A    between atoms: C_4  and  C_5 
REMARK    4  A    between atoms: C_5  and  N_6 
REMARK    5  A    between atoms: C_10  and  N_11 
REMARK       I    between atoms: N_11  and  C_12 
REMARK       I    between atoms: C_12  and  N_13 
REMARK    6  A    between atoms: N_13  and  C_14 
ROOT
HETATM    1  N   UNL     1      20.925  50.415  49.056  1.00  0.00    -0.063 N 
HETATM    2  H   UNL     1      20.943  50.824  48.115  1.00  0.00     0.280 HD
HETATM    3  C   UNL     1      22.247  50.757  49.717  1.00  0.00     0.237 C 
HETATM    4  C   UNL     1      23.366  50.227  48.836  1.00  0.00     0.053 C 
HETATM    5  C   UNL     1      23.272  48.706  48.646  1.00  0.00     0.089 C 
HETATM    6  C   UNL     1      21.903  48.372  48.035  1.00  0.00     0.053 C 
HETATM    7  C   UNL     1      20.760  48.921  48.889  1.00  0.00     0.237 C 
ENDROOT
BRANCH   1   8
HETATM    8  C   UNL     1      19.735  51.081  49.757  1.00  0.00     0.337 C 
BRANCH   8   9
HETATM    9  C   UNL     1      18.741  51.820  48.852  1.00  0.00     0.244 C 
HETATM   10  N   UNL     1      17.487  51.259  48.806  1.00  0.00    -0.351 N 
HETATM   11  H   UNL     1      17.274  50.389  49.280  1.00  0.00     0.163 HD
HETATM   12  O   UNL     1      19.047  52.835  48.234  1.00  0.00    -0.272 OA
BRANCH  10  13
HETATM   13  C   UNL     1      16.424  51.794  47.963  1.00  0.00     0.120 C 
HETATM   14  C   UNL     1      15.691  50.681  47.216  1.00  0.00     0.038 C 
BRANCH  13  15
HETATM   15  C   UNL     1      15.482  52.598  48.826  1.00  0.00     0.005 A 
HETATM   16  S   UNL     1      14.493  53.843  48.168  1.00  0.00    -0.104 SA
HETATM   17  C   UNL     1      13.814  54.206  49.692  1.00  0.00     0.050 A 
HETATM   18  C   UNL     1      14.329  53.409  50.690  1.00  0.00     0.008 A 
HETATM   19  C   UNL     1      15.291  52.483  50.191  1.00  0.00     0.017 A 
ENDBRANCH  13  15
ENDBRANCH  10  13
ENDBRANCH   8   9
ENDBRANCH   1   8
BRANCH   5  20
HETATM   20  N   UNL     1      23.482  47.857  49.827  1.00  0.00    -0.338 N 
HETATM   21  C   UNL     1      24.707  47.586  50.409  1.00  0.00     0.321 C 
HETATM   22  N   UNL     1      24.580  46.618  51.382  1.00  0.00    -0.309 N 
HETATM   23  O   UNL     1      25.728  48.185  50.107  1.00  0.00    -0.247 OA
HETATM   24  H   UNL     1      23.642  46.415  51.694  1.00  0.00     0.170 HD
HETATM   25  H   UNL     1      22.866  47.053  49.868  1.00  0.00     0.164 HD
BRANCH  22  26
HETATM   26  C   UNL     1      25.617  46.008  52.119  1.00  0.00     0.036 A 
HETATM   27  C   UNL     1      26.376  44.931  51.650  1.00  0.00     0.032 A 
HETATM   28  C   UNL     1      27.379  44.371  52.448  1.00  0.00     0.044 A 
HETATM   29  C   UNL     1      27.619  44.887  53.716  1.00  0.00     0.116 A 
HETATM   30  F   UNL     1      28.579  44.350  54.478  1.00  0.00    -0.206 F 
HETATM   31  C   UNL     1      26.871  45.949  54.203  1.00  0.00     0.044 A 
HETATM   32  C   UNL     1      25.869  46.509  53.405  1.00  0.00     0.032 A 
ENDBRANCH  22  26
ENDBRANCH   5  20
TORSDOF 6
ENDMDL
MODEL 9
REMARK VINA RESULT:      -8.0      2.099      2.620
REMARK  6 active torsions:
REMARK  status: ('A' for Active; 'I' for Inactive)
REMARK    1  A    between atoms: C_2  and  N_3 
REMARK    2  A    between atoms: C_2  and  C_25 
REMARK       I    between atoms: N_3  and  C_4 
REMARK    3  A    between atoms: C_4  and  C_5 
REMARK    4  A    between atoms: C_5  and  N_6 
REMARK    5  A    between atoms: C_10  and  N_11 
REMARK       I    between atoms: N_11  and  C_12 
REMARK       I    between atoms: C_12  and  N_13 
REMARK    6  A    between atoms: N_13  and  C_14 
ROOT
HETATM    1  N   UNL     1      24.507  45.112  50.428  1.00  0.00    -0.063 N 
HETATM    2  H   UNL     1      25.292  44.846  49.822  1.00  0.00     0.280 HD
HETATM    3  C   UNL     1      23.260  45.116  49.566  1.00  0.00     0.237 C 
HETATM    4  C   UNL     1      23.492  46.069  48.405  1.00  0.00     0.053 C 
HETATM    5  C   UNL     1      23.780  47.498  48.887  1.00  0.00     0.089 C 
HETATM    6  C   UNL     1      25.009  47.464  49.809  1.00  0.00     0.053 C 
HETATM    7  C   UNL     1      24.812  46.491  50.969  1.00  0.00     0.237 C 
ENDROOT
BRANCH   1   8
HETATM    8  C   UNL     1      24.460  44.031  51.515  1.00  0.00     0.337 C 
BRANCH   8   9
HETATM    9  C   UNL     1      25.746  43.828  52.327  1.00  0.00     0.244 C 
HETATM   10  N   UNL     1      25.557  43.764  53.686  1.00  0.00    -0.351 N 
HETATM   11  H   UNL     1      24.646  43.912  54.106  1.00  0.00     0.163 HD
HETATM   12  O   UNL     1      26.847  43.721  51.795  1.00  0.00    -0.272 OA
BRANCH  10  13
HETATM   13  C   UNL     1      26.666  43.623  54.623  1.00  0.00     0.120 C 
HETATM   14  C   UNL     1      27.672  42.579  54.142  1.00  0.00     0.038 C 
BRANCH  13  15
HETATM   15  C   UNL     1      27.313  44.973  54.812  1.00  0.00     0.005 A 
HETATM   16  S   UNL     1      26.456  46.435  54.513  1.00  0.00    -0.104 SA
HETATM   17  C   UNL     1      27.808  47.394  54.926  1.00  0.00     0.050 A 
HETATM   18  C   UNL     1      28.897  46.627  55.276  1.00  0.00     0.008 A 
HETATM   19  C   UNL     1      28.612  45.232  55.210  1.00  0.00     0.017 A 
ENDBRANCH  13  15
ENDBRANCH  10  13
ENDBRANCH   8   9
ENDBRANCH   1   8
BRANCH   5  20
HETATM   20  N   UNL     1      22.698  48.219  49.569  1.00  0.00    -0.338 N 
HETATM   21  C   UNL     1      21.678  48.912  48.940  1.00  0.00     0.321 C 
HETATM   22  N   UNL     1      20.935  49.623  49.857  1.00  0.00    -0.309 N 
HETATM   23  O   UNL     1      21.471  48.833  47.739  1.00  0.00    -0.247 OA
HETATM   24  H   UNL     1      21.066  49.379  50.828  1.00  0.00     0.170 HD
HETATM   25  H   UNL     1      22.987  48.682  50.423  1.00  0.00     0.164 HD
BRANCH  22  26
HETATM   26  C   UNL     1      19.884  50.525  49.589  1.00  0.00     0.036 A 
HETATM   27  C   UNL     1      20.026  51.673  48.802  1.00  0.00     0.032 A 
HETATM   28  C   UNL     1      18.937  52.526  48.594  1.00  0.00     0.044 A 
HETATM   29  C   UNL     1      17.710  52.233  49.176  1.00  0.00     0.116 A 
HETATM   30  F   UNL     1      16.670  53.051  48.975  1.00  0.00    -0.206 F 
HETATM   31  C   UNL     1      17.552  51.104  49.967  1.00  0.00     0.044 A 
HETATM   32  C   UNL     1      18.639  50.250  50.175  1.00  0.00     0.032 A 
ENDBRANCH  22  26
ENDBRANCH   5  20
TORSDOF 6
ENDMDL
MODEL 10
REMARK VINA RESULT:      -7.9      6.278     10.118
REMARK  6 active torsions:
REMARK  status: ('A' for Active; 'I' for Inactive)
REMARK    1  A    between atoms: C_2  and  N_3 
REMARK    2  A    between atoms: C_2  and  C_25 
REMARK       I    between atoms: N_3  and  C_4 
REMARK    3  A    between atoms: C_4  and  C_5 
REMARK    4  A    between atoms: C_5  and  N_6 
REMARK    5  A    between atoms: C_10  and  N_11 
REMARK       I    between atoms: N_11  and  C_12 
REMARK       I    between atoms: C_12  and  N_13 
REMARK    6  A    between atoms: N_13  and  C_14 
ROOT
HETATM    1  N   UNL     1      17.291  50.531  48.318  1.00  0.00    -0.063 N 
HETATM    2  H   UNL     1      16.746  51.309  48.708  1.00  0.00     0.280 HD
HETATM    3  C   UNL     1      18.083  49.925  49.461  1.00  0.00     0.237 C 
HETATM    4  C   UNL     1      18.932  51.023  50.081  1.00  0.00     0.053 C 
HETATM    5  C   UNL     1      19.902  51.640  49.063  1.00  0.00     0.089 C 
HETATM    6  C   UNL     1      19.086  52.192  47.884  1.00  0.00     0.053 C 
HETATM    7  C   UNL     1      18.202  51.114  47.261  1.00  0.00     0.237 C 
ENDROOT
BRANCH   1   8
HETATM    8  C   UNL     1      16.249  49.559  47.752  1.00  0.00     0.337 C 
BRANCH   8   9
HETATM    9  C   UNL     1      16.531  48.066  47.959  1.00  0.00     0.244 C 
HETATM   10  N   UNL     1      17.471  47.540  47.106  1.00  0.00    -0.351 N 
HETATM   11  H   UNL     1      17.883  48.090  46.360  1.00  0.00     0.163 HD
HETATM   12  O   UNL     1      15.966  47.406  48.826  1.00  0.00    -0.272 OA
BRANCH  10  13
HETATM   13  C   UNL     1      17.835  46.128  47.120  1.00  0.00     0.120 C 
HETATM   14  C   UNL     1      17.320  45.406  45.877  1.00  0.00     0.038 C 
BRANCH  13  15
HETATM   15  C   UNL     1      19.336  46.018  47.245  1.00  0.00     0.005 A 
HETATM   16  S   UNL     1      20.303  47.355  47.732  1.00  0.00    -0.104 SA
HETATM   17  C   UNL     1      21.744  46.447  47.611  1.00  0.00     0.050 A 
HETATM   18  C   UNL     1      21.507  45.155  47.199  1.00  0.00     0.008 A 
HETATM   19  C   UNL     1      20.119  44.907  46.988  1.00  0.00     0.017 A 
ENDBRANCH  13  15
ENDBRANCH  10  13
ENDBRANCH   8   9
ENDBRANCH   1   8
BRANCH   5  20
HETATM   20  N   UNL     1      20.974  50.785  48.537  1.00  0.00    -0.338 N 
HETATM   21  C   UNL     1      22.174  50.524  49.174  1.00  0.00     0.321 C 
HETATM   22  N   UNL     1      23.028  49.837  48.339  1.00  0.00    -0.309 N 
HETATM   23  O   UNL     1      22.384  50.833  50.336  1.00  0.00    -0.247 OA
HETATM   24  H   UNL     1      22.618  49.428  47.513  1.00  0.00     0.170 HD
HETATM   25  H   UNL     1      21.094  50.850  47.532  1.00  0.00     0.164 HD
BRANCH  22  26
HETATM   26  C   UNL     1      24.371  49.486  48.594  1.00  0.00     0.036 A 
HETATM   27  C   UNL     1      24.755  48.414  49.406  1.00  0.00     0.032 A 
HETATM   28  C   UNL     1      26.109  48.138  49.620  1.00  0.00     0.044 A 
HETATM   29  C   UNL     1      27.078  48.937  49.025  1.00  0.00     0.116 A 
HETATM   30  F   UNL     1      28.373  48.672  49.231  1.00  0.00    -0.206 F 
HETATM   31  C   UNL     1      26.717  50.011  48.222  1.00  0.00     0.044 A 
HETATM   32  C   UNL     1      25.364  50.286  48.008  1.00  0.00     0.032 A 
ENDBRANCH  22  26
ENDBRANCH   5  20
TORSDOF 6
ENDMDL
