MODEL 1
REMARK VINA RESULT:      -8.7      0.000      0.000
REMARK  3 active torsions:
REMARK  status: ('A' for Active; 'I' for Inactive)
REMARK    1  A    between atoms: C_6  and  N_7 
REMARK       I    between atoms: N_7  and  C_8 
REMARK    2  A    between atoms: C_8  and  C_9 
REMARK    3  A    between atoms: C_9  and  C_10 
ROOT
HETATM    1  C   UNL     1      27.731  42.857  52.592  1.00  0.00     0.286 C 
HETATM    2  N   UNL     1      26.499  42.104  52.106  1.00  0.00    -0.056 N 
HETATM    3  H   UNL     1      26.255  41.450  52.881  1.00  0.00     0.278 HD
HETATM    4  H   UNL     1      25.693  42.731  52.007  1.00  0.00     0.278 HD
HETATM    5  C   UNL     1      26.707  41.282  50.863  1.00  0.00     0.209 C 
HETATM    6  C   UNL     1      27.934  40.355  51.051  1.00  0.00     0.115 C 
HETATM    7  N   UNL     1      29.105  41.052  51.581  1.00  0.00    -0.353 N 
HETATM    8  C   UNL     1      29.017  42.007  52.566  1.00  0.00     0.249 C 
HETATM    9  O   UNL     1      29.975  42.223  53.299  1.00  0.00    -0.271 OA
HETATM   10  C   UNL     1      26.814  42.202  49.644  1.00  0.00     0.035 C 
HETATM   11  C   UNL     1      27.126  41.405  48.381  1.00  0.00     0.002 C 
HETATM   12  C   UNL     1      28.389  40.567  48.552  1.00  0.00     0.002 C 
HETATM   13  C   UNL     1      28.279  39.623  49.749  1.00  0.00     0.027 C 
HETATM   14  H   UNL     1      29.973  40.521  51.649  1.00  0.00     0.163 HD
ENDROOT
BRANCH   1  15
HETATM   15  C   UNL     1      27.504  43.494  53.973  1.00  0.00     0.146 C 
BRANCH  15  16
HETATM   16  C   UNL     1      27.567  44.996  53.915  1.00  0.00     0.224 C 
HETATM   17  N   UNL     1      28.311  45.737  54.775  1.00  0.00    -0.327 N 
HETATM   18  H   UNL     1      28.225  46.730  54.568  1.00  0.00     0.169 HD
HETATM   19  O   UNL     1      26.978  45.576  52.991  1.00  0.00    -0.273 OA
BRANCH  17  20
HETATM   20  C   UNL     1      29.162  45.440  55.861  1.00  0.00     0.036 A 
HETATM   21  C   UNL     1      30.210  44.522  55.857  1.00  0.00     0.053 A 
HETATM   22  C   UNL     1      30.976  44.315  57.012  1.00  0.00     0.036 A 
HETATM   23  C   UNL     1      30.720  45.026  58.180  1.00  0.00     0.024 A 
HETATM   24 CL   UNL     1      32.255  43.162  56.980  1.00  0.00    -0.084 Cl
HETATM   25  C   UNL     1      29.686  45.954  58.194  1.00  0.00     0.004 A 
HETATM   26  C   UNL     1      28.915  46.156  57.044  1.00  0.00     0.029 A 
ENDBRANCH  17  20
ENDBRANCH  15  16
ENDBRANCH   1  15
TORSDOF 3
ENDMDL
MODEL 2
REMARK VINA RESULT:      -8.4      4.952      7.203
REMARK  3 active torsions:
REMARK  status: ('A' for Active; 'I' for Inactive)
REMARK    1  A    between atoms: C_6  and  N_7 
REMARK       I    between atoms: N_7  and  C_8 
REMARK    2  A    between atoms: C_8  and  C_9 
REMARK    3  A    between atoms: C_9  and  C_10 
ROOT
HETATM    1  C   UNL     1      26.719  45.567  52.939  1.00  0.00     0.286 C 
HETATM    2  N   UNL     1      26.528  44.062  53.086  1.00  0.00    -0.056 N 
HETATM    3  H   UNL     1      25.780  43.952  53.805  1.00  0.00     0.278 HD
HETATM    4  H   UNL     1      26.151  43.648  52.226  1.00  0.00     0.278 HD
HETATM    5  C   UNL     1      27.740  43.313  53.568  1.00  0.00     0.209 C 
HETATM    6  C   UNL     1      28.280  43.973  54.862  1.00  0.00     0.115 C 
HETATM    7  N   UNL     1      28.404  45.426  54.757  1.00  0.00    -0.353 N 
HETATM    8  C   UNL     1      27.466  46.208  54.124  1.00  0.00     0.249 C 
HETATM    9  O   UNL     1      27.335  47.385  54.438  1.00  0.00    -0.271 OA
HETATM   10  C   UNL     1      28.777  43.226  52.446  1.00  0.00     0.035 C 
HETATM   11  C   UNL     1      30.060  42.559  52.935  1.00  0.00     0.002 C 
HETATM   12  C   UNL     1      30.627  43.278  54.155  1.00  0.00     0.002 C 
HETATM   13  C   UNL     1      29.608  43.342  55.293  1.00  0.00     0.027 C 
HETATM   14  H   UNL     1      28.834  45.916  55.541  1.00  0.00     0.163 HD
ENDROOT
BRANCH   1  15
HETATM   15  C   UNL     1      25.390  46.286  52.654  1.00  0.00     0.146 C 
BRANCH  15  16
HETATM   16  C   UNL     1      24.640  45.650  51.515  1.00  0.00     0.224 C 
HETATM   17  N   UNL     1      24.547  46.215  50.285  1.00  0.00    -0.327 N 
HETATM   18  H   UNL     1      24.004  45.628  49.655  1.00  0.00     0.169 HD
HETATM   19  O   UNL     1      24.155  44.521  51.686  1.00  0.00    -0.273 OA
BRANCH  17  20
HETATM   20  C   UNL     1      25.031  47.405  49.700  1.00  0.00     0.036 A 
HETATM   21  C   UNL     1      24.256  48.437  49.175  1.00  0.00     0.053 A 
HETATM   22  C   UNL     1      24.867  49.566  48.612  1.00  0.00     0.036 A 
HETATM   23  C   UNL     1      26.251  49.691  48.579  1.00  0.00     0.024 A 
HETATM   24 CL   UNL     1      23.883  50.818  47.957  1.00  0.00    -0.084 Cl
HETATM   25  C   UNL     1      27.036  48.675  49.111  1.00  0.00     0.004 A 
HETATM   26  C   UNL     1      26.428  47.544  49.665  1.00  0.00     0.029 A 
ENDBRANCH  17  20
ENDBRANCH  15  16
ENDBRANCH   1  15
TORSDOF 3
ENDMDL
MODEL 3
REMARK VINA RESULT:      -8.3      8.154     10.012
REMARK  3 active torsions:
REMARK  status: ('A' for Active; 'I' for Inactive)
REMARK    1  A    between atoms: C_6  and  N_7 
REMARK       I    between atoms: N_7  and  C_8 
REMARK    2  A    between atoms: C_8  and  C_9 
REMARK    3  A    between atoms: C_9  and  C_10 
ROOT
HETATM    1  C   UNL     1      21.869  48.773  48.934  1.00  0.00     0.286 C 
HETATM    2  N   UNL     1      21.894  49.974  49.872  1.00  0.00    -0.056 N 
HETATM    3  H   UNL     1      22.016  49.572  50.826  1.00  0.00     0.278 HD
HETATM    4  H   UNL     1      22.722  50.558  49.708  1.00  0.00     0.278 HD
HETATM    5  C   UNL     1      20.636  50.799  49.880  1.00  0.00     0.209 C 
HETATM    6  C   UNL     1      19.412  49.880  50.124  1.00  0.00     0.115 C 
HETATM    7  N   UNL     1      19.411  48.688  49.277  1.00  0.00    -0.353 N 
HETATM    8  C   UNL     1      20.552  47.974  48.998  1.00  0.00     0.249 C 
HETATM    9  O   UNL     1      20.478  46.785  48.709  1.00  0.00    -0.271 OA
HETATM   10  C   UNL     1      20.542  51.615  48.589  1.00  0.00     0.035 C 
HETATM   11  C   UNL     1      19.227  52.387  48.523  1.00  0.00     0.002 C 
HETATM   12  C   UNL     1      18.029  51.454  48.673  1.00  0.00     0.002 C 
HETATM   13  C   UNL     1      18.099  50.656  49.975  1.00  0.00     0.027 C 
HETATM   14  H   UNL     1      18.592  48.083  49.324  1.00  0.00     0.163 HD
ENDROOT
BRANCH   1  15
HETATM   15  C   UNL     1      23.092  47.863  49.138  1.00  0.00     0.146 C 
BRANCH  15  16
HETATM   16  C   UNL     1      24.384  48.627  49.027  1.00  0.00     0.224 C 
HETATM   17  N   UNL     1      25.537  48.215  49.612  1.00  0.00    -0.327 N 
HETATM   18  H   UNL     1      26.296  48.863  49.416  1.00  0.00     0.169 HD
HETATM   19  O   UNL     1      24.414  49.632  48.302  1.00  0.00    -0.273 OA
BRANCH  17  20
HETATM   20  C   UNL     1      25.906  47.109  50.408  1.00  0.00     0.036 A 
HETATM   21  C   UNL     1      25.661  46.960  51.772  1.00  0.00     0.053 A 
HETATM   22  C   UNL     1      26.091  45.809  52.447  1.00  0.00     0.036 A 
HETATM   23  C   UNL     1      26.755  44.788  51.775  1.00  0.00     0.024 A 
HETATM   24 CL   UNL     1      25.788  45.660  54.136  1.00  0.00    -0.084 Cl
HETATM   25  C   UNL     1      26.993  44.918  50.413  1.00  0.00     0.004 A 
HETATM   26  C   UNL     1      26.573  46.069  49.739  1.00  0.00     0.029 A 
ENDBRANCH  17  20
ENDBRANCH  15  16
ENDBRANCH   1  15
TORSDOF 3
ENDMDL
MODEL 4
REMARK VINA RESULT:      -8.2      3.078      4.553
REMARK  3 active torsions:
REMARK  status: ('A' for Active; 'I' for Inactive)
REMARK    1  A    between atoms: C_6  and  N_7 
REMARK       I    between atoms: N_7  and  C_8 
REMARK    2  A    between atoms: C_8  and  C_9 
REMARK    3  A    between atoms: C_9  and  C_10 
ROOT
HETATM    1  C   UNL     1      25.557  44.700  52.789  1.00  0.00     0.286 C 
HETATM    2  N   UNL     1      26.068  44.492  51.369  1.00  0.00    -0.056 N 
HETATM    3  H   UNL     1      27.107  44.567  51.440  1.00  0.00     0.278 HD
HETATM    4  H   UNL     1      25.879  43.538  51.040  1.00  0.00     0.278 HD
HETATM    5  C   UNL     1      25.603  45.517  50.371  1.00  0.00     0.209 C 
HETATM    6  C   UNL     1      25.902  46.940  50.908  1.00  0.00     0.115 C 
HETATM    7  N   UNL     1      25.476  47.132  52.294  1.00  0.00    -0.353 N 
HETATM    8  C   UNL     1      25.634  46.166  53.259  1.00  0.00     0.249 C 
HETATM    9  O   UNL     1      25.717  46.485  54.440  1.00  0.00    -0.271 OA
HETATM   10  C   UNL     1      24.128  45.284  50.037  1.00  0.00     0.035 C 
HETATM   11  C   UNL     1      23.599  46.370  49.103  1.00  0.00     0.002 C 
HETATM   12  C   UNL     1      23.819  47.761  49.690  1.00  0.00     0.002 C 
HETATM   13  C   UNL     1      25.295  48.013  49.998  1.00  0.00     0.027 C 
HETATM   14  H   UNL     1      25.564  48.070  52.683  1.00  0.00     0.163 HD
ENDROOT
BRANCH   1  15
HETATM   15  C   UNL     1      26.241  43.750  53.787  1.00  0.00     0.146 C 
BRANCH  15  16
HETATM   16  C   UNL     1      27.358  42.973  53.147  1.00  0.00     0.224 C 
HETATM   17  N   UNL     1      28.647  43.052  53.565  1.00  0.00    -0.327 N 
HETATM   18  H   UNL     1      29.248  42.448  53.009  1.00  0.00     0.169 HD
HETATM   19  O   UNL     1      27.075  42.163  52.251  1.00  0.00    -0.273 OA
BRANCH  17  20
HETATM   20  C   UNL     1      29.318  43.766  54.581  1.00  0.00     0.036 A 
HETATM   21  C   UNL     1      30.364  43.287  55.369  1.00  0.00     0.053 A 
HETATM   22  C   UNL     1      30.938  44.102  56.354  1.00  0.00     0.036 A 
HETATM   23  C   UNL     1      30.493  45.402  56.560  1.00  0.00     0.024 A 
HETATM   24 CL   UNL     1      32.219  43.477  57.321  1.00  0.00    -0.084 Cl
HETATM   25  C   UNL     1      29.460  45.896  55.773  1.00  0.00     0.004 A 
HETATM   26  C   UNL     1      28.879  45.083  54.795  1.00  0.00     0.029 A 
ENDBRANCH  17  20
ENDBRANCH  15  16
ENDBRANCH   1  15
TORSDOF 3
ENDMDL
MODEL 5
REMARK VINA RESULT:      -8.2      2.583      4.017
REMARK  3 active torsions:
REMARK  status: ('A' for Active; 'I' for Inactive)
REMARK    1  A    between atoms: C_6  and  N_7 
REMARK       I    between atoms: N_7  and  C_8 
REMARK    2  A    between atoms: C_8  and  C_9 
REMARK    3  A    between atoms: C_9  and  C_10 
ROOT
HETATM    1  C   UNL     1      26.932  43.048  52.934  1.00  0.00     0.286 C 
HETATM    2  N   UNL     1      27.729  43.733  51.831  1.00  0.00    -0.056 N 
HETATM    3  H   UNL     1      28.494  44.243  52.323  1.00  0.00     0.278 HD
HETATM    4  H   UNL     1      28.196  43.047  51.227  1.00  0.00     0.278 HD
HETATM    5  C   UNL     1      26.956  44.738  51.021  1.00  0.00     0.209 C 
HETATM    6  C   UNL     1      26.263  45.749  51.968  1.00  0.00     0.115 C 
HETATM    7  N   UNL     1      25.550  45.107  53.071  1.00  0.00    -0.353 N 
HETATM    8  C   UNL     1      26.052  44.019  53.746  1.00  0.00     0.249 C 
HETATM    9  O   UNL     1      25.706  43.800  54.901  1.00  0.00    -0.271 OA
HETATM   10  C   UNL     1      25.988  44.014  50.082  1.00  0.00     0.035 C 
HETATM   11  C   UNL     1      25.118  45.008  49.318  1.00  0.00     0.002 C 
HETATM   12  C   UNL     1      24.372  45.937  50.271  1.00  0.00     0.002 C 
HETATM   13  C   UNL     1      25.334  46.688  51.191  1.00  0.00     0.027 C 
HETATM   14  H   UNL     1      25.001  45.708  53.684  1.00  0.00     0.163 HD
ENDROOT
BRANCH   1  15
HETATM   15  C   UNL     1      27.833  42.203  53.850  1.00  0.00     0.146 C 
BRANCH  15  16
HETATM   16  C   UNL     1      29.270  42.229  53.402  1.00  0.00     0.224 C 
HETATM   17  N   UNL     1      30.244  42.884  54.083  1.00  0.00    -0.327 N 
HETATM   18  H   UNL     1      31.145  42.777  53.623  1.00  0.00     0.169 HD
HETATM   19  O   UNL     1      29.591  41.554  52.412  1.00  0.00    -0.273 OA
BRANCH  17  20
HETATM   20  C   UNL     1      30.281  43.656  55.265  1.00  0.00     0.036 A 
HETATM   21  C   UNL     1      29.431  44.713  55.583  1.00  0.00     0.053 A 
HETATM   22  C   UNL     1      29.583  45.405  56.792  1.00  0.00     0.036 A 
HETATM   23  C   UNL     1      30.570  45.048  57.704  1.00  0.00     0.024 A 
HETATM   24 CL   UNL     1      28.527  46.717  57.150  1.00  0.00    -0.084 Cl
HETATM   25  C   UNL     1      31.416  43.988  57.405  1.00  0.00     0.004 A 
HETATM   26  C   UNL     1      31.272  43.301  56.196  1.00  0.00     0.029 A 
ENDBRANCH  17  20
ENDBRANCH  15  16
ENDBRANCH   1  15
TORSDOF 3
ENDMDL
MODEL 6
REMARK VINA RESULT:      -8.1      7.932      9.904
REMARK  3 active torsions:
REMARK  status: ('A' for Active; 'I' for Inactive)
REMARK    1  A    between atoms: C_6  and  N_7 
REMARK       I    between atoms: N_7  and  C_8 
REMARK    2  A    between atoms: C_8  and  C_9 
REMARK    3  A    between atoms: C_9  and  C_10 
ROOT
HETATM    1  C   UNL     1      22.717  49.184  49.302  1.00  0.00     0.286 C 
HETATM    2  N   UNL     1      21.328  48.641  49.618  1.00  0.00    -0.056 N 
HETATM    3  H   UNL     1      21.227  47.790  49.024  1.00  0.00     0.278 HD
HETATM    4  H   UNL     1      21.267  48.313  50.589  1.00  0.00     0.278 HD
HETATM    5  C   UNL     1      20.193  49.570  49.283  1.00  0.00     0.209 C 
HETATM    6  C   UNL     1      20.326  50.046  47.814  1.00  0.00     0.115 C 
HETATM    7  N   UNL     1      21.672  50.507  47.479  1.00  0.00    -0.353 N 
HETATM    8  C   UNL     1      22.807  49.872  47.926  1.00  0.00     0.249 C 
HETATM    9  O   UNL     1      23.852  49.963  47.292  1.00  0.00    -0.271 OA
HETATM   10  C   UNL     1      20.143  50.715  50.297  1.00  0.00     0.035 C 
HETATM   11  C   UNL     1      19.064  51.729  49.926  1.00  0.00     0.002 C 
HETATM   12  C   UNL     1      19.263  52.256  48.508  1.00  0.00     0.002 C 
HETATM   13  C   UNL     1      19.284  51.121  47.485  1.00  0.00     0.027 C 
HETATM   14  H   UNL     1      21.809  50.914  46.555  1.00  0.00     0.163 HD
ENDROOT
BRANCH   1  15
HETATM   15  C   UNL     1      23.802  48.107  49.467  1.00  0.00     0.146 C 
BRANCH  15  16
HETATM   16  C   UNL     1      23.377  46.787  48.883  1.00  0.00     0.224 C 
HETATM   17  N   UNL     1      23.874  45.597  49.307  1.00  0.00    -0.327 N 
HETATM   18  H   UNL     1      23.457  44.825  48.792  1.00  0.00     0.169 HD
HETATM   19  O   UNL     1      22.473  46.782  48.034  1.00  0.00    -0.273 OA
BRANCH  17  20
HETATM   20  C   UNL     1      24.814  45.207  50.285  1.00  0.00     0.036 A 
HETATM   21  C   UNL     1      24.555  45.004  51.639  1.00  0.00     0.053 A 
HETATM   22  C   UNL     1      25.587  44.624  52.508  1.00  0.00     0.036 A 
HETATM   23  C   UNL     1      26.882  44.427  52.042  1.00  0.00     0.024 A 
HETATM   24 CL   UNL     1      25.239  44.396  54.179  1.00  0.00    -0.084 Cl
HETATM   25  C   UNL     1      27.151  44.612  50.692  1.00  0.00     0.004 A 
HETATM   26  C   UNL     1      26.125  45.000  49.824  1.00  0.00     0.029 A 
ENDBRANCH  17  20
ENDBRANCH  15  16
ENDBRANCH   1  15
TORSDOF 3
ENDMDL
MODEL 7
REMARK VINA RESULT:      -8.1     14.017     15.568
REMARK  3 active torsions:
REMARK  status: ('A' for Active; 'I' for Inactive)
REMARK    1  A    between atoms: C_6  and  N_7 
REMARK       I    between atoms: N_7  and  C_8 
REMARK    2  A    between atoms: C_8  and  C_9 
REMARK    3  A    between atoms: C_9  and  C_10 
ROOT
HETATM    1  C   UNL     1      31.596  48.704  40.725  1.00  0.00     0.286 C 
HETATM    2  N   UNL     1      31.650  50.165  40.295  1.00  0.00    -0.056 N 
HETATM    3  H   UNL     1      32.238  50.174  39.433  1.00  0.00     0.278 HD
HETATM    4  H   UNL     1      30.725  50.504  40.005  1.00  0.00     0.278 HD
HETATM    5  C   UNL     1      32.286  51.096  41.291  1.00  0.00     0.209 C 
HETATM    6  C   UNL     1      33.674  50.547  41.706  1.00  0.00     0.115 C 
HETATM    7  N   UNL     1      33.649  49.127  42.056  1.00  0.00    -0.353 N 
HETATM    8  C   UNL     1      32.909  48.203  41.356  1.00  0.00     0.249 C 
HETATM    9  O   UNL     1      33.247  47.025  41.350  1.00  0.00    -0.271 OA
HETATM   10  C   UNL     1      31.337  51.319  42.471  1.00  0.00     0.035 C 
HETATM   11  C   UNL     1      31.994  52.180  43.548  1.00  0.00     0.002 C 
HETATM   12  C   UNL     1      33.316  51.576  44.010  1.00  0.00     0.002 C 
HETATM   13  C   UNL     1      34.281  51.378  42.841  1.00  0.00     0.027 C 
HETATM   14  H   UNL     1      34.510  48.721  42.420  1.00  0.00     0.163 HD
ENDROOT
BRANCH   1  15
HETATM   15  C   UNL     1      31.136  47.788  39.578  1.00  0.00     0.146 C 
BRANCH  15  16
HETATM   16  C   UNL     1      29.757  47.236  39.820  1.00  0.00     0.224 C 
HETATM   17  N   UNL     1      28.671  48.024  40.026  1.00  0.00    -0.327 N 
HETATM   18  H   UNL     1      27.835  47.463  40.165  1.00  0.00     0.169 HD
HETATM   19  O   UNL     1      29.592  46.009  39.746  1.00  0.00    -0.273 OA
BRANCH  17  20
HETATM   20  C   UNL     1      28.454  49.418  40.083  1.00  0.00     0.036 A 
HETATM   21  C   UNL     1      28.617  50.319  39.032  1.00  0.00     0.053 A 
HETATM   22  C   UNL     1      28.375  51.686  39.227  1.00  0.00     0.036 A 
HETATM   23  C   UNL     1      27.954  52.172  40.460  1.00  0.00     0.024 A 
HETATM   24 CL   UNL     1      28.600  52.777  37.913  1.00  0.00    -0.084 Cl
HETATM   25  C   UNL     1      27.775  51.282  41.512  1.00  0.00     0.004 A 
HETATM   26  C   UNL     1      28.024  49.919  41.323  1.00  0.00     0.029 A 
ENDBRANCH  17  20
ENDBRANCH  15  16
ENDBRANCH   1  15
TORSDOF 3
ENDMDL
MODEL 8
REMARK VINA RESULT:      -8.0      2.743      4.198
REMARK  3 active torsions:
REMARK  status: ('A' for Active; 'I' for Inactive)
REMARK    1  A    between atoms: C_6  and  N_7 
REMARK       I    between atoms: N_7  and  C_8 
REMARK    2  A    between atoms: C_8  and  C_9 
REMARK    3  A    between atoms: C_9  and  C_10 
ROOT
HETATM    1  C   UNL     1      26.902  42.974  52.488  1.00  0.00     0.286 C 
HETATM    2  N   UNL     1      25.858  43.776  53.255  1.00  0.00    -0.056 N 
HETATM    3  H   UNL     1      25.181  43.068  53.614  1.00  0.00     0.278 HD
HETATM    4  H   UNL     1      26.265  44.219  54.087  1.00  0.00     0.278 HD
HETATM    5  C   UNL     1      25.087  44.768  52.428  1.00  0.00     0.209 C 
HETATM    6  C   UNL     1      24.496  44.061  51.183  1.00  0.00     0.115 C 
HETATM    7  N   UNL     1      25.471  43.234  50.475  1.00  0.00    -0.353 N 
HETATM    8  C   UNL     1      26.396  42.453  51.128  1.00  0.00     0.249 C 
HETATM    9  O   UNL     1      26.858  41.460  50.579  1.00  0.00    -0.271 OA
HETATM   10  C   UNL     1      25.979  45.965  52.089  1.00  0.00     0.035 C 
HETATM   11  C   UNL     1      25.256  46.943  51.166  1.00  0.00     0.002 C 
HETATM   12  C   UNL     1      24.760  46.248  49.901  1.00  0.00     0.002 C 
HETATM   13  C   UNL     1      23.844  45.070  50.231  1.00  0.00     0.027 C 
HETATM   14  H   UNL     1      25.173  42.808  49.598  1.00  0.00     0.163 HD
ENDROOT
BRANCH   1  15
HETATM   15  C   UNL     1      27.493  41.840  53.342  1.00  0.00     0.146 C 
BRANCH  15  16
HETATM   16  C   UNL     1      28.964  41.652  53.086  1.00  0.00     0.224 C 
HETATM   17  N   UNL     1      29.919  42.413  53.678  1.00  0.00    -0.327 N 
HETATM   18  H   UNL     1      30.849  42.127  53.380  1.00  0.00     0.169 HD
HETATM   19  O   UNL     1      29.321  40.708  52.366  1.00  0.00    -0.273 OA
BRANCH  17  20
HETATM   20  C   UNL     1      29.906  43.483  54.599  1.00  0.00     0.036 A 
HETATM   21  C   UNL     1      29.092  44.612  54.536  1.00  0.00     0.053 A 
HETATM   22  C   UNL     1      29.187  45.609  55.515  1.00  0.00     0.036 A 
HETATM   23  C   UNL     1      30.078  45.492  56.575  1.00  0.00     0.024 A 
HETATM   24 CL   UNL     1      28.177  47.000  55.402  1.00  0.00    -0.084 Cl
HETATM   25  C   UNL     1      30.887  44.365  56.658  1.00  0.00     0.004 A 
HETATM   26  C   UNL     1      30.801  43.372  55.677  1.00  0.00     0.029 A 
ENDBRANCH  17  20
ENDBRANCH  15  16
ENDBRANCH   1  15
TORSDOF 3
ENDMDL
MODEL 9
REMARK VINA RESULT:      -7.9      6.520      8.680
REMARK  3 active torsions:
REMARK  status: ('A' for Active; 'I' for Inactive)
REMARK    1  A    between atoms: C_6  and  N_7 
REMARK       I    between atoms: N_7  and  C_8 
REMARK    2  A    between atoms: C_8  and  C_9 
REMARK    3  A    between atoms: C_9  and  C_10 
ROOT
HETATM    1  C   UNL     1      25.871  46.434  51.346  1.00  0.00     0.286 C 
HETATM    2  N   UNL     1      25.743  44.941  51.068  1.00  0.00    -0.056 N 
HETATM    3  H   UNL     1      24.731  44.726  51.198  1.00  0.00     0.278 HD
HETATM    4  H   UNL     1      25.950  44.725  50.086  1.00  0.00     0.278 HD
HETATM    5  C   UNL     1      26.522  44.053  52.000  1.00  0.00     0.209 C 
HETATM    6  C   UNL     1      26.186  44.415  53.468  1.00  0.00     0.115 C 
HETATM    7  N   UNL     1      26.239  45.852  53.732  1.00  0.00    -0.353 N 
HETATM    8  C   UNL     1      25.768  46.789  52.842  1.00  0.00     0.249 C 
HETATM    9  O   UNL     1      25.395  47.885  53.244  1.00  0.00    -0.271 OA
HETATM   10  C   UNL     1      28.015  44.141  51.673  1.00  0.00     0.035 C 
HETATM   11  C   UNL     1      28.843  43.329  52.666  1.00  0.00     0.002 C 
HETATM   12  C   UNL     1      28.566  43.761  54.102  1.00  0.00     0.002 C 
HETATM   13  C   UNL     1      27.081  43.647  54.446  1.00  0.00     0.027 C 
HETATM   14  H   UNL     1      26.112  46.154  54.697  1.00  0.00     0.163 HD
ENDROOT
BRANCH   1  15
HETATM   15  C   UNL     1      24.887  47.259  50.501  1.00  0.00     0.146 C 
BRANCH  15  16
HETATM   16  C   UNL     1      25.600  48.211  49.579  1.00  0.00     0.224 C 
HETATM   17  N   UNL     1      24.949  49.119  48.808  1.00  0.00    -0.327 N 
HETATM   18  H   UNL     1      25.607  49.670  48.261  1.00  0.00     0.169 HD
HETATM   19  O   UNL     1      26.840  48.221  49.586  1.00  0.00    -0.273 OA
BRANCH  17  20
HETATM   20  C   UNL     1      23.594  49.461  48.608  1.00  0.00     0.036 A 
HETATM   21  C   UNL     1      22.593  48.615  48.136  1.00  0.00     0.053 A 
HETATM   22  C   UNL     1      21.284  49.087  47.975  1.00  0.00     0.036 A 
HETATM   23  C   UNL     1      20.949  50.398  48.293  1.00  0.00     0.024 A 
HETATM   24 CL   UNL     1      20.072  48.020  47.375  1.00  0.00    -0.084 Cl
HETATM   25  C   UNL     1      21.935  51.250  48.777  1.00  0.00     0.004 A 
HETATM   26  C   UNL     1      23.244  50.783  48.931  1.00  0.00     0.029 A 
ENDBRANCH  17  20
ENDBRANCH  15  16
ENDBRANCH   1  15
TORSDOF 3
ENDMDL
MODEL 10
REMARK VINA RESULT:      -7.9     14.579     16.882
REMARK  3 active torsions:
REMARK  status: ('A' for Active; 'I' for Inactive)
REMARK    1  A    between atoms: C_6  and  N_7 
REMARK       I    between atoms: N_7  and  C_8 
REMARK    2  A    between atoms: C_8  and  C_9 
REMARK    3  A    between atoms: C_9  and  C_10 
ROOT
HETATM    1  C   UNL     1      33.388  50.262  41.626  1.00  0.00     0.286 C 
HETATM    2  N   UNL     1      34.626  49.643  40.989  1.00  0.00    -0.056 N 
HETATM    3  H   UNL     1      34.917  48.882  41.641  1.00  0.00     0.278 HD
HETATM    4  H   UNL     1      34.398  49.178  40.103  1.00  0.00     0.278 HD
HETATM    5  C   UNL     1      35.793  50.580  40.830  1.00  0.00     0.209 C 
HETATM    6  C   UNL     1      36.100  51.263  42.186  1.00  0.00     0.115 C 
HETATM    7  N   UNL     1      34.910  51.803  42.840  1.00  0.00    -0.353 N 
HETATM    8  C   UNL     1      33.705  51.141  42.852  1.00  0.00     0.249 C 
HETATM    9  O   UNL     1      32.898  51.349  43.750  1.00  0.00    -0.271 OA
HETATM   10  C   UNL     1      35.514  51.567  39.694  1.00  0.00     0.035 C 
HETATM   11  C   UNL     1      36.637  52.595  39.574  1.00  0.00     0.002 C 
HETATM   12  C   UNL     1      36.865  53.323  40.894  1.00  0.00     0.002 C 
HETATM   13  C   UNL     1      37.174  52.346  42.028  1.00  0.00     0.027 C 
HETATM   14  H   UNL     1      35.050  52.341  43.695  1.00  0.00     0.163 HD
ENDROOT
BRANCH   1  15
HETATM   15  C   UNL     1      32.323  49.202  41.952  1.00  0.00     0.146 C 
BRANCH  15  16
HETATM   16  C   UNL     1      32.243  48.140  40.888  1.00  0.00     0.224 C 
HETATM   17  N   UNL     1      31.615  48.330  39.701  1.00  0.00    -0.327 N 
HETATM   18  H   UNL     1      31.676  47.498  39.119  1.00  0.00     0.169 HD
HETATM   19  O   UNL     1      32.850  47.074  41.073  1.00  0.00    -0.273 OA
BRANCH  17  20
HETATM   20  C   UNL     1      30.917  49.405  39.108  1.00  0.00     0.036 A 
HETATM   21  C   UNL     1      29.533  49.554  39.052  1.00  0.00     0.053 A 
HETATM   22  C   UNL     1      28.966  50.671  38.422  1.00  0.00     0.036 A 
HETATM   23  C   UNL     1      29.765  51.658  37.856  1.00  0.00     0.024 A 
HETATM   24 CL   UNL     1      27.251  50.820  38.355  1.00  0.00    -0.084 Cl
HETATM   25  C   UNL     1      31.147  51.528  37.917  1.00  0.00     0.004 A 
HETATM   26  C   UNL     1      31.715  50.410  38.536  1.00  0.00     0.029 A 
ENDBRANCH  17  20
ENDBRANCH  15  16
ENDBRANCH   1  15
TORSDOF 3
ENDMDL
