MODEL 1
REMARK VINA RESULT:     -10.1      0.000      0.000
REMARK  9 active torsions:
REMARK  status: ('A' for Active; 'I' for Inactive)
REMARK    1  A    between atoms: C_2  and  O_3 
REMARK    2  A    between atoms: O_3  and  C_4 
REMARK    3  A    between atoms: C_7  and  N_8 
REMARK       I    between atoms: N_8  and  C_9 
REMARK    4  A    between atoms: C_9  and  C_10 
REMARK    5  A    between atoms: C_10  and  S_11 
REMARK    6  A    between atoms: S_11  and  C_12 
REMARK    7  A    between atoms: C_16  and  C_17 
REMARK       I    between atoms: C_17  and  N_18 
REMARK    8  A    between atoms: N_18  and  C_19 
REMARK    9  A    between atoms: C_27  and  C_28 
ROOT
HETATM    1  C   UNL     1      22.163  47.317  48.233  1.00  0.00     0.087 C 
HETATM    2  N   UNL     1      22.708  46.078  47.942  1.00  0.00    -0.353 N 
HETATM    3  C   UNL     1      23.583  45.411  48.774  1.00  0.00     0.019 C 
HETATM    4  C   UNL     1      23.822  43.958  48.445  1.00  0.00     0.069 C 
HETATM    5  C   UNL     1      24.119  46.082  49.820  1.00  0.00     0.046 C 
HETATM    6  C   UNL     1      23.996  47.609  49.910  1.00  0.00     0.104 C 
HETATM    7  C   UNL     1      22.788  48.130  49.121  1.00  0.00     0.055 C 
HETATM    8  C   UNL     1      22.397  49.594  49.250  1.00  0.00     0.019 C 
HETATM    9  N   UNL     1      22.073  50.807  49.358  1.00  0.00    -0.096 N 
HETATM   10  H   UNL     1      22.194  45.530  47.255  1.00  0.00     0.166 HD
ENDROOT
BRANCH   1  11
HETATM   11  S   UNL     1      20.592  47.721  47.554  1.00  0.00    -0.102 SA
BRANCH  11  12
HETATM   12  C   UNL     1      19.625  47.124  48.986  1.00  0.00     0.184 C 
BRANCH  12  13
HETATM   13  C   UNL     1      18.650  48.137  49.542  1.00  0.00     0.231 C 
HETATM   14  N   UNL     1      18.215  49.064  48.618  1.00  0.00    -0.327 N 
HETATM   15  H   UNL     1      18.306  48.805  47.642  1.00  0.00     0.169 HD
HETATM   16  O   UNL     1      18.397  48.138  50.746  1.00  0.00    -0.272 OA
BRANCH  14  17
HETATM   17  C   UNL     1      17.611  50.307  48.895  1.00  0.00     0.034 A 
HETATM   18  C   UNL     1      16.257  50.571  48.686  1.00  0.00     0.032 A 
HETATM   19  C   UNL     1      15.712  51.801  49.063  1.00  0.00     0.039 A 
HETATM   20  C   UNL     1      16.506  52.786  49.651  1.00  0.00     0.068 A 
HETATM   21  C   UNL     1      17.865  52.536  49.838  1.00  0.00     0.039 A 
HETATM   22  C   UNL     1      18.411  51.300  49.470  1.00  0.00     0.032 A 
BRANCH  20  23
HETATM   23  O   UNL     1      15.840  53.927  49.993  1.00  0.00    -0.352 OA
BRANCH  23  24
HETATM   24  C   UNL     1      14.707  53.783  50.849  1.00  0.00     0.171 C 
HETATM   25  C   UNL     1      14.728  54.927  51.846  1.00  0.00     0.034 C 
ENDBRANCH  23  24
ENDBRANCH  20  23
ENDBRANCH  14  17
ENDBRANCH  12  13
ENDBRANCH  11  12
ENDBRANCH   1  11
BRANCH   6  26
HETATM   26  C   UNL     1      25.298  48.288  49.490  1.00  0.00    -0.042 A 
HETATM   27  C   UNL     1      26.529  47.967  50.078  1.00  0.00     0.027 A 
HETATM   28  C   UNL     1      27.667  48.643  49.663  1.00  0.00     0.116 A 
HETATM   29  N   UNL     1      27.665  49.615  48.728  1.00  0.00    -0.273 NA
HETATM   30  C   UNL     1      26.470  49.929  48.187  1.00  0.00     0.116 A 
HETATM   31  C   UNL     1      25.280  49.303  48.526  1.00  0.00     0.027 A 
ENDBRANCH   6  26
BRANCH   5  32
HETATM   32  C   UNL     1      24.715  45.378  50.997  1.00  0.00     0.255 C 
HETATM   33  N   UNL     1      26.099  45.361  50.936  1.00  0.00    -0.323 N 
HETATM   34  H   UNL     1      26.523  45.811  50.136  1.00  0.00     0.169 HD
HETATM   35  O   UNL     1      24.005  44.812  51.815  1.00  0.00    -0.268 OA
BRANCH  33  36
HETATM   36  C   UNL     1      27.012  44.824  51.862  1.00  0.00     0.035 A 
HETATM   37  C   UNL     1      27.113  45.234  53.192  1.00  0.00     0.031 A 
HETATM   38  C   UNL     1      28.056  44.642  54.039  1.00  0.00     0.026 A 
HETATM   39  C   UNL     1      28.906  43.648  53.557  1.00  0.00     0.034 A 
HETATM   40 CL   UNL     1      30.068  42.927  54.600  1.00  0.00    -0.084 Cl
HETATM   41  C   UNL     1      28.818  43.234  52.232  1.00  0.00     0.026 A 
HETATM   42  C   UNL     1      27.869  43.818  51.390  1.00  0.00     0.031 A 
ENDBRANCH  33  36
ENDBRANCH   5  32
TORSDOF 9
ENDMDL
MODEL 2
REMARK VINA RESULT:      -9.9      3.241      4.836
REMARK  9 active torsions:
REMARK  status: ('A' for Active; 'I' for Inactive)
REMARK    1  A    between atoms: C_2  and  O_3 
REMARK    2  A    between atoms: O_3  and  C_4 
REMARK    3  A    between atoms: C_7  and  N_8 
REMARK       I    between atoms: N_8  and  C_9 
REMARK    4  A    between atoms: C_9  and  C_10 
REMARK    5  A    between atoms: C_10  and  S_11 
REMARK    6  A    between atoms: S_11  and  C_12 
REMARK    7  A    between atoms: C_16  and  C_17 
REMARK       I    between atoms: C_17  and  N_18 
REMARK    8  A    between atoms: N_18  and  C_19 
REMARK    9  A    between atoms: C_27  and  C_28 
ROOT
HETATM    1  C   UNL     1      24.082  42.544  48.367  1.00  0.00     0.087 C 
HETATM    2  N   UNL     1      25.395  42.239  48.055  1.00  0.00    -0.353 N 
HETATM    3  C   UNL     1      26.412  42.185  48.987  1.00  0.00     0.019 C 
HETATM    4  C   UNL     1      27.694  41.538  48.522  1.00  0.00     0.069 C 
HETATM    5  C   UNL     1      26.176  42.667  50.230  1.00  0.00     0.046 C 
HETATM    6  C   UNL     1      24.929  43.515  50.510  1.00  0.00     0.104 C 
HETATM    7  C   UNL     1      23.806  43.229  49.505  1.00  0.00     0.055 C 
HETATM    8  C   UNL     1      22.432  43.835  49.740  1.00  0.00     0.019 C 
HETATM    9  N   UNL     1      21.292  44.336  49.935  1.00  0.00    -0.096 N 
HETATM   10  H   UNL     1      25.528  41.739  47.178  1.00  0.00     0.166 HD
ENDROOT
BRANCH   1  11
HETATM   11  S   UNL     1      22.807  41.890  47.348  1.00  0.00    -0.102 SA
BRANCH  11  12
HETATM   12  C   UNL     1      22.866  43.236  46.112  1.00  0.00     0.184 C 
BRANCH  12  13
HETATM   13  C   UNL     1      21.844  44.328  46.334  1.00  0.00     0.231 C 
HETATM   14  N   UNL     1      22.389  45.546  46.683  1.00  0.00    -0.327 N 
HETATM   15  H   UNL     1      23.364  45.690  46.444  1.00  0.00     0.169 HD
HETATM   16  O   UNL     1      20.646  44.054  46.295  1.00  0.00    -0.272 OA
BRANCH  14  17
HETATM   17  C   UNL     1      21.716  46.626  47.288  1.00  0.00     0.034 A 
HETATM   18  C   UNL     1      20.395  46.972  46.998  1.00  0.00     0.032 A 
HETATM   19  C   UNL     1      19.766  48.004  47.700  1.00  0.00     0.039 A 
HETATM   20  C   UNL     1      20.442  48.706  48.698  1.00  0.00     0.068 A 
HETATM   21  C   UNL     1      21.769  48.380  48.974  1.00  0.00     0.039 A 
HETATM   22  C   UNL     1      22.398  47.340  48.278  1.00  0.00     0.032 A 
BRANCH  20  23
HETATM   23  O   UNL     1      19.700  49.668  49.321  1.00  0.00    -0.352 OA
BRANCH  23  24
HETATM   24  C   UNL     1      20.369  50.882  49.659  1.00  0.00     0.171 C 
HETATM   25  C   UNL     1      20.135  51.873  48.533  1.00  0.00     0.034 C 
ENDBRANCH  23  24
ENDBRANCH  20  23
ENDBRANCH  14  17
ENDBRANCH  12  13
ENDBRANCH  11  12
ENDBRANCH   1  11
BRANCH   6  26
HETATM   26  C   UNL     1      25.281  45.001  50.576  1.00  0.00    -0.042 A 
HETATM   27  C   UNL     1      25.905  45.665  49.511  1.00  0.00     0.027 A 
HETATM   28  C   UNL     1      26.217  47.010  49.651  1.00  0.00     0.116 A 
HETATM   29  N   UNL     1      25.971  47.727  50.766  1.00  0.00    -0.273 NA
HETATM   30  C   UNL     1      25.390  47.068  51.790  1.00  0.00     0.116 A 
HETATM   31  C   UNL     1      25.029  45.730  51.743  1.00  0.00     0.027 A 
ENDBRANCH   6  26
BRANCH   5  32
HETATM   32  C   UNL     1      27.016  42.283  51.406  1.00  0.00     0.255 C 
HETATM   33  N   UNL     1      27.802  43.339  51.838  1.00  0.00    -0.323 N 
HETATM   34  H   UNL     1      27.716  44.207  51.329  1.00  0.00     0.169 HD
HETATM   35  O   UNL     1      27.039  41.131  51.811  1.00  0.00    -0.268 OA
BRANCH  33  36
HETATM   36  C   UNL     1      28.696  43.380  52.924  1.00  0.00     0.035 A 
HETATM   37  C   UNL     1      29.870  42.631  53.002  1.00  0.00     0.031 A 
HETATM   38  C   UNL     1      30.696  42.737  54.128  1.00  0.00     0.026 A 
HETATM   39  C   UNL     1      30.345  43.581  55.179  1.00  0.00     0.034 A 
HETATM   40 CL   UNL     1      31.359  43.702  56.563  1.00  0.00    -0.084 Cl
HETATM   41  C   UNL     1      29.174  44.328  55.115  1.00  0.00     0.026 A 
HETATM   42  C   UNL     1      28.355  44.231  53.987  1.00  0.00     0.031 A 
ENDBRANCH  33  36
ENDBRANCH   5  32
TORSDOF 9
ENDMDL
MODEL 3
REMARK VINA RESULT:      -9.8      4.536     11.207
REMARK  9 active torsions:
REMARK  status: ('A' for Active; 'I' for Inactive)
REMARK    1  A    between atoms: C_2  and  O_3 
REMARK    2  A    between atoms: O_3  and  C_4 
REMARK    3  A    between atoms: C_7  and  N_8 
REMARK       I    between atoms: N_8  and  C_9 
REMARK    4  A    between atoms: C_9  and  C_10 
REMARK    5  A    between atoms: C_10  and  S_11 
REMARK    6  A    between atoms: S_11  and  C_12 
REMARK    7  A    between atoms: C_16  and  C_17 
REMARK       I    between atoms: C_17  and  N_18 
REMARK    8  A    between atoms: N_18  and  C_19 
REMARK    9  A    between atoms: C_27  and  C_28 
ROOT
HETATM    1  C   UNL     1      23.284  47.036  49.118  1.00  0.00     0.087 C 
HETATM    2  N   UNL     1      22.231  46.151  49.265  1.00  0.00    -0.353 N 
HETATM    3  C   UNL     1      21.110  46.152  48.460  1.00  0.00     0.019 C 
HETATM    4  C   UNL     1      20.226  44.933  48.564  1.00  0.00     0.069 C 
HETATM    5  C   UNL     1      20.912  47.202  47.629  1.00  0.00     0.046 C 
HETATM    6  C   UNL     1      21.740  48.484  47.787  1.00  0.00     0.104 C 
HETATM    7  C   UNL     1      23.082  48.216  48.479  1.00  0.00     0.055 C 
HETATM    8  C   UNL     1      24.113  49.331  48.550  1.00  0.00     0.019 C 
HETATM    9  N   UNL     1      24.968  50.255  48.609  1.00  0.00    -0.096 N 
HETATM   10  H   UNL     1      22.452  45.294  49.770  1.00  0.00     0.166 HD
ENDROOT
BRANCH   1  11
HETATM   11  S   UNL     1      24.886  46.525  49.633  1.00  0.00    -0.102 SA
BRANCH  11  12
HETATM   12  C   UNL     1      24.316  45.025  50.510  1.00  0.00     0.184 C 
BRANCH  12  13
HETATM   13  C   UNL     1      25.076  44.723  51.782  1.00  0.00     0.231 C 
HETATM   14  N   UNL     1      26.432  44.963  51.697  1.00  0.00    -0.327 N 
HETATM   15  H   UNL     1      26.733  45.597  50.964  1.00  0.00     0.169 HD
HETATM   16  O   UNL     1      24.488  44.209  52.732  1.00  0.00    -0.272 OA
BRANCH  14  17
HETATM   17  C   UNL     1      27.429  44.459  52.554  1.00  0.00     0.034 A 
HETATM   18  C   UNL     1      28.393  43.532  52.156  1.00  0.00     0.032 A 
HETATM   19  C   UNL     1      29.403  43.141  53.039  1.00  0.00     0.039 A 
HETATM   20  C   UNL     1      29.467  43.665  54.330  1.00  0.00     0.068 A 
HETATM   21  C   UNL     1      28.491  44.572  54.740  1.00  0.00     0.039 A 
HETATM   22  C   UNL     1      27.484  44.973  53.854  1.00  0.00     0.032 A 
BRANCH  20  23
HETATM   23  O   UNL     1      30.519  43.217  55.076  1.00  0.00    -0.352 OA
BRANCH  23  24
HETATM   24  C   UNL     1      31.050  44.115  56.050  1.00  0.00     0.171 C 
HETATM   25  C   UNL     1      31.668  43.285  57.161  1.00  0.00     0.034 C 
ENDBRANCH  23  24
ENDBRANCH  20  23
ENDBRANCH  14  17
ENDBRANCH  12  13
ENDBRANCH  11  12
ENDBRANCH   1  11
BRANCH   6  26
HETATM   26  C   UNL     1      20.933  49.572  48.493  1.00  0.00    -0.042 A 
HETATM   27  C   UNL     1      20.230  49.326  49.680  1.00  0.00     0.027 A 
HETATM   28  C   UNL     1      19.498  50.356  50.253  1.00  0.00     0.116 A 
HETATM   29  N   UNL     1      19.404  51.594  49.727  1.00  0.00    -0.273 NA
HETATM   30  C   UNL     1      20.068  51.810  48.573  1.00  0.00     0.116 A 
HETATM   31  C   UNL     1      20.835  50.850  47.930  1.00  0.00     0.027 A 
ENDBRANCH   6  26
BRANCH   5  32
HETATM   32  C   UNL     1      20.006  47.119  46.443  1.00  0.00     0.255 C 
HETATM   33  N   UNL     1      18.746  47.621  46.726  1.00  0.00    -0.323 N 
HETATM   34  H   UNL     1      18.597  47.970  47.662  1.00  0.00     0.169 HD
HETATM   35  O   UNL     1      20.366  46.562  45.416  1.00  0.00    -0.268 OA
BRANCH  33  36
HETATM   36  C   UNL     1      17.637  47.741  45.868  1.00  0.00     0.035 A 
HETATM   37  C   UNL     1      16.841  46.671  45.460  1.00  0.00     0.031 A 
HETATM   38  C   UNL     1      15.758  46.890  44.601  1.00  0.00     0.026 A 
HETATM   39  C   UNL     1      15.476  48.174  44.141  1.00  0.00     0.034 A 
HETATM   40 CL   UNL     1      14.148  48.437  43.079  1.00  0.00    -0.084 Cl
HETATM   41  C   UNL     1      16.266  49.248  44.536  1.00  0.00     0.026 A 
HETATM   42  C   UNL     1      17.340  49.031  45.403  1.00  0.00     0.031 A 
ENDBRANCH  33  36
ENDBRANCH   5  32
TORSDOF 9
ENDMDL
MODEL 4
REMARK VINA RESULT:      -9.6      3.770      6.643
REMARK  9 active torsions:
REMARK  status: ('A' for Active; 'I' for Inactive)
REMARK    1  A    between atoms: C_2  and  O_3 
REMARK    2  A    between atoms: O_3  and  C_4 
REMARK    3  A    between atoms: C_7  and  N_8 
REMARK       I    between atoms: N_8  and  C_9 
REMARK    4  A    between atoms: C_9  and  C_10 
REMARK    5  A    between atoms: C_10  and  S_11 
REMARK    6  A    between atoms: S_11  and  C_12 
REMARK    7  A    between atoms: C_16  and  C_17 
REMARK       I    between atoms: C_17  and  N_18 
REMARK    8  A    between atoms: N_18  and  C_19 
REMARK    9  A    between atoms: C_27  and  C_28 
ROOT
HETATM    1  C   UNL     1      24.364  41.494  47.411  1.00  0.00     0.087 C 
HETATM    2  N   UNL     1      23.950  41.718  48.713  1.00  0.00    -0.353 N 
HETATM    3  C   UNL     1      24.784  42.167  49.717  1.00  0.00     0.019 C 
HETATM    4  C   UNL     1      24.099  42.648  50.972  1.00  0.00     0.069 C 
HETATM    5  C   UNL     1      26.119  42.178  49.491  1.00  0.00     0.046 C 
HETATM    6  C   UNL     1      26.709  41.442  48.281  1.00  0.00     0.104 C 
HETATM    7  C   UNL     1      25.679  41.277  47.156  1.00  0.00     0.055 C 
HETATM    8  C   UNL     1      26.136  40.742  45.809  1.00  0.00     0.019 C 
HETATM    9  N   UNL     1      26.515  40.299  44.691  1.00  0.00    -0.096 N 
HETATM   10  H   UNL     1      22.948  41.856  48.831  1.00  0.00     0.166 HD
ENDROOT
BRANCH   1  11
HETATM   11  S   UNL     1      23.184  41.656  46.118  1.00  0.00    -0.102 SA
BRANCH  11  12
HETATM   12  C   UNL     1      23.322  43.474  45.983  1.00  0.00     0.184 C 
BRANCH  12  13
HETATM   13  C   UNL     1      22.309  44.236  46.809  1.00  0.00     0.231 C 
HETATM   14  N   UNL     1      22.203  45.570  46.477  1.00  0.00    -0.327 N 
HETATM   15  H   UNL     1      22.532  45.834  45.554  1.00  0.00     0.169 HD
HETATM   16  O   UNL     1      21.747  43.674  47.747  1.00  0.00    -0.272 OA
BRANCH  14  17
HETATM   17  C   UNL     1      21.639  46.590  47.268  1.00  0.00     0.034 A 
HETATM   18  C   UNL     1      20.276  46.893  47.281  1.00  0.00     0.032 A 
HETATM   19  C   UNL     1      19.777  47.863  48.154  1.00  0.00     0.039 A 
HETATM   20  C   UNL     1      20.626  48.546  49.025  1.00  0.00     0.068 A 
HETATM   21  C   UNL     1      21.991  48.265  48.997  1.00  0.00     0.039 A 
HETATM   22  C   UNL     1      22.492  47.287  48.130  1.00  0.00     0.032 A 
BRANCH  20  23
HETATM   23  O   UNL     1      20.002  49.446  49.840  1.00  0.00    -0.352 OA
BRANCH  23  24
HETATM   24  C   UNL     1      20.595  50.739  49.949  1.00  0.00     0.171 C 
HETATM   25  C   UNL     1      20.245  51.518  48.694  1.00  0.00     0.034 C 
ENDBRANCH  23  24
ENDBRANCH  20  23
ENDBRANCH  14  17
ENDBRANCH  12  13
ENDBRANCH  11  12
ENDBRANCH   1  11
BRANCH   6  26
HETATM   26  C   UNL     1      27.326  40.109  48.699  1.00  0.00    -0.042 A 
HETATM   27  C   UNL     1      28.712  39.899  48.707  1.00  0.00     0.027 A 
HETATM   28  C   UNL     1      29.201  38.654  49.075  1.00  0.00     0.116 A 
HETATM   29  N   UNL     1      28.418  37.611  49.416  1.00  0.00    -0.273 NA
HETATM   30  C   UNL     1      27.086  37.820  49.383  1.00  0.00     0.116 A 
HETATM   31  C   UNL     1      26.501  39.030  49.041  1.00  0.00     0.027 A 
ENDBRANCH   6  26
BRANCH   5  32
HETATM   32  C   UNL     1      27.056  43.014  50.302  1.00  0.00     0.255 C 
HETATM   33  N   UNL     1      27.348  42.421  51.519  1.00  0.00    -0.323 N 
HETATM   34  H   UNL     1      26.912  41.529  51.705  1.00  0.00     0.169 HD
HETATM   35  O   UNL     1      27.393  44.126  49.922  1.00  0.00    -0.268 OA
BRANCH  33  36
HETATM   36  C   UNL     1      28.206  42.880  52.535  1.00  0.00     0.035 A 
HETATM   37  C   UNL     1      29.538  42.491  52.673  1.00  0.00     0.031 A 
HETATM   38  C   UNL     1      30.314  43.000  53.721  1.00  0.00     0.026 A 
HETATM   39  C   UNL     1      29.757  43.890  54.637  1.00  0.00     0.034 A 
HETATM   40 CL   UNL     1      30.712  44.508  55.928  1.00  0.00    -0.084 Cl
HETATM   41  C   UNL     1      28.428  44.282  54.514  1.00  0.00     0.026 A 
HETATM   42  C   UNL     1      27.658  43.781  53.461  1.00  0.00     0.031 A 
ENDBRANCH  33  36
ENDBRANCH   5  32
TORSDOF 9
ENDMDL
MODEL 5
REMARK VINA RESULT:      -9.5      3.993     11.186
REMARK  9 active torsions:
REMARK  status: ('A' for Active; 'I' for Inactive)
REMARK    1  A    between atoms: C_2  and  O_3 
REMARK    2  A    between atoms: O_3  and  C_4 
REMARK    3  A    between atoms: C_7  and  N_8 
REMARK       I    between atoms: N_8  and  C_9 
REMARK    4  A    between atoms: C_9  and  C_10 
REMARK    5  A    between atoms: C_10  and  S_11 
REMARK    6  A    between atoms: S_11  and  C_12 
REMARK    7  A    between atoms: C_16  and  C_17 
REMARK       I    between atoms: C_17  and  N_18 
REMARK    8  A    between atoms: N_18  and  C_19 
REMARK    9  A    between atoms: C_27  and  C_28 
ROOT
HETATM    1  C   UNL     1      23.312  47.402  48.772  1.00  0.00     0.087 C 
HETATM    2  N   UNL     1      23.160  48.745  48.471  1.00  0.00    -0.353 N 
HETATM    3  C   UNL     1      21.995  49.452  48.692  1.00  0.00     0.019 C 
HETATM    4  C   UNL     1      22.113  50.954  48.599  1.00  0.00     0.069 C 
HETATM    5  C   UNL     1      20.871  48.766  49.006  1.00  0.00     0.046 C 
HETATM    6  C   UNL     1      20.817  47.243  48.831  1.00  0.00     0.104 C 
HETATM    7  C   UNL     1      22.215  46.612  48.880  1.00  0.00     0.055 C 
HETATM    8  C   UNL     1      22.342  45.098  48.915  1.00  0.00     0.019 C 
HETATM    9  N   UNL     1      22.447  43.843  48.945  1.00  0.00    -0.096 N 
HETATM   10  H   UNL     1      24.027  49.272  48.389  1.00  0.00     0.166 HD
ENDROOT
BRANCH   1  11
HETATM   11  S   UNL     1      24.922  46.808  49.155  1.00  0.00    -0.102 SA
BRANCH  11  12
HETATM   12  C   UNL     1      24.708  46.884  50.969  1.00  0.00     0.184 C 
BRANCH  12  13
HETATM   13  C   UNL     1      25.683  46.027  51.745  1.00  0.00     0.231 C 
HETATM   14  N   UNL     1      25.793  46.367  53.077  1.00  0.00    -0.327 N 
HETATM   15  H   UNL     1      25.023  46.893  53.475  1.00  0.00     0.169 HD
HETATM   16  O   UNL     1      26.360  45.190  51.151  1.00  0.00    -0.272 OA
BRANCH  14  17
HETATM   17  C   UNL     1      26.841  46.013  53.950  1.00  0.00     0.034 A 
HETATM   18  C   UNL     1      27.287  44.703  54.130  1.00  0.00     0.032 A 
HETATM   19  C   UNL     1      28.387  44.438  54.950  1.00  0.00     0.039 A 
HETATM   20  C   UNL     1      29.058  45.473  55.603  1.00  0.00     0.068 A 
HETATM   21  C   UNL     1      28.600  46.780  55.446  1.00  0.00     0.039 A 
HETATM   22  C   UNL     1      27.504  47.049  54.617  1.00  0.00     0.032 A 
BRANCH  20  23
HETATM   23  O   UNL     1      30.130  45.076  56.349  1.00  0.00    -0.352 OA
BRANCH  23  24
HETATM   24  C   UNL     1      30.788  43.875  55.948  1.00  0.00     0.171 C 
HETATM   25  C   UNL     1      31.648  43.405  57.108  1.00  0.00     0.034 C 
ENDBRANCH  23  24
ENDBRANCH  20  23
ENDBRANCH  14  17
ENDBRANCH  12  13
ENDBRANCH  11  12
ENDBRANCH   1  11
BRANCH   6  26
HETATM   26  C   UNL     1      20.057  46.864  47.560  1.00  0.00    -0.042 A 
HETATM   27  C   UNL     1      20.666  46.873  46.298  1.00  0.00     0.027 A 
HETATM   28  C   UNL     1      19.908  46.542  45.185  1.00  0.00     0.116 A 
HETATM   29  N   UNL     1      18.599  46.222  45.236  1.00  0.00    -0.273 NA
HETATM   30  C   UNL     1      18.021  46.240  46.454  1.00  0.00     0.116 A 
HETATM   31  C   UNL     1      18.696  46.546  47.626  1.00  0.00     0.027 A 
ENDBRANCH   6  26
BRANCH   5  32
HETATM   32  C   UNL     1      19.700  49.417  49.668  1.00  0.00     0.255 C 
HETATM   33  N   UNL     1      19.079  50.328  48.829  1.00  0.00    -0.323 N 
HETATM   34  H   UNL     1      19.476  50.438  47.906  1.00  0.00     0.169 HD
HETATM   35  O   UNL     1      19.447  49.206  50.845  1.00  0.00    -0.268 OA
BRANCH  33  36
HETATM   36  C   UNL     1      17.937  51.111  49.076  1.00  0.00     0.035 A 
HETATM   37  C   UNL     1      17.947  52.309  49.791  1.00  0.00     0.031 A 
HETATM   38  C   UNL     1      16.757  53.019  49.989  1.00  0.00     0.026 A 
HETATM   39  C   UNL     1      15.555  52.527  49.482  1.00  0.00     0.034 A 
HETATM   40 CL   UNL     1      14.094  53.399  49.733  1.00  0.00    -0.084 Cl
HETATM   41  C   UNL     1      15.532  51.332  48.773  1.00  0.00     0.026 A 
HETATM   42  C   UNL     1      16.722  50.630  48.566  1.00  0.00     0.031 A 
ENDBRANCH  33  36
ENDBRANCH   5  32
TORSDOF 9
ENDMDL
MODEL 6
REMARK VINA RESULT:      -9.4      4.660     11.049
REMARK  9 active torsions:
REMARK  status: ('A' for Active; 'I' for Inactive)
REMARK    1  A    between atoms: C_2  and  O_3 
REMARK    2  A    between atoms: O_3  and  C_4 
REMARK    3  A    between atoms: C_7  and  N_8 
REMARK       I    between atoms: N_8  and  C_9 
REMARK    4  A    between atoms: C_9  and  C_10 
REMARK    5  A    between atoms: C_10  and  S_11 
REMARK    6  A    between atoms: S_11  and  C_12 
REMARK    7  A    between atoms: C_16  and  C_17 
REMARK       I    between atoms: C_17  and  N_18 
REMARK    8  A    between atoms: N_18  and  C_19 
REMARK    9  A    between atoms: C_27  and  C_28 
ROOT
HETATM    1  C   UNL     1      23.244  47.256  49.190  1.00  0.00     0.087 C 
HETATM    2  N   UNL     1      22.723  45.980  49.070  1.00  0.00    -0.353 N 
HETATM    3  C   UNL     1      21.936  45.569  48.013  1.00  0.00     0.019 C 
HETATM    4  C   UNL     1      21.725  44.080  47.892  1.00  0.00     0.069 C 
HETATM    5  C   UNL     1      21.456  46.506  47.162  1.00  0.00     0.046 C 
HETATM    6  C   UNL     1      21.532  47.995  47.523  1.00  0.00     0.104 C 
HETATM    7  C   UNL     1      22.658  48.283  48.524  1.00  0.00     0.055 C 
HETATM    8  C   UNL     1      23.005  49.726  48.850  1.00  0.00     0.019 C 
HETATM    9  N   UNL     1      23.294  50.923  49.121  1.00  0.00    -0.096 N 
HETATM   10  H   UNL     1      23.203  45.263  49.611  1.00  0.00     0.166 HD
ENDROOT
BRANCH   1  11
HETATM   11  S   UNL     1      24.744  47.467  50.082  1.00  0.00    -0.102 SA
BRANCH  11  12
HETATM   12  C   UNL     1      24.665  45.854  50.938  1.00  0.00     0.184 C 
BRANCH  12  13
HETATM   13  C   UNL     1      25.984  45.393  51.517  1.00  0.00     0.231 C 
HETATM   14  N   UNL     1      25.946  45.143  52.873  1.00  0.00    -0.327 N 
HETATM   15  H   UNL     1      25.031  44.967  53.274  1.00  0.00     0.169 HD
HETATM   16  O   UNL     1      26.985  45.372  50.803  1.00  0.00    -0.272 OA
BRANCH  14  17
HETATM   17  C   UNL     1      27.052  45.055  53.742  1.00  0.00     0.034 A 
HETATM   18  C   UNL     1      27.847  43.915  53.866  1.00  0.00     0.032 A 
HETATM   19  C   UNL     1      28.978  43.929  54.687  1.00  0.00     0.039 A 
HETATM   20  C   UNL     1      29.331  45.077  55.397  1.00  0.00     0.068 A 
HETATM   21  C   UNL     1      28.525  46.209  55.296  1.00  0.00     0.039 A 
HETATM   22  C   UNL     1      27.397  46.200  54.466  1.00  0.00     0.032 A 
BRANCH  20  23
HETATM   23  O   UNL     1      30.472  44.961  56.138  1.00  0.00    -0.352 OA
BRANCH  23  24
HETATM   24  C   UNL     1      31.258  43.787  55.936  1.00  0.00     0.171 C 
HETATM   25  C   UNL     1      31.812  43.360  57.283  1.00  0.00     0.034 C 
ENDBRANCH  23  24
ENDBRANCH  20  23
ENDBRANCH  14  17
ENDBRANCH  12  13
ENDBRANCH  11  12
ENDBRANCH   1  11
BRANCH   6  26
HETATM   26  C   UNL     1      20.179  48.509  48.012  1.00  0.00    -0.042 A 
HETATM   27  C   UNL     1      19.461  49.493  47.319  1.00  0.00     0.027 A 
HETATM   28  C   UNL     1      18.250  49.930  47.835  1.00  0.00     0.116 A 
HETATM   29  N   UNL     1      17.716  49.474  48.987  1.00  0.00    -0.273 NA
HETATM   30  C   UNL     1      18.429  48.543  49.654  1.00  0.00     0.116 A 
HETATM   31  C   UNL     1      19.641  48.035  49.215  1.00  0.00     0.027 A 
ENDBRANCH   6  26
BRANCH   5  32
HETATM   32  C   UNL     1      20.975  46.163  45.788  1.00  0.00     0.255 C 
HETATM   33  N   UNL     1      19.614  45.903  45.773  1.00  0.00    -0.323 N 
HETATM   34  H   UNL     1      19.129  45.975  46.657  1.00  0.00     0.169 HD
HETATM   35  O   UNL     1      21.761  46.036  44.862  1.00  0.00    -0.268 OA
BRANCH  33  36
HETATM   36  C   UNL     1      18.795  45.577  44.677  1.00  0.00     0.035 A 
HETATM   37  C   UNL     1      18.409  46.484  43.690  1.00  0.00     0.031 A 
HETATM   38  C   UNL     1      17.587  46.066  42.636  1.00  0.00     0.026 A 
HETATM   39  C   UNL     1      17.143  44.747  42.573  1.00  0.00     0.034 A 
HETATM   40 CL   UNL     1      16.128  44.240  41.280  1.00  0.00    -0.084 Cl
HETATM   41  C   UNL     1      17.518  43.835  43.554  1.00  0.00     0.026 A 
HETATM   42  C   UNL     1      18.347  44.250  44.599  1.00  0.00     0.031 A 
ENDBRANCH  33  36
ENDBRANCH   5  32
TORSDOF 9
ENDMDL
MODEL 7
REMARK VINA RESULT:      -9.1      4.547     10.759
REMARK  9 active torsions:
REMARK  status: ('A' for Active; 'I' for Inactive)
REMARK    1  A    between atoms: C_2  and  O_3 
REMARK    2  A    between atoms: O_3  and  C_4 
REMARK    3  A    between atoms: C_7  and  N_8 
REMARK       I    between atoms: N_8  and  C_9 
REMARK    4  A    between atoms: C_9  and  C_10 
REMARK    5  A    between atoms: C_10  and  S_11 
REMARK    6  A    between atoms: S_11  and  C_12 
REMARK    7  A    between atoms: C_16  and  C_17 
REMARK       I    between atoms: C_17  and  N_18 
REMARK    8  A    between atoms: N_18  and  C_19 
REMARK    9  A    between atoms: C_27  and  C_28 
ROOT
HETATM    1  C   UNL     1      22.712  47.368  48.904  1.00  0.00     0.087 C 
HETATM    2  N   UNL     1      21.687  46.462  49.113  1.00  0.00    -0.353 N 
HETATM    3  C   UNL     1      20.517  46.444  48.379  1.00  0.00     0.019 C 
HETATM    4  C   UNL     1      19.665  45.209  48.534  1.00  0.00     0.069 C 
HETATM    5  C   UNL     1      20.248  47.493  47.567  1.00  0.00     0.046 C 
HETATM    6  C   UNL     1      21.060  48.790  47.678  1.00  0.00     0.104 C 
HETATM    7  C   UNL     1      22.448  48.545  48.283  1.00  0.00     0.055 C 
HETATM    8  C   UNL     1      23.460  49.679  48.295  1.00  0.00     0.019 C 
HETATM    9  N   UNL     1      24.300  50.619  48.304  1.00  0.00    -0.096 N 
HETATM   10  H   UNL     1      21.955  45.608  49.599  1.00  0.00     0.166 HD
ENDROOT
BRANCH   1  11
HETATM   11  S   UNL     1      24.352  46.885  49.314  1.00  0.00    -0.102 SA
BRANCH  11  12
HETATM   12  C   UNL     1      23.890  45.241  49.969  1.00  0.00     0.184 C 
BRANCH  12  13
HETATM   13  C   UNL     1      24.545  44.892  51.287  1.00  0.00     0.231 C 
HETATM   14  N   UNL     1      25.578  45.735  51.642  1.00  0.00    -0.327 N 
HETATM   15  H   UNL     1      25.588  46.648  51.201  1.00  0.00     0.169 HD
HETATM   16  O   UNL     1      24.205  43.870  51.881  1.00  0.00    -0.272 OA
BRANCH  14  17
HETATM   17  C   UNL     1      26.586  45.474  52.591  1.00  0.00     0.034 A 
HETATM   18  C   UNL     1      26.748  46.208  53.767  1.00  0.00     0.032 A 
HETATM   19  C   UNL     1      27.718  45.839  54.702  1.00  0.00     0.039 A 
HETATM   20  C   UNL     1      28.542  44.735  54.479  1.00  0.00     0.068 A 
HETATM   21  C   UNL     1      28.401  44.014  53.294  1.00  0.00     0.039 A 
HETATM   22  C   UNL     1      27.423  44.377  52.361  1.00  0.00     0.032 A 
BRANCH  20  23
HETATM   23  O   UNL     1      29.427  44.471  55.485  1.00  0.00    -0.352 OA
BRANCH  23  24
HETATM   24  C   UNL     1      30.385  43.440  55.250  1.00  0.00     0.171 C 
HETATM   25  C   UNL     1      31.322  43.395  56.443  1.00  0.00     0.034 C 
ENDBRANCH  23  24
ENDBRANCH  20  23
ENDBRANCH  14  17
ENDBRANCH  12  13
ENDBRANCH  11  12
ENDBRANCH   1  11
BRANCH   6  26
HETATM   26  C   UNL     1      20.279  49.861  48.439  1.00  0.00    -0.042 A 
HETATM   27  C   UNL     1      19.555  49.568  49.603  1.00  0.00     0.027 A 
HETATM   28  C   UNL     1      18.849  50.586  50.228  1.00  0.00     0.116 A 
HETATM   29  N   UNL     1      18.799  51.854  49.773  1.00  0.00    -0.273 NA
HETATM   30  C   UNL     1      19.482  52.116  48.639  1.00  0.00     0.116 A 
HETATM   31  C   UNL     1      20.227  51.171  47.950  1.00  0.00     0.027 A 
ENDBRANCH   6  26
BRANCH   5  32
HETATM   32  C   UNL     1      19.271  47.397  46.440  1.00  0.00     0.255 C 
HETATM   33  N   UNL     1      19.854  46.863  45.302  1.00  0.00    -0.323 N 
HETATM   34  H   UNL     1      20.831  46.612  45.368  1.00  0.00     0.169 HD
HETATM   35  O   UNL     1      18.144  47.855  46.546  1.00  0.00    -0.268 OA
BRANCH  33  36
HETATM   36  C   UNL     1      19.259  46.590  44.057  1.00  0.00     0.035 A 
HETATM   37  C   UNL     1      18.999  47.555  43.083  1.00  0.00     0.031 A 
HETATM   38  C   UNL     1      18.399  47.187  41.873  1.00  0.00     0.026 A 
HETATM   39  C   UNL     1      18.049  45.859  41.639  1.00  0.00     0.034 A 
HETATM   40 CL   UNL     1      17.305  45.413  40.154  1.00  0.00    -0.084 Cl
HETATM   41  C   UNL     1      18.298  44.889  42.604  1.00  0.00     0.026 A 
HETATM   42  C   UNL     1      18.907  45.255  43.807  1.00  0.00     0.031 A 
ENDBRANCH  33  36
ENDBRANCH   5  32
TORSDOF 9
ENDMDL
MODEL 8
REMARK VINA RESULT:      -8.9     20.814     24.695
REMARK  9 active torsions:
REMARK  status: ('A' for Active; 'I' for Inactive)
REMARK    1  A    between atoms: C_2  and  O_3 
REMARK    2  A    between atoms: O_3  and  C_4 
REMARK    3  A    between atoms: C_7  and  N_8 
REMARK       I    between atoms: N_8  and  C_9 
REMARK    4  A    between atoms: C_9  and  C_10 
REMARK    5  A    between atoms: C_10  and  S_11 
REMARK    6  A    between atoms: S_11  and  C_12 
REMARK    7  A    between atoms: C_16  and  C_17 
REMARK       I    between atoms: C_17  and  N_18 
REMARK    8  A    between atoms: N_18  and  C_19 
REMARK    9  A    between atoms: C_27  and  C_28 
ROOT
HETATM    1  C   UNL     1      38.914  45.408  64.696  1.00  0.00     0.087 C 
HETATM    2  N   UNL     1      38.059  46.230  63.981  1.00  0.00    -0.353 N 
HETATM    3  C   UNL     1      37.258  47.193  64.561  1.00  0.00     0.019 C 
HETATM    4  C   UNL     1      36.641  48.190  63.611  1.00  0.00     0.069 C 
HETATM    5  C   UNL     1      37.122  47.196  65.907  1.00  0.00     0.046 C 
HETATM    6  C   UNL     1      37.595  45.997  66.739  1.00  0.00     0.104 C 
HETATM    7  C   UNL     1      38.690  45.199  66.018  1.00  0.00     0.055 C 
HETATM    8  C   UNL     1      39.411  44.091  66.767  1.00  0.00     0.019 C 
HETATM    9  N   UNL     1      40.011  43.173  67.388  1.00  0.00    -0.096 N 
HETATM   10  H   UNL     1      38.279  46.327  62.992  1.00  0.00     0.166 HD
ENDROOT
BRANCH   1  11
HETATM   11  S   UNL     1      40.350  44.792  63.891  1.00  0.00    -0.102 SA
BRANCH  11  12
HETATM   12  C   UNL     1      39.452  43.647  62.785  1.00  0.00     0.184 C 
BRANCH  12  13
HETATM   13  C   UNL     1      39.116  42.313  63.413  1.00  0.00     0.231 C 
HETATM   14  N   UNL     1      40.170  41.724  64.079  1.00  0.00    -0.327 N 
HETATM   15  H   UNL     1      40.923  42.339  64.366  1.00  0.00     0.169 HD
HETATM   16  O   UNL     1      38.011  41.811  63.214  1.00  0.00    -0.272 OA
BRANCH  14  17
HETATM   17  C   UNL     1      40.280  40.367  64.444  1.00  0.00     0.034 A 
HETATM   18  C   UNL     1      40.558  39.344  63.536  1.00  0.00     0.032 A 
HETATM   19  C   UNL     1      40.735  38.032  63.985  1.00  0.00     0.039 A 
HETATM   20  C   UNL     1      40.636  37.721  65.341  1.00  0.00     0.068 A 
HETATM   21  C   UNL     1      40.334  38.736  66.247  1.00  0.00     0.039 A 
HETATM   22  C   UNL     1      40.165  40.052  65.802  1.00  0.00     0.032 A 
BRANCH  20  23
HETATM   23  O   UNL     1      40.859  36.408  65.643  1.00  0.00    -0.352 OA
BRANCH  23  24
HETATM   24  C   UNL     1      40.088  35.849  66.705  1.00  0.00     0.171 C 
HETATM   25  C   UNL     1      39.681  34.444  66.296  1.00  0.00     0.034 C 
ENDBRANCH  23  24
ENDBRANCH  20  23
ENDBRANCH  14  17
ENDBRANCH  12  13
ENDBRANCH  11  12
ENDBRANCH   1  11
BRANCH   6  26
HETATM   26  C   UNL     1      36.416  45.118  67.152  1.00  0.00    -0.042 A 
HETATM   27  C   UNL     1      35.972  45.042  68.479  1.00  0.00     0.027 A 
HETATM   28  C   UNL     1      34.910  44.204  68.785  1.00  0.00     0.116 A 
HETATM   29  N   UNL     1      34.277  43.432  67.878  1.00  0.00    -0.273 NA
HETATM   30  C   UNL     1      34.730  43.498  66.609  1.00  0.00     0.116 A 
HETATM   31  C   UNL     1      35.775  44.313  66.202  1.00  0.00     0.027 A 
ENDBRANCH   6  26
BRANCH   5  32
HETATM   32  C   UNL     1      36.654  48.401  66.658  1.00  0.00     0.255 C 
HETATM   33  N   UNL     1      37.566  49.441  66.576  1.00  0.00    -0.323 N 
HETATM   34  H   UNL     1      38.405  49.267  66.039  1.00  0.00     0.169 HD
HETATM   35  O   UNL     1      35.635  48.365  67.331  1.00  0.00    -0.268 OA
BRANCH  33  36
HETATM   36  C   UNL     1      37.473  50.735  67.119  1.00  0.00     0.035 A 
HETATM   37  C   UNL     1      37.099  51.008  68.435  1.00  0.00     0.031 A 
HETATM   38  C   UNL     1      37.030  52.332  68.885  1.00  0.00     0.026 A 
HETATM   39  C   UNL     1      37.325  53.383  68.019  1.00  0.00     0.034 A 
HETATM   40 CL   UNL     1      37.233  55.009  68.575  1.00  0.00    -0.084 Cl
HETATM   41  C   UNL     1      37.694  53.124  66.704  1.00  0.00     0.026 A 
HETATM   42  C   UNL     1      37.772  51.802  66.258  1.00  0.00     0.031 A 
ENDBRANCH  33  36
ENDBRANCH   5  32
TORSDOF 9
ENDMDL
MODEL 9
REMARK VINA RESULT:      -8.9      7.856     10.482
REMARK  9 active torsions:
REMARK  status: ('A' for Active; 'I' for Inactive)
REMARK    1  A    between atoms: C_2  and  O_3 
REMARK    2  A    between atoms: O_3  and  C_4 
REMARK    3  A    between atoms: C_7  and  N_8 
REMARK       I    between atoms: N_8  and  C_9 
REMARK    4  A    between atoms: C_9  and  C_10 
REMARK    5  A    between atoms: C_10  and  S_11 
REMARK    6  A    between atoms: S_11  and  C_12 
REMARK    7  A    between atoms: C_16  and  C_17 
REMARK       I    between atoms: C_17  and  N_18 
REMARK    8  A    between atoms: N_18  and  C_19 
REMARK    9  A    between atoms: C_27  and  C_28 
ROOT
HETATM    1  C   UNL     1      24.975  41.158  46.828  1.00  0.00     0.087 C 
HETATM    2  N   UNL     1      24.314  41.492  47.998  1.00  0.00    -0.353 N 
HETATM    3  C   UNL     1      24.940  42.021  49.109  1.00  0.00     0.019 C 
HETATM    4  C   UNL     1      24.028  42.609  50.157  1.00  0.00     0.069 C 
HETATM    5  C   UNL     1      26.292  42.007  49.156  1.00  0.00     0.046 C 
HETATM    6  C   UNL     1      27.097  41.169  48.153  1.00  0.00     0.104 C 
HETATM    7  C   UNL     1      26.309  40.914  46.861  1.00  0.00     0.055 C 
HETATM    8  C   UNL     1      27.015  40.266  45.681  1.00  0.00     0.019 C 
HETATM    9  N   UNL     1      27.600  39.729  44.703  1.00  0.00    -0.096 N 
HETATM   10  H   UNL     1      23.311  41.644  47.900  1.00  0.00     0.166 HD
ENDROOT
BRANCH   1  11
HETATM   11  S   UNL     1      24.081  41.214  45.316  1.00  0.00    -0.102 SA
BRANCH  11  12
HETATM   12  C   UNL     1      22.483  41.676  46.076  1.00  0.00     0.184 C 
BRANCH  12  13
HETATM   13  C   UNL     1      21.434  40.588  46.024  1.00  0.00     0.231 C 
HETATM   14  N   UNL     1      21.402  39.784  47.144  1.00  0.00    -0.327 N 
HETATM   15  H   UNL     1      21.814  40.168  47.987  1.00  0.00     0.169 HD
HETATM   16  O   UNL     1      20.778  40.428  44.996  1.00  0.00    -0.272 OA
BRANCH  14  17
HETATM   17  C   UNL     1      20.811  38.509  47.246  1.00  0.00     0.034 A 
HETATM   18  C   UNL     1      21.486  37.320  46.961  1.00  0.00     0.032 A 
HETATM   19  C   UNL     1      20.860  36.088  47.165  1.00  0.00     0.039 A 
HETATM   20  C   UNL     1      19.555  36.020  47.654  1.00  0.00     0.068 A 
HETATM   21  C   UNL     1      18.869  37.205  47.916  1.00  0.00     0.039 A 
HETATM   22  C   UNL     1      19.497  38.441  47.721  1.00  0.00     0.032 A 
BRANCH  20  23
HETATM   23  O   UNL     1      19.077  34.754  47.832  1.00  0.00    -0.352 OA
BRANCH  23  24
HETATM   24  C   UNL     1      20.012  33.764  48.258  1.00  0.00     0.171 C 
HETATM   25  C   UNL     1      20.010  33.745  49.776  1.00  0.00     0.034 C 
ENDBRANCH  23  24
ENDBRANCH  20  23
ENDBRANCH  14  17
ENDBRANCH  12  13
ENDBRANCH  11  12
ENDBRANCH   1  11
BRANCH   6  26
HETATM   26  C   UNL     1      27.590  39.874  48.794  1.00  0.00    -0.042 A 
HETATM   27  C   UNL     1      28.948  39.637  49.046  1.00  0.00     0.027 A 
HETATM   28  C   UNL     1      29.326  38.427  49.608  1.00  0.00     0.116 A 
HETATM   29  N   UNL     1      28.461  37.441  49.920  1.00  0.00    -0.273 NA
HETATM   30  C   UNL     1      27.159  37.673  49.652  1.00  0.00     0.116 A 
HETATM   31  C   UNL     1      26.682  38.854  49.103  1.00  0.00     0.027 A 
ENDBRANCH   6  26
BRANCH   5  32
HETATM   32  C   UNL     1      27.066  42.905  50.067  1.00  0.00     0.255 C 
HETATM   33  N   UNL     1      27.322  42.299  51.286  1.00  0.00    -0.323 N 
HETATM   34  H   UNL     1      26.970  41.360  51.408  1.00  0.00     0.169 HD
HETATM   35  O   UNL     1      27.311  44.060  49.750  1.00  0.00    -0.268 OA
BRANCH  33  36
HETATM   36  C   UNL     1      28.040  42.806  52.384  1.00  0.00     0.035 A 
HETATM   37  C   UNL     1      27.510  43.681  53.332  1.00  0.00     0.031 A 
HETATM   38  C   UNL     1      28.306  44.135  54.391  1.00  0.00     0.026 A 
HETATM   39  C   UNL     1      29.633  43.724  54.497  1.00  0.00     0.034 A 
HETATM   40 CL   UNL     1      30.609  44.290  55.795  1.00  0.00    -0.084 Cl
HETATM   41  C   UNL     1      30.174  42.857  53.554  1.00  0.00     0.026 A 
HETATM   42  C   UNL     1      29.377  42.395  52.504  1.00  0.00     0.031 A 
ENDBRANCH  33  36
ENDBRANCH   5  32
TORSDOF 9
ENDMDL
MODEL 10
REMARK VINA RESULT:      -8.9      7.697     11.740
REMARK  9 active torsions:
REMARK  status: ('A' for Active; 'I' for Inactive)
REMARK    1  A    between atoms: C_2  and  O_3 
REMARK    2  A    between atoms: O_3  and  C_4 
REMARK    3  A    between atoms: C_7  and  N_8 
REMARK       I    between atoms: N_8  and  C_9 
REMARK    4  A    between atoms: C_9  and  C_10 
REMARK    5  A    between atoms: C_10  and  S_11 
REMARK    6  A    between atoms: S_11  and  C_12 
REMARK    7  A    between atoms: C_16  and  C_17 
REMARK       I    between atoms: C_17  and  N_18 
REMARK    8  A    between atoms: N_18  and  C_19 
REMARK    9  A    between atoms: C_27  and  C_28 
ROOT
HETATM    1  C   UNL     1      24.148  42.142  48.848  1.00  0.00     0.087 C 
HETATM    2  N   UNL     1      23.319  42.435  47.778  1.00  0.00    -0.353 N 
HETATM    3  C   UNL     1      22.828  41.485  46.905  1.00  0.00     0.019 C 
HETATM    4  C   UNL     1      21.705  41.939  46.006  1.00  0.00     0.069 C 
HETATM    5  C   UNL     1      23.351  40.237  46.948  1.00  0.00     0.046 C 
HETATM    6  C   UNL     1      24.645  39.963  47.726  1.00  0.00     0.104 C 
HETATM    7  C   UNL     1      24.872  40.996  48.838  1.00  0.00     0.055 C 
HETATM    8  C   UNL     1      26.000  40.775  49.832  1.00  0.00     0.019 C 
HETATM    9  N   UNL     1      26.935  40.592  50.657  1.00  0.00    -0.096 N 
HETATM   10  H   UNL     1      22.819  43.320  47.847  1.00  0.00     0.166 HD
ENDROOT
BRANCH   1  11
HETATM   11  S   UNL     1      24.107  43.200  50.252  1.00  0.00    -0.102 SA
BRANCH  11  12
HETATM   12  C   UNL     1      25.285  44.427  49.579  1.00  0.00     0.184 C 
BRANCH  12  13
HETATM   13  C   UNL     1      26.624  44.450  50.280  1.00  0.00     0.231 C 
HETATM   14  N   UNL     1      26.615  43.865  51.529  1.00  0.00    -0.327 N 
HETATM   15  H   UNL     1      25.861  43.213  51.717  1.00  0.00     0.169 HD
HETATM   16  O   UNL     1      27.566  45.051  49.767  1.00  0.00    -0.272 OA
BRANCH  14  17
HETATM   17  C   UNL     1      27.573  44.042  52.547  1.00  0.00     0.034 A 
HETATM   18  C   UNL     1      27.423  44.945  53.600  1.00  0.00     0.032 A 
HETATM   19  C   UNL     1      28.377  45.006  54.619  1.00  0.00     0.039 A 
HETATM   20  C   UNL     1      29.494  44.171  54.603  1.00  0.00     0.068 A 
HETATM   21  C   UNL     1      29.661  43.285  53.540  1.00  0.00     0.039 A 
HETATM   22  C   UNL     1      28.702  43.215  52.523  1.00  0.00     0.032 A 
BRANCH  20  23
HETATM   23  O   UNL     1      30.331  44.316  55.673  1.00  0.00    -0.352 OA
BRANCH  23  24
HETATM   24  C   UNL     1      30.908  43.127  56.208  1.00  0.00     0.171 C 
HETATM   25  C   UNL     1      31.936  43.536  57.249  1.00  0.00     0.034 C 
ENDBRANCH  23  24
ENDBRANCH  20  23
ENDBRANCH  14  17
ENDBRANCH  12  13
ENDBRANCH  11  12
ENDBRANCH   1  11
BRANCH   6  26
HETATM   26  C   UNL     1      25.841  39.859  46.781  1.00  0.00    -0.042 A 
HETATM   27  C   UNL     1      26.060  40.787  45.753  1.00  0.00     0.027 A 
HETATM   28  C   UNL     1      27.154  40.616  44.917  1.00  0.00     0.116 A 
HETATM   29  N   UNL     1      28.025  39.591  45.019  1.00  0.00    -0.273 NA
HETATM   30  C   UNL     1      27.788  38.694  45.998  1.00  0.00     0.116 A 
HETATM   31  C   UNL     1      26.731  38.785  46.891  1.00  0.00     0.027 A 
ENDBRANCH   6  26
BRANCH   5  32
HETATM   32  C   UNL     1      22.635  39.054  46.381  1.00  0.00     0.255 C 
HETATM   33  N   UNL     1      21.759  38.498  47.299  1.00  0.00    -0.323 N 
HETATM   34  H   UNL     1      21.710  38.942  48.205  1.00  0.00     0.169 HD
HETATM   35  O   UNL     1      22.920  38.618  45.275  1.00  0.00    -0.268 OA
BRANCH  33  36
HETATM   36  C   UNL     1      20.892  37.403  47.132  1.00  0.00     0.035 A 
HETATM   37  C   UNL     1      21.263  36.072  47.327  1.00  0.00     0.031 A 
HETATM   38  C   UNL     1      20.329  35.048  47.133  1.00  0.00     0.026 A 
HETATM   39  C   UNL     1      19.028  35.350  46.735  1.00  0.00     0.034 A 
HETATM   40 CL   UNL     1      17.886  34.087  46.491  1.00  0.00    -0.084 Cl
HETATM   41  C   UNL     1      18.648  36.672  46.533  1.00  0.00     0.026 A 
HETATM   42  C   UNL     1      19.578  37.695  46.737  1.00  0.00     0.031 A 
ENDBRANCH  33  36
ENDBRANCH   5  32
TORSDOF 9
ENDMDL
