MODEL 1
REMARK VINA RESULT:      -9.8      0.000      0.000
REMARK  6 active torsions:
REMARK  status: ('A' for Active; 'I' for Inactive)
REMARK    1  A    between atoms: C_2  and  C_3 
REMARK    2  A    between atoms: C_3  and  N_4 
REMARK       I    between atoms: N_4  and  C_5 
REMARK    3  A    between atoms: C_5  and  C_6 
REMARK    4  A    between atoms: C_8  and  C_9 
REMARK    5  A    between atoms: C_9  and  N_10 
REMARK       I    between atoms: N_10  and  C_11 
REMARK    6  A    between atoms: C_11  and  C_12 
ROOT
HETATM    1  C   UNL     1      25.050  46.441  51.307  1.00  0.00     0.161 C 
ENDROOT
BRANCH   1   2
HETATM    2  C   UNL     1      25.411  47.480  50.282  1.00  0.00    -0.040 A 
HETATM    3  C   UNL     1      24.406  48.225  49.651  1.00  0.00     0.026 A 
HETATM    4  C   UNL     1      24.743  49.266  48.781  1.00  0.00     0.032 A 
HETATM    5  C   UNL     1      26.081  49.550  48.497  1.00  0.00     0.017 A 
HETATM    6  C   UNL     1      27.086  48.787  49.093  1.00  0.00     0.002 A 
HETATM    7  C   UNL     1      26.753  47.764  49.984  1.00  0.00     0.009 A 
BRANCH   4   8
HETATM    8  C   UNL     1      23.646  50.081  48.212  1.00  0.00     0.252 C 
HETATM    9  N   UNL     1      22.412  49.865  48.788  1.00  0.00    -0.353 N 
HETATM   10  H   UNL     1      22.337  49.122  49.471  1.00  0.00     0.163 HD
HETATM   11  O   UNL     1      23.864  50.811  47.256  1.00  0.00    -0.268 OA
BRANCH   9  12
HETATM   12  C   UNL     1      21.165  50.406  48.259  1.00  0.00     0.080 C 
HETATM   13  C   UNL     1      20.240  49.299  47.754  1.00  0.00     0.032 C 
BRANCH  12  14
HETATM   14  C   UNL     1      20.435  51.331  49.250  1.00  0.00     0.020 C 
HETATM   15  C   UNL     1      19.325  52.144  48.598  1.00  0.00     0.007 C 
ENDBRANCH  12  14
ENDBRANCH   9  12
ENDBRANCH   4   8
ENDBRANCH   1   2
BRANCH   1  16
HETATM   16  N   UNL     1      26.193  45.747  51.829  1.00  0.00    -0.351 N 
HETATM   17  C   UNL     1      26.015  44.541  52.478  1.00  0.00     0.273 C 
HETATM   18  O   UNL     1      24.910  44.126  52.814  1.00  0.00    -0.266 OA
HETATM   19  H   UNL     1      27.124  45.913  51.456  1.00  0.00     0.163 HD
BRANCH  17  20
HETATM   20  C   UNL     1      27.259  43.785  52.693  1.00  0.00     0.157 A 
HETATM   21  N   UNL     1      27.582  42.712  51.939  1.00  0.00    -0.168 NA
HETATM   22  N   UNL     1      28.760  42.307  52.450  1.00  0.00    -0.277 N 
HETATM   23  H   UNL     1      29.213  41.501  52.033  1.00  0.00     0.189 HD
HETATM   24  C   UNL     1      29.204  43.048  53.511  1.00  0.00     0.063 A 
HETATM   25  C   UNL     1      28.243  44.032  53.695  1.00  0.00     0.029 A 
HETATM   26  C   UNL     1      30.343  42.936  54.313  1.00  0.00     0.032 A 
HETATM   27  C   UNL     1      28.415  44.964  54.737  1.00  0.00     0.023 A 
HETATM   28  C   UNL     1      29.549  44.880  55.564  1.00  0.00    -0.061 A 
HETATM   29  C   UNL     1      30.492  43.870  55.347  1.00  0.00     0.009 A 
HETATM   30  C   UNL     1      29.708  45.857  56.693  1.00  0.00     0.048 C 
ENDBRANCH  17  20
ENDBRANCH   1  16
TORSDOF 6
ENDMDL
MODEL 2
REMARK VINA RESULT:      -9.7      1.855      2.643
REMARK  6 active torsions:
REMARK  status: ('A' for Active; 'I' for Inactive)
REMARK    1  A    between atoms: C_2  and  C_3 
REMARK    2  A    between atoms: C_3  and  N_4 
REMARK       I    between atoms: N_4  and  C_5 
REMARK    3  A    between atoms: C_5  and  C_6 
REMARK    4  A    between atoms: C_8  and  C_9 
REMARK    5  A    between atoms: C_9  and  N_10 
REMARK       I    between atoms: N_10  and  C_11 
REMARK    6  A    between atoms: C_11  and  C_12 
ROOT
HETATM    1  C   UNL     1      25.037  46.671  50.609  1.00  0.00     0.161 C 
ENDROOT
BRANCH   1   2
HETATM    2  C   UNL     1      24.790  47.865  49.730  1.00  0.00    -0.040 A 
HETATM    3  C   UNL     1      23.480  48.284  49.464  1.00  0.00     0.026 A 
HETATM    4  C   UNL     1      23.249  49.457  48.739  1.00  0.00     0.032 A 
HETATM    5  C   UNL     1      24.318  50.202  48.235  1.00  0.00     0.017 A 
HETATM    6  C   UNL     1      25.625  49.770  48.465  1.00  0.00     0.002 A 
HETATM    7  C   UNL     1      25.859  48.613  49.212  1.00  0.00     0.009 A 
BRANCH   4   8
HETATM    8  C   UNL     1      21.849  49.904  48.564  1.00  0.00     0.252 C 
HETATM    9  N   UNL     1      21.100  49.910  49.721  1.00  0.00    -0.353 N 
HETATM   10  H   UNL     1      21.525  49.531  50.558  1.00  0.00     0.163 HD
HETATM   11  O   UNL     1      21.428  50.160  47.445  1.00  0.00    -0.268 OA
BRANCH   9  12
HETATM   12  C   UNL     1      19.657  50.122  49.751  1.00  0.00     0.080 C 
HETATM   13  C   UNL     1      18.976  49.221  50.782  1.00  0.00     0.032 C 
BRANCH  12  14
HETATM   14  C   UNL     1      19.263  51.595  49.955  1.00  0.00     0.020 C 
HETATM   15  C   UNL     1      18.956  52.317  48.649  1.00  0.00     0.007 C 
ENDBRANCH  12  14
ENDBRANCH   9  12
ENDBRANCH   4   8
ENDBRANCH   1   2
BRANCH   1  16
HETATM   16  N   UNL     1      25.557  47.022  51.900  1.00  0.00    -0.351 N 
HETATM   17  C   UNL     1      25.557  46.080  52.909  1.00  0.00     0.273 C 
HETATM   18  O   UNL     1      24.950  45.017  52.824  1.00  0.00    -0.266 OA
HETATM   19  H   UNL     1      26.220  47.785  52.009  1.00  0.00     0.163 HD
BRANCH  17  20
HETATM   20  C   UNL     1      26.381  46.446  54.072  1.00  0.00     0.157 A 
HETATM   21  N   UNL     1      26.106  47.530  54.830  1.00  0.00    -0.168 NA
HETATM   22  N   UNL     1      27.078  47.521  55.761  1.00  0.00    -0.277 N 
HETATM   23  H   UNL     1      27.078  48.254  56.463  1.00  0.00     0.189 HD
HETATM   24  C   UNL     1      27.981  46.502  55.632  1.00  0.00     0.063 A 
HETATM   25  C   UNL     1      27.551  45.772  54.533  1.00  0.00     0.029 A 
HETATM   26  C   UNL     1      29.121  46.169  56.368  1.00  0.00     0.032 A 
HETATM   27  C   UNL     1      28.291  44.642  54.134  1.00  0.00     0.023 A 
HETATM   28  C   UNL     1      29.444  44.279  54.852  1.00  0.00    -0.061 A 
HETATM   29  C   UNL     1      29.847  45.044  55.951  1.00  0.00     0.009 A 
HETATM   30  C   UNL     1      30.246  43.093  54.400  1.00  0.00     0.048 C 
ENDBRANCH  17  20
ENDBRANCH   1  16
TORSDOF 6
ENDMDL
MODEL 3
REMARK VINA RESULT:      -9.1      1.254      1.331
REMARK  6 active torsions:
REMARK  status: ('A' for Active; 'I' for Inactive)
REMARK    1  A    between atoms: C_2  and  C_3 
REMARK    2  A    between atoms: C_3  and  N_4 
REMARK       I    between atoms: N_4  and  C_5 
REMARK    3  A    between atoms: C_5  and  C_6 
REMARK    4  A    between atoms: C_8  and  C_9 
REMARK    5  A    between atoms: C_9  and  N_10 
REMARK       I    between atoms: N_10  and  C_11 
REMARK    6  A    between atoms: C_11  and  C_12 
ROOT
HETATM    1  C   UNL     1      24.752  44.884  51.030  1.00  0.00     0.161 C 
ENDROOT
BRANCH   1   2
HETATM    2  C   UNL     1      25.049  46.177  50.324  1.00  0.00    -0.040 A 
HETATM    3  C   UNL     1      24.007  46.930  49.767  1.00  0.00     0.026 A 
HETATM    4  C   UNL     1      24.266  48.185  49.207  1.00  0.00     0.032 A 
HETATM    5  C   UNL     1      25.570  48.685  49.159  1.00  0.00     0.017 A 
HETATM    6  C   UNL     1      26.617  47.924  49.679  1.00  0.00     0.002 A 
HETATM    7  C   UNL     1      26.358  46.682  50.263  1.00  0.00     0.009 A 
BRANCH   4   8
HETATM    8  C   UNL     1      23.119  48.979  48.714  1.00  0.00     0.252 C 
HETATM    9  N   UNL     1      22.082  49.108  49.614  1.00  0.00    -0.353 N 
HETATM   10  H   UNL     1      22.144  48.588  50.480  1.00  0.00     0.163 HD
HETATM   11  O   UNL     1      23.115  49.394  47.564  1.00  0.00    -0.268 OA
BRANCH   9  12
HETATM   12  C   UNL     1      20.781  49.673  49.275  1.00  0.00     0.080 C 
HETATM   13  C   UNL     1      19.636  48.781  49.754  1.00  0.00     0.032 C 
BRANCH  12  14
HETATM   14  C   UNL     1      20.600  51.120  49.767  1.00  0.00     0.020 C 
HETATM   15  C   UNL     1      19.166  51.617  49.642  1.00  0.00     0.007 C 
ENDBRANCH  12  14
ENDBRANCH   9  12
ENDBRANCH   4   8
ENDBRANCH   1   2
BRANCH   1  16
HETATM   16  N   UNL     1      25.884  44.359  51.740  1.00  0.00    -0.351 N 
HETATM   17  C   UNL     1      26.281  43.056  51.512  1.00  0.00     0.273 C 
HETATM   18  O   UNL     1      25.595  42.254  50.886  1.00  0.00    -0.266 OA
HETATM   19  H   UNL     1      26.595  44.975  52.124  1.00  0.00     0.163 HD
BRANCH  17  20
HETATM   20  C   UNL     1      27.611  42.731  52.051  1.00  0.00     0.157 A 
HETATM   21  N   UNL     1      28.354  41.717  51.556  1.00  0.00    -0.168 NA
HETATM   22  N   UNL     1      29.468  41.741  52.312  1.00  0.00    -0.277 N 
HETATM   23  H   UNL     1      30.194  41.060  52.119  1.00  0.00     0.189 HD
HETATM   24  C   UNL     1      29.475  42.704  53.283  1.00  0.00     0.063 A 
HETATM   25  C   UNL     1      28.271  43.377  53.138  1.00  0.00     0.029 A 
HETATM   26  C   UNL     1      30.416  43.030  54.263  1.00  0.00     0.032 A 
HETATM   27  C   UNL     1      27.974  44.439  54.015  1.00  0.00     0.023 A 
HETATM   28  C   UNL     1      28.898  44.793  55.014  1.00  0.00    -0.061 A 
HETATM   29  C   UNL     1      30.100  44.086  55.129  1.00  0.00     0.009 A 
HETATM   30  C   UNL     1      28.560  45.904  55.965  1.00  0.00     0.048 C 
ENDBRANCH  17  20
ENDBRANCH   1  16
TORSDOF 6
ENDMDL
MODEL 4
REMARK VINA RESULT:      -8.8      3.090      5.591
REMARK  6 active torsions:
REMARK  status: ('A' for Active; 'I' for Inactive)
REMARK    1  A    between atoms: C_2  and  C_3 
REMARK    2  A    between atoms: C_3  and  N_4 
REMARK       I    between atoms: N_4  and  C_5 
REMARK    3  A    between atoms: C_5  and  C_6 
REMARK    4  A    between atoms: C_8  and  C_9 
REMARK    5  A    between atoms: C_9  and  N_10 
REMARK       I    between atoms: N_10  and  C_11 
REMARK    6  A    between atoms: C_11  and  C_12 
ROOT
HETATM    1  C   UNL     1      28.363  41.045  52.608  1.00  0.00     0.161 C 
ENDROOT
BRANCH   1   2
HETATM    2  C   UNL     1      27.387  41.608  51.613  1.00  0.00    -0.040 A 
HETATM    3  C   UNL     1      27.412  42.972  51.297  1.00  0.00     0.026 A 
HETATM    4  C   UNL     1      26.580  43.478  50.293  1.00  0.00     0.032 A 
HETATM    5  C   UNL     1      25.686  42.639  49.622  1.00  0.00     0.017 A 
HETATM    6  C   UNL     1      25.631  41.287  49.958  1.00  0.00     0.002 A 
HETATM    7  C   UNL     1      26.479  40.773  50.942  1.00  0.00     0.009 A 
BRANCH   4   8
HETATM    8  C   UNL     1      26.711  44.908  49.934  1.00  0.00     0.252 C 
HETATM    9  N   UNL     1      25.559  45.647  50.092  1.00  0.00    -0.353 N 
HETATM   10  H   UNL     1      24.713  45.151  50.345  1.00  0.00     0.163 HD
HETATM   11  O   UNL     1      27.762  45.323  49.466  1.00  0.00    -0.268 OA
BRANCH   9  12
HETATM   12  C   UNL     1      25.403  47.017  49.617  1.00  0.00     0.080 C 
HETATM   13  C   UNL     1      23.977  47.527  49.821  1.00  0.00     0.032 C 
BRANCH  12  14
HETATM   14  C   UNL     1      26.432  47.991  50.219  1.00  0.00     0.020 C 
HETATM   15  C   UNL     1      27.185  48.790  49.164  1.00  0.00     0.007 C 
ENDBRANCH  12  14
ENDBRANCH   9  12
ENDBRANCH   4   8
ENDBRANCH   1   2
BRANCH   1  16
HETATM   16  N   UNL     1      28.587  41.915  53.728  1.00  0.00    -0.351 N 
HETATM   17  C   UNL     1      29.726  42.696  53.761  1.00  0.00     0.273 C 
HETATM   18  O   UNL     1      30.661  42.539  52.981  1.00  0.00    -0.266 OA
HETATM   19  H   UNL     1      27.816  42.236  54.306  1.00  0.00     0.163 HD
BRANCH  17  20
HETATM   20  C   UNL     1      29.698  43.755  54.782  1.00  0.00     0.157 A 
HETATM   21  N   UNL     1      30.553  43.761  55.828  1.00  0.00    -0.168 NA
HETATM   22  N   UNL     1      30.200  44.861  56.521  1.00  0.00    -0.277 N 
HETATM   23  H   UNL     1      30.717  45.083  57.364  1.00  0.00     0.189 HD
HETATM   24  C   UNL     1      29.147  45.553  55.990  1.00  0.00     0.063 A 
HETATM   25  C   UNL     1      28.794  44.856  54.843  1.00  0.00     0.029 A 
HETATM   26  C   UNL     1      28.482  46.706  56.415  1.00  0.00     0.032 A 
HETATM   27  C   UNL     1      27.717  45.325  54.066  1.00  0.00     0.023 A 
HETATM   28  C   UNL     1      27.025  46.483  54.465  1.00  0.00    -0.061 A 
HETATM   29  C   UNL     1      27.410  47.154  55.631  1.00  0.00     0.009 A 
HETATM   30  C   UNL     1      25.857  46.957  53.650  1.00  0.00     0.048 C 
ENDBRANCH  17  20
ENDBRANCH   1  16
TORSDOF 6
ENDMDL
MODEL 5
REMARK VINA RESULT:      -8.4      2.387      3.437
REMARK  6 active torsions:
REMARK  status: ('A' for Active; 'I' for Inactive)
REMARK    1  A    between atoms: C_2  and  C_3 
REMARK    2  A    between atoms: C_3  and  N_4 
REMARK       I    between atoms: N_4  and  C_5 
REMARK    3  A    between atoms: C_5  and  C_6 
REMARK    4  A    between atoms: C_8  and  C_9 
REMARK    5  A    between atoms: C_9  and  N_10 
REMARK       I    between atoms: N_10  and  C_11 
REMARK    6  A    between atoms: C_11  and  C_12 
ROOT
HETATM    1  C   UNL     1      24.439  44.944  49.776  1.00  0.00     0.161 C 
ENDROOT
BRANCH   1   2
HETATM    2  C   UNL     1      23.163  45.446  49.159  1.00  0.00    -0.040 A 
HETATM    3  C   UNL     1      23.002  46.811  48.890  1.00  0.00     0.026 A 
HETATM    4  C   UNL     1      21.864  47.267  48.218  1.00  0.00     0.032 A 
HETATM    5  C   UNL     1      20.856  46.374  47.842  1.00  0.00     0.017 A 
HETATM    6  C   UNL     1      20.994  45.018  48.140  1.00  0.00     0.002 A 
HETATM    7  C   UNL     1      22.143  44.556  48.789  1.00  0.00     0.009 A 
BRANCH   4   8
HETATM    8  C   UNL     1      21.784  48.704  47.877  1.00  0.00     0.252 C 
HETATM    9  N   UNL     1      20.526  49.254  47.996  1.00  0.00    -0.353 N 
HETATM   10  H   UNL     1      19.759  48.630  48.211  1.00  0.00     0.163 HD
HETATM   11  O   UNL     1      22.774  49.284  47.453  1.00  0.00    -0.268 OA
BRANCH   9  12
HETATM   12  C   UNL     1      20.178  50.591  47.526  1.00  0.00     0.080 C 
HETATM   13  C   UNL     1      19.105  50.544  46.439  1.00  0.00     0.032 C 
BRANCH  12  14
HETATM   14  C   UNL     1      19.776  51.548  48.662  1.00  0.00     0.020 C 
HETATM   15  C   UNL     1      20.425  51.198  49.995  1.00  0.00     0.007 C 
ENDBRANCH  12  14
ENDBRANCH   9  12
ENDBRANCH   4   8
ENDBRANCH   1   2
BRANCH   1  16
HETATM   16  N   UNL     1      24.903  45.768  50.856  1.00  0.00    -0.351 N 
HETATM   17  C   UNL     1      25.022  45.224  52.120  1.00  0.00     0.273 C 
HETATM   18  O   UNL     1      24.560  44.125  52.415  1.00  0.00    -0.266 OA
HETATM   19  H   UNL     1      25.459  46.600  50.681  1.00  0.00     0.163 HD
BRANCH  17  20
HETATM   20  C   UNL     1      25.784  46.057  53.062  1.00  0.00     0.157 A 
HETATM   21  N   UNL     1      25.454  47.343  53.308  1.00  0.00    -0.168 NA
HETATM   22  N   UNL     1      26.383  47.746  54.196  1.00  0.00    -0.277 N 
HETATM   23  H   UNL     1      26.336  48.698  54.541  1.00  0.00     0.189 HD
HETATM   24  C   UNL     1      27.310  46.794  54.519  1.00  0.00     0.063 A 
HETATM   25  C   UNL     1      26.945  45.668  53.795  1.00  0.00     0.029 A 
HETATM   26  C   UNL     1      28.422  46.828  55.365  1.00  0.00     0.032 A 
HETATM   27  C   UNL     1      27.725  44.501  53.912  1.00  0.00     0.023 A 
HETATM   28  C   UNL     1      28.852  44.500  54.753  1.00  0.00    -0.061 A 
HETATM   29  C   UNL     1      29.188  45.658  55.463  1.00  0.00     0.009 A 
HETATM   30  C   UNL     1      29.697  43.263  54.846  1.00  0.00     0.048 C 
ENDBRANCH  17  20
ENDBRANCH   1  16
TORSDOF 6
ENDMDL
MODEL 6
REMARK VINA RESULT:      -8.3      2.035      2.471
REMARK  6 active torsions:
REMARK  status: ('A' for Active; 'I' for Inactive)
REMARK    1  A    between atoms: C_2  and  C_3 
REMARK    2  A    between atoms: C_3  and  N_4 
REMARK       I    between atoms: N_4  and  C_5 
REMARK    3  A    between atoms: C_5  and  C_6 
REMARK    4  A    between atoms: C_8  and  C_9 
REMARK    5  A    between atoms: C_9  and  N_10 
REMARK       I    between atoms: N_10  and  C_11 
REMARK    6  A    between atoms: C_11  and  C_12 
ROOT
HETATM    1  C   UNL     1      24.145  43.613  49.712  1.00  0.00     0.161 C 
ENDROOT
BRANCH   1   2
HETATM    2  C   UNL     1      24.289  45.109  49.715  1.00  0.00    -0.040 A 
HETATM    3  C   UNL     1      23.299  45.913  49.135  1.00  0.00     0.026 A 
HETATM    4  C   UNL     1      23.375  47.305  49.233  1.00  0.00     0.032 A 
HETATM    5  C   UNL     1      24.458  47.914  49.873  1.00  0.00     0.017 A 
HETATM    6  C   UNL     1      25.466  47.120  50.420  1.00  0.00     0.002 A 
HETATM    7  C   UNL     1      25.380  45.727  50.347  1.00  0.00     0.009 A 
BRANCH   4   8
HETATM    8  C   UNL     1      22.257  48.104  48.684  1.00  0.00     0.252 C 
HETATM    9  N   UNL     1      21.370  48.576  49.628  1.00  0.00    -0.353 N 
HETATM   10  H   UNL     1      21.496  48.270  50.585  1.00  0.00     0.163 HD
HETATM   11  O   UNL     1      22.140  48.235  47.474  1.00  0.00    -0.268 OA
BRANCH   9  12
HETATM   12  C   UNL     1      20.099  49.211  49.300  1.00  0.00     0.080 C 
HETATM   13  C   UNL     1      18.917  48.447  49.897  1.00  0.00     0.032 C 
BRANCH  12  14
HETATM   14  C   UNL     1      20.047  50.701  49.682  1.00  0.00     0.020 C 
HETATM   15  C   UNL     1      20.499  51.621  48.556  1.00  0.00     0.007 C 
ENDBRANCH  12  14
ENDBRANCH   9  12
ENDBRANCH   4   8
ENDBRANCH   1   2
BRANCH   1  16
HETATM   16  N   UNL     1      25.007  42.964  50.659  1.00  0.00    -0.351 N 
HETATM   17  C   UNL     1      26.218  42.455  50.234  1.00  0.00     0.273 C 
HETATM   18  O   UNL     1      26.512  42.346  49.047  1.00  0.00    -0.266 OA
HETATM   19  H   UNL     1      24.937  43.160  51.654  1.00  0.00     0.163 HD
BRANCH  17  20
HETATM   20  C   UNL     1      27.136  42.096  51.326  1.00  0.00     0.157 A 
HETATM   21  N   UNL     1      27.648  40.852  51.450  1.00  0.00    -0.168 NA
HETATM   22  N   UNL     1      28.410  40.931  52.557  1.00  0.00    -0.277 N 
HETATM   23  H   UNL     1      28.912  40.102  52.855  1.00  0.00     0.189 HD
HETATM   24  C   UNL     1      28.401  42.155  53.168  1.00  0.00     0.063 A 
HETATM   25  C   UNL     1      27.576  42.948  52.383  1.00  0.00     0.029 A 
HETATM   26  C   UNL     1      29.029  42.622  54.326  1.00  0.00     0.032 A 
HETATM   27  C   UNL     1      27.355  44.286  52.763  1.00  0.00     0.023 A 
HETATM   28  C   UNL     1      27.971  44.789  53.922  1.00  0.00    -0.061 A 
HETATM   29  C   UNL     1      28.792  43.955  54.689  1.00  0.00     0.009 A 
HETATM   30  C   UNL     1      27.704  46.207  54.338  1.00  0.00     0.048 C 
ENDBRANCH  17  20
ENDBRANCH   1  16
TORSDOF 6
ENDMDL
MODEL 7
REMARK VINA RESULT:      -8.3      3.683      5.060
REMARK  6 active torsions:
REMARK  status: ('A' for Active; 'I' for Inactive)
REMARK    1  A    between atoms: C_2  and  C_3 
REMARK    2  A    between atoms: C_3  and  N_4 
REMARK       I    between atoms: N_4  and  C_5 
REMARK    3  A    between atoms: C_5  and  C_6 
REMARK    4  A    between atoms: C_8  and  C_9 
REMARK    5  A    between atoms: C_9  and  N_10 
REMARK       I    between atoms: N_10  and  C_11 
REMARK    6  A    between atoms: C_11  and  C_12 
ROOT
HETATM    1  C   UNL     1      24.363  43.020  50.831  1.00  0.00     0.161 C 
ENDROOT
BRANCH   1   2
HETATM    2  C   UNL     1      24.797  44.387  51.283  1.00  0.00    -0.040 A 
HETATM    3  C   UNL     1      24.580  45.502  50.462  1.00  0.00     0.026 A 
HETATM    4  C   UNL     1      24.882  46.786  50.925  1.00  0.00     0.032 A 
HETATM    5  C   UNL     1      25.441  46.972  52.192  1.00  0.00     0.017 A 
HETATM    6  C   UNL     1      25.694  45.862  52.999  1.00  0.00     0.002 A 
HETATM    7  C   UNL     1      25.369  44.580  52.550  1.00  0.00     0.009 A 
BRANCH   4   8
HETATM    8  C   UNL     1      24.548  47.936  50.055  1.00  0.00     0.252 C 
HETATM    9  N   UNL     1      23.209  48.056  49.750  1.00  0.00    -0.353 N 
HETATM   10  H   UNL     1      22.589  47.318  50.060  1.00  0.00     0.163 HD
HETATM   11  O   UNL     1      25.442  48.641  49.609  1.00  0.00    -0.268 OA
BRANCH   9  12
HETATM   12  C   UNL     1      22.683  48.987  48.759  1.00  0.00     0.080 C 
HETATM   13  C   UNL     1      21.448  48.425  48.056  1.00  0.00     0.032 C 
BRANCH  12  14
HETATM   14  C   UNL     1      22.408  50.390  49.328  1.00  0.00     0.020 C 
HETATM   15  C   UNL     1      21.331  51.145  48.560  1.00  0.00     0.007 C 
ENDBRANCH  12  14
ENDBRANCH   9  12
ENDBRANCH   4   8
ENDBRANCH   1   2
BRANCH   1  16
HETATM   16  N   UNL     1      25.333  42.001  51.115  1.00  0.00    -0.351 N 
HETATM   17  C   UNL     1      26.396  41.819  50.252  1.00  0.00     0.273 C 
HETATM   18  O   UNL     1      26.448  42.347  49.144  1.00  0.00    -0.266 OA
HETATM   19  H   UNL     1      25.469  41.653  52.060  1.00  0.00     0.163 HD
BRANCH  17  20
HETATM   20  C   UNL     1      27.471  40.975  50.793  1.00  0.00     0.157 A 
HETATM   21  N   UNL     1      27.986  41.176  52.026  1.00  0.00    -0.168 NA
HETATM   22  N   UNL     1      28.933  40.225  52.134  1.00  0.00    -0.277 N 
HETATM   23  H   UNL     1      29.465  40.172  52.996  1.00  0.00     0.189 HD
HETATM   24  C   UNL     1      29.073  39.434  51.027  1.00  0.00     0.063 A 
HETATM   25  C   UNL     1      28.124  39.896  50.127  1.00  0.00     0.029 A 
HETATM   26  C   UNL     1      29.941  38.376  50.743  1.00  0.00     0.032 A 
HETATM   27  C   UNL     1      28.025  39.277  48.865  1.00  0.00     0.023 A 
HETATM   28  C   UNL     1      28.883  38.210  48.546  1.00  0.00    -0.061 A 
HETATM   29  C   UNL     1      29.830  37.777  49.481  1.00  0.00     0.009 A 
HETATM   30  C   UNL     1      28.793  37.577  47.188  1.00  0.00     0.048 C 
ENDBRANCH  17  20
ENDBRANCH   1  16
TORSDOF 6
ENDMDL
MODEL 8
REMARK VINA RESULT:      -8.2      2.842      5.260
REMARK  6 active torsions:
REMARK  status: ('A' for Active; 'I' for Inactive)
REMARK    1  A    between atoms: C_2  and  C_3 
REMARK    2  A    between atoms: C_3  and  N_4 
REMARK       I    between atoms: N_4  and  C_5 
REMARK    3  A    between atoms: C_5  and  C_6 
REMARK    4  A    between atoms: C_8  and  C_9 
REMARK    5  A    between atoms: C_9  and  N_10 
REMARK       I    between atoms: N_10  and  C_11 
REMARK    6  A    between atoms: C_11  and  C_12 
ROOT
HETATM    1  C   UNL     1      28.101  41.229  51.007  1.00  0.00     0.161 C 
ENDROOT
BRANCH   1   2
HETATM    2  C   UNL     1      26.790  41.392  50.290  1.00  0.00    -0.040 A 
HETATM    3  C   UNL     1      25.977  42.502  50.554  1.00  0.00     0.026 A 
HETATM    4  C   UNL     1      24.811  42.713  49.811  1.00  0.00     0.032 A 
HETATM    5  C   UNL     1      24.421  41.802  48.826  1.00  0.00     0.017 A 
HETATM    6  C   UNL     1      25.208  40.676  48.584  1.00  0.00     0.002 A 
HETATM    7  C   UNL     1      26.387  40.475  49.306  1.00  0.00     0.009 A 
BRANCH   4   8
HETATM    8  C   UNL     1      24.037  43.948  50.067  1.00  0.00     0.252 C 
HETATM    9  N   UNL     1      24.623  45.102  49.594  1.00  0.00    -0.353 N 
HETATM   10  H   UNL     1      25.554  45.030  49.201  1.00  0.00     0.163 HD
HETATM   11  O   UNL     1      23.005  43.894  50.721  1.00  0.00    -0.268 OA
BRANCH   9  12
HETATM   12  C   UNL     1      24.141  46.443  49.904  1.00  0.00     0.080 C 
HETATM   13  C   UNL     1      25.294  47.427  50.096  1.00  0.00     0.032 C 
BRANCH  12  14
HETATM   14  C   UNL     1      23.122  46.975  48.881  1.00  0.00     0.020 C 
HETATM   15  C   UNL     1      23.210  48.482  48.679  1.00  0.00     0.007 C 
ENDBRANCH  12  14
ENDBRANCH   9  12
ENDBRANCH   4   8
ENDBRANCH   1   2
BRANCH   1  16
HETATM   16  N   UNL     1      28.365  42.285  51.942  1.00  0.00    -0.351 N 
HETATM   17  C   UNL     1      28.327  42.015  53.296  1.00  0.00     0.273 C 
HETATM   18  O   UNL     1      27.880  40.967  53.751  1.00  0.00    -0.266 OA
HETATM   19  H   UNL     1      28.900  43.105  51.672  1.00  0.00     0.163 HD
BRANCH  17  20
HETATM   20  C   UNL     1      28.905  43.076  54.136  1.00  0.00     0.157 A 
HETATM   21  N   UNL     1      30.013  42.872  54.882  1.00  0.00    -0.168 NA
HETATM   22  N   UNL     1      30.203  44.055  55.497  1.00  0.00    -0.277 N 
HETATM   23  H   UNL     1      30.997  44.150  56.121  1.00  0.00     0.189 HD
HETATM   24  C   UNL     1      29.263  45.005  55.207  1.00  0.00     0.063 A 
HETATM   25  C   UNL     1      28.395  44.397  54.310  1.00  0.00     0.029 A 
HETATM   26  C   UNL     1      29.099  46.319  55.652  1.00  0.00     0.032 A 
HETATM   27  C   UNL     1      27.296  45.131  53.822  1.00  0.00     0.023 A 
HETATM   28  C   UNL     1      27.101  46.456  54.249  1.00  0.00    -0.061 A 
HETATM   29  C   UNL     1      27.997  47.030  55.158  1.00  0.00     0.009 A 
HETATM   30  C   UNL     1      25.910  47.220  53.750  1.00  0.00     0.048 C 
ENDBRANCH  17  20
ENDBRANCH   1  16
TORSDOF 6
ENDMDL
MODEL 9
REMARK VINA RESULT:      -8.2      3.121     10.036
REMARK  6 active torsions:
REMARK  status: ('A' for Active; 'I' for Inactive)
REMARK    1  A    between atoms: C_2  and  C_3 
REMARK    2  A    between atoms: C_3  and  N_4 
REMARK       I    between atoms: N_4  and  C_5 
REMARK    3  A    between atoms: C_5  and  C_6 
REMARK    4  A    between atoms: C_8  and  C_9 
REMARK    5  A    between atoms: C_9  and  N_10 
REMARK       I    between atoms: N_10  and  C_11 
REMARK    6  A    between atoms: C_11  and  C_12 
ROOT
HETATM    1  C   UNL     1      23.010  44.593  49.153  1.00  0.00     0.161 C 
ENDROOT
BRANCH   1   2
HETATM    2  C   UNL     1      23.909  45.383  50.063  1.00  0.00    -0.040 A 
HETATM    3  C   UNL     1      24.316  44.846  51.291  1.00  0.00     0.026 A 
HETATM    4  C   UNL     1      25.238  45.530  52.088  1.00  0.00     0.032 A 
HETATM    5  C   UNL     1      25.734  46.775  51.691  1.00  0.00     0.017 A 
HETATM    6  C   UNL     1      25.305  47.332  50.486  1.00  0.00     0.002 A 
HETATM    7  C   UNL     1      24.403  46.638  49.675  1.00  0.00     0.009 A 
BRANCH   4   8
HETATM    8  C   UNL     1      25.704  44.877  53.332  1.00  0.00     0.252 C 
HETATM    9  N   UNL     1      27.071  44.884  53.507  1.00  0.00    -0.353 N 
HETATM   10  H   UNL     1      27.640  45.243  52.750  1.00  0.00     0.163 HD
HETATM   11  O   UNL     1      24.898  44.323  54.066  1.00  0.00    -0.268 OA
BRANCH   9  12
HETATM   12  C   UNL     1      27.759  44.132  54.550  1.00  0.00     0.080 C 
HETATM   13  C   UNL     1      28.113  42.719  54.085  1.00  0.00     0.032 C 
BRANCH  12  14
HETATM   14  C   UNL     1      28.995  44.858  55.109  1.00  0.00     0.020 C 
HETATM   15  C   UNL     1      28.735  46.328  55.414  1.00  0.00     0.007 C 
ENDBRANCH  12  14
ENDBRANCH   9  12
ENDBRANCH   4   8
ENDBRANCH   1   2
BRANCH   1  16
HETATM   16  N   UNL     1      21.633  44.991  49.240  1.00  0.00    -0.351 N 
HETATM   17  C   UNL     1      21.075  45.725  48.213  1.00  0.00     0.273 C 
HETATM   18  O   UNL     1      21.746  46.232  47.319  1.00  0.00    -0.266 OA
HETATM   19  H   UNL     1      20.976  44.486  49.828  1.00  0.00     0.163 HD
BRANCH  17  20
HETATM   20  C   UNL     1      19.607  45.810  48.264  1.00  0.00     0.157 A 
HETATM   21  N   UNL     1      18.826  44.708  48.233  1.00  0.00    -0.168 NA
HETATM   22  N   UNL     1      17.575  45.203  48.285  1.00  0.00    -0.277 N 
HETATM   23  H   UNL     1      16.799  44.550  48.280  1.00  0.00     0.189 HD
HETATM   24  C   UNL     1      17.506  46.568  48.324  1.00  0.00     0.063 A 
HETATM   25  C   UNL     1      18.824  47.001  48.316  1.00  0.00     0.029 A 
HETATM   26  C   UNL     1      16.417  47.444  48.358  1.00  0.00     0.032 A 
HETATM   27  C   UNL     1      19.087  48.385  48.342  1.00  0.00     0.023 A 
HETATM   28  C   UNL     1      18.015  49.294  48.376  1.00  0.00    -0.061 A 
HETATM   29  C   UNL     1      16.700  48.817  48.379  1.00  0.00     0.009 A 
HETATM   30  C   UNL     1      18.303  50.767  48.371  1.00  0.00     0.048 C 
ENDBRANCH  17  20
ENDBRANCH   1  16
TORSDOF 6
ENDMDL
MODEL 10
REMARK VINA RESULT:      -8.2      1.696     10.175
REMARK  6 active torsions:
REMARK  status: ('A' for Active; 'I' for Inactive)
REMARK    1  A    between atoms: C_2  and  C_3 
REMARK    2  A    between atoms: C_3  and  N_4 
REMARK       I    between atoms: N_4  and  C_5 
REMARK    3  A    between atoms: C_5  and  C_6 
REMARK    4  A    between atoms: C_8  and  C_9 
REMARK    5  A    between atoms: C_9  and  N_10 
REMARK       I    between atoms: N_10  and  C_11 
REMARK    6  A    between atoms: C_11  and  C_12 
ROOT
HETATM    1  C   UNL     1      25.239  48.182  49.208  1.00  0.00     0.161 C 
ENDROOT
BRANCH   1   2
HETATM    2  C   UNL     1      25.108  46.967  50.084  1.00  0.00    -0.040 A 
HETATM    3  C   UNL     1      25.784  46.907  51.310  1.00  0.00     0.026 A 
HETATM    4  C   UNL     1      25.578  45.829  52.175  1.00  0.00     0.032 A 
HETATM    5  C   UNL     1      24.729  44.779  51.813  1.00  0.00     0.017 A 
HETATM    6  C   UNL     1      24.082  44.815  50.577  1.00  0.00     0.002 A 
HETATM    7  C   UNL     1      24.266  45.904  49.721  1.00  0.00     0.009 A 
BRANCH   4   8
HETATM    8  C   UNL     1      26.244  45.858  53.496  1.00  0.00     0.252 C 
HETATM    9  N   UNL     1      27.455  45.202  53.544  1.00  0.00    -0.353 N 
HETATM   10  H   UNL     1      27.742  44.687  52.721  1.00  0.00     0.163 HD
HETATM   11  O   UNL     1      25.678  46.372  54.451  1.00  0.00    -0.268 OA
BRANCH   9  12
HETATM   12  C   UNL     1      28.185  44.936  54.778  1.00  0.00     0.080 C 
HETATM   13  C   UNL     1      29.147  43.758  54.621  1.00  0.00     0.032 C 
BRANCH  12  14
HETATM   14  C   UNL     1      28.909  46.174  55.335  1.00  0.00     0.020 C 
HETATM   15  C   UNL     1      30.054  45.822  56.277  1.00  0.00     0.007 C 
ENDBRANCH  12  14
ENDBRANCH   9  12
ENDBRANCH   4   8
ENDBRANCH   1   2
BRANCH   1  16
HETATM   16  N   UNL     1      24.255  49.188  49.492  1.00  0.00    -0.351 N 
HETATM   17  C   UNL     1      23.120  49.265  48.709  1.00  0.00     0.273 C 
HETATM   18  O   UNL     1      23.000  48.650  47.654  1.00  0.00    -0.266 OA
HETATM   19  H   UNL     1      24.181  49.604  50.416  1.00  0.00     0.163 HD
BRANCH  17  20
HETATM   20  C   UNL     1      22.059  50.113  49.273  1.00  0.00     0.157 A 
HETATM   21  N   UNL     1      22.096  50.551  50.550  1.00  0.00    -0.168 NA
HETATM   22  N   UNL     1      20.963  51.268  50.674  1.00  0.00    -0.277 N 
HETATM   23  H   UNL     1      20.769  51.711  51.565  1.00  0.00     0.189 HD
HETATM   24  C   UNL     1      20.183  51.298  49.550  1.00  0.00     0.063 A 
HETATM   25  C   UNL     1      20.876  50.552  48.607  1.00  0.00     0.029 A 
HETATM   26  C   UNL     1      18.949  51.899  49.289  1.00  0.00     0.032 A 
HETATM   27  C   UNL     1      20.316  50.388  47.325  1.00  0.00     0.023 A 
HETATM   28  C   UNL     1      19.075  50.978  47.028  1.00  0.00    -0.061 A 
HETATM   29  C   UNL     1      18.407  51.719  48.009  1.00  0.00     0.009 A 
HETATM   30  C   UNL     1      18.470  50.771  45.670  1.00  0.00     0.048 C 
ENDBRANCH  17  20
ENDBRANCH   1  16
TORSDOF 6
ENDMDL
