MODEL 1
REMARK VINA RESULT:     -10.1      0.000      0.000
REMARK  6 active torsions:
REMARK  status: ('A' for Active; 'I' for Inactive)
REMARK    1  A    between atoms: C_2  and  O_3 
REMARK    2  A    between atoms: C_2  and  C_4 
REMARK    3  A    between atoms: C_6  and  N_7 
REMARK       I    between atoms: N_7  and  C_8 
REMARK    4  A    between atoms: C_8  and  C_9 
REMARK    5  A    between atoms: C_12  and  C_13 
REMARK    6  A    between atoms: C_18  and  C_19 
ROOT
HETATM    1  C   UNL     1      25.397  45.020  51.002  1.00  0.00     0.096 C 
HETATM    2  C   UNL     1      26.272  44.328  51.818  1.00  0.00     0.138 C 
HETATM    3  N   UNL     1      26.232  43.020  51.388  1.00  0.00    -0.240 N 
HETATM    4  C   UNL     1      26.987  41.933  51.987  1.00  0.00     0.221 C 
HETATM    5  C   UNL     1      28.102  42.482  52.897  1.00  0.00     0.066 C 
HETATM    6  C   UNL     1      27.569  43.640  53.748  1.00  0.00     0.118 C 
HETATM    7  N   UNL     1      27.061  44.698  52.865  1.00  0.00    -0.365 N 
HETATM    8  N   UNL     1      25.266  42.787  50.487  1.00  0.00    -0.181 NA
HETATM    9  C   UNL     1      24.785  44.006  50.227  1.00  0.00     0.160 C 
HETATM   10  H   UNL     1      26.778  45.519  53.406  1.00  0.00     0.161 HD
ENDROOT
BRANCH   1  11
HETATM   11  C   UNL     1      25.108  46.445  50.947  1.00  0.00     0.261 C 
HETATM   12  N   UNL     1      24.474  46.830  49.780  1.00  0.00    -0.323 N 
HETATM   13  H   UNL     1      24.210  46.072  49.160  1.00  0.00     0.169 HD
HETATM   14  O   UNL     1      25.391  47.172  51.891  1.00  0.00    -0.267 OA
BRANCH  12  15
HETATM   15  C   UNL     1      24.066  48.124  49.402  1.00  0.00     0.035 A 
HETATM   16  C   UNL     1      22.768  48.613  49.574  1.00  0.00     0.039 A 
HETATM   17  C   UNL     1      22.424  49.914  49.165  1.00  0.00    -0.028 A 
HETATM   18  C   UNL     1      23.404  50.720  48.570  1.00  0.00     0.010 A 
HETATM   19  C   UNL     1      24.703  50.245  48.406  1.00  0.00     0.003 A 
HETATM   20  C   UNL     1      25.032  48.955  48.824  1.00  0.00     0.029 A 
BRANCH  17  21
HETATM   21  C   UNL     1      21.002  50.406  49.341  1.00  0.00     0.147 C 
HETATM   22  C   UNL     1      20.697  51.600  48.449  1.00  0.00     0.044 C 
BRANCH  21  23
HETATM   23  O   UNL     1      20.767  50.772  50.700  1.00  0.00    -0.391 OA
HETATM   24  H   UNL     1      20.029  50.221  51.013  1.00  0.00     0.210 HD
ENDBRANCH  21  23
ENDBRANCH  17  21
ENDBRANCH  12  15
ENDBRANCH   1  11
BRANCH   4  25
HETATM   25  C   UNL     1      27.593  41.025  50.938  1.00  0.00     0.409 C 
HETATM   26  F   UNL     1      26.767  40.042  50.529  1.00  0.00    -0.169 F 
HETATM   27  F   UNL     1      28.015  41.707  49.849  1.00  0.00    -0.169 F 
HETATM   28  F   UNL     1      28.689  40.404  51.455  1.00  0.00    -0.169 F 
ENDBRANCH   4  25
BRANCH   6  29
HETATM   29  C   UNL     1      28.637  44.214  54.658  1.00  0.00    -0.035 A 
HETATM   30  C   UNL     1      28.492  45.481  55.248  1.00  0.00     0.009 A 
HETATM   31  C   UNL     1      29.489  46.001  56.074  1.00  0.00     0.001 A 
HETATM   32  C   UNL     1      30.643  45.261  56.324  1.00  0.00     0.000 A 
HETATM   33  C   UNL     1      30.800  44.001  55.751  1.00  0.00     0.001 A 
HETATM   34  C   UNL     1      29.803  43.480  54.923  1.00  0.00     0.009 A 
ENDBRANCH   6  29
TORSDOF 6
ENDMDL
MODEL 2
REMARK VINA RESULT:     -10.0      1.361      2.077
REMARK  6 active torsions:
REMARK  status: ('A' for Active; 'I' for Inactive)
REMARK    1  A    between atoms: C_2  and  O_3 
REMARK    2  A    between atoms: C_2  and  C_4 
REMARK    3  A    between atoms: C_6  and  N_7 
REMARK       I    between atoms: N_7  and  C_8 
REMARK    4  A    between atoms: C_8  and  C_9 
REMARK    5  A    between atoms: C_12  and  C_13 
REMARK    6  A    between atoms: C_18  and  C_19 
ROOT
HETATM    1  C   UNL     1      25.984  44.456  50.896  1.00  0.00     0.096 C 
HETATM    2  C   UNL     1      26.806  43.766  51.768  1.00  0.00     0.138 C 
HETATM    3  N   UNL     1      26.739  42.446  51.381  1.00  0.00    -0.240 N 
HETATM    4  C   UNL     1      27.435  41.357  52.046  1.00  0.00     0.221 C 
HETATM    5  C   UNL     1      28.533  41.903  52.978  1.00  0.00     0.066 C 
HETATM    6  C   UNL     1      28.009  43.107  53.767  1.00  0.00     0.118 C 
HETATM    7  N   UNL     1      27.568  44.148  52.830  1.00  0.00    -0.365 N 
HETATM    8  N   UNL     1      25.799  42.211  50.454  1.00  0.00    -0.181 NA
HETATM    9  C   UNL     1      25.367  43.434  50.134  1.00  0.00     0.160 C 
HETATM   10  H   UNL     1      27.293  44.997  53.331  1.00  0.00     0.161 HD
ENDROOT
BRANCH   1  11
HETATM   11  C   UNL     1      25.745  45.886  50.780  1.00  0.00     0.261 C 
HETATM   12  N   UNL     1      26.358  46.457  49.681  1.00  0.00    -0.323 N 
HETATM   13  H   UNL     1      26.812  45.804  49.051  1.00  0.00     0.169 HD
HETATM   14  O   UNL     1      25.029  46.463  51.590  1.00  0.00    -0.267 OA
BRANCH  12  15
HETATM   15  C   UNL     1      26.339  47.807  49.282  1.00  0.00     0.035 A 
HETATM   16  C   UNL     1      25.182  48.493  48.901  1.00  0.00     0.039 A 
HETATM   17  C   UNL     1      25.236  49.840  48.504  1.00  0.00    -0.028 A 
HETATM   18  C   UNL     1      26.475  50.494  48.485  1.00  0.00     0.010 A 
HETATM   19  C   UNL     1      27.632  49.823  48.875  1.00  0.00     0.003 A 
HETATM   20  C   UNL     1      27.563  48.487  49.275  1.00  0.00     0.029 A 
BRANCH  17  21
HETATM   21  C   UNL     1      23.968  50.547  48.072  1.00  0.00     0.147 C 
HETATM   22  C   UNL     1      23.104  50.947  49.259  1.00  0.00     0.044 C 
BRANCH  21  23
HETATM   23  O   UNL     1      23.203  49.711  47.205  1.00  0.00    -0.391 OA
HETATM   24  H   UNL     1      22.274  49.804  47.477  1.00  0.00     0.210 HD
ENDBRANCH  21  23
ENDBRANCH  17  21
ENDBRANCH  12  15
ENDBRANCH   1  11
BRANCH   4  25
HETATM   25  C   UNL     1      28.049  40.393  51.052  1.00  0.00     0.409 C 
HETATM   26  F   UNL     1      29.080  39.683  51.552  1.00  0.00    -0.169 F 
HETATM   27  F   UNL     1      27.141  39.528  50.546  1.00  0.00    -0.169 F 
HETATM   28  F   UNL     1      28.549  41.090  49.996  1.00  0.00    -0.169 F 
ENDBRANCH   4  25
BRANCH   6  29
HETATM   29  C   UNL     1      29.061  43.679  54.696  1.00  0.00    -0.035 A 
HETATM   30  C   UNL     1      30.175  42.921  55.095  1.00  0.00     0.009 A 
HETATM   31  C   UNL     1      31.130  43.457  55.960  1.00  0.00     0.001 A 
HETATM   32  C   UNL     1      30.986  44.759  56.435  1.00  0.00     0.000 A 
HETATM   33  C   UNL     1      29.890  45.526  56.045  1.00  0.00     0.001 A 
HETATM   34  C   UNL     1      28.934  44.990  55.180  1.00  0.00     0.009 A 
ENDBRANCH   6  29
TORSDOF 6
ENDMDL
MODEL 3
REMARK VINA RESULT:      -9.6      1.600      2.066
REMARK  6 active torsions:
REMARK  status: ('A' for Active; 'I' for Inactive)
REMARK    1  A    between atoms: C_2  and  O_3 
REMARK    2  A    between atoms: C_2  and  C_4 
REMARK    3  A    between atoms: C_6  and  N_7 
REMARK       I    between atoms: N_7  and  C_8 
REMARK    4  A    between atoms: C_8  and  C_9 
REMARK    5  A    between atoms: C_12  and  C_13 
REMARK    6  A    between atoms: C_18  and  C_19 
ROOT
HETATM    1  C   UNL     1      25.209  43.452  50.685  1.00  0.00     0.096 C 
HETATM    2  C   UNL     1      26.220  42.980  51.502  1.00  0.00     0.138 C 
HETATM    3  N   UNL     1      26.454  41.684  51.098  1.00  0.00    -0.240 N 
HETATM    4  C   UNL     1      27.429  40.796  51.708  1.00  0.00     0.221 C 
HETATM    5  C   UNL     1      28.412  41.590  52.589  1.00  0.00     0.066 C 
HETATM    6  C   UNL     1      27.655  42.628  53.425  1.00  0.00     0.118 C 
HETATM    7  N   UNL     1      26.923  43.533  52.528  1.00  0.00    -0.365 N 
HETATM    8  N   UNL     1      25.550  41.230  50.218  1.00  0.00    -0.181 NA
HETATM    9  C   UNL     1      24.818  42.313  49.940  1.00  0.00     0.160 C 
HETATM   10  H   UNL     1      26.479  44.289  53.057  1.00  0.00     0.161 HD
ENDROOT
BRANCH   1  11
HETATM   11  C   UNL     1      24.624  44.781  50.605  1.00  0.00     0.261 C 
HETATM   12  N   UNL     1      23.974  45.022  49.409  1.00  0.00    -0.323 N 
HETATM   13  H   UNL     1      23.905  44.225  48.785  1.00  0.00     0.169 HD
HETATM   14  O   UNL     1      24.702  45.552  51.554  1.00  0.00    -0.267 OA
BRANCH  12  15
HETATM   15  C   UNL     1      23.313  46.198  49.003  1.00  0.00     0.035 A 
HETATM   16  C   UNL     1      23.911  47.461  48.981  1.00  0.00     0.039 A 
HETATM   17  C   UNL     1      23.191  48.597  48.573  1.00  0.00    -0.028 A 
HETATM   18  C   UNL     1      21.850  48.450  48.193  1.00  0.00     0.010 A 
HETATM   19  C   UNL     1      21.249  47.193  48.200  1.00  0.00     0.003 A 
HETATM   20  C   UNL     1      21.979  46.073  48.599  1.00  0.00     0.029 A 
BRANCH  17  21
HETATM   21  C   UNL     1      23.860  49.956  48.585  1.00  0.00     0.147 C 
HETATM   22  C   UNL     1      22.899  51.061  48.999  1.00  0.00     0.044 C 
BRANCH  21  23
HETATM   23  O   UNL     1      24.387  50.262  47.295  1.00  0.00    -0.391 OA
HETATM   24  H   UNL     1      23.971  51.095  47.014  1.00  0.00     0.210 HD
ENDBRANCH  21  23
ENDBRANCH  17  21
ENDBRANCH  12  15
ENDBRANCH   1  11
BRANCH   4  25
HETATM   25  C   UNL     1      28.203  40.013  50.668  1.00  0.00     0.409 C 
HETATM   26  F   UNL     1      27.510  38.986  50.136  1.00  0.00    -0.169 F 
HETATM   27  F   UNL     1      28.646  40.796  49.658  1.00  0.00    -0.169 F 
HETATM   28  F   UNL     1      29.307  39.463  51.244  1.00  0.00    -0.169 F 
ENDBRANCH   4  25
BRANCH   6  29
HETATM   29  C   UNL     1      28.586  43.437  54.306  1.00  0.00    -0.035 A 
HETATM   30  C   UNL     1      28.252  44.735  54.727  1.00  0.00     0.009 A 
HETATM   31  C   UNL     1      29.126  45.472  55.528  1.00  0.00     0.001 A 
HETATM   32  C   UNL     1      30.343  44.920  55.922  1.00  0.00     0.000 A 
HETATM   33  C   UNL     1      30.687  43.632  55.517  1.00  0.00     0.001 A 
HETATM   34  C   UNL     1      29.814  42.894  54.714  1.00  0.00     0.009 A 
ENDBRANCH   6  29
TORSDOF 6
ENDMDL
MODEL 4
REMARK VINA RESULT:      -9.5      4.630      7.527
REMARK  6 active torsions:
REMARK  status: ('A' for Active; 'I' for Inactive)
REMARK    1  A    between atoms: C_2  and  O_3 
REMARK    2  A    between atoms: C_2  and  C_4 
REMARK    3  A    between atoms: C_6  and  N_7 
REMARK       I    between atoms: N_7  and  C_8 
REMARK    4  A    between atoms: C_8  and  C_9 
REMARK    5  A    between atoms: C_12  and  C_13 
REMARK    6  A    between atoms: C_18  and  C_19 
ROOT
HETATM    1  C   UNL     1      26.065  45.366  52.578  1.00  0.00     0.096 C 
HETATM    2  C   UNL     1      26.970  45.732  53.558  1.00  0.00     0.138 C 
HETATM    3  N   UNL     1      26.677  47.041  53.869  1.00  0.00    -0.240 N 
HETATM    4  C   UNL     1      27.405  47.839  54.842  1.00  0.00     0.221 C 
HETATM    5  C   UNL     1      28.279  46.939  55.737  1.00  0.00     0.066 C 
HETATM    6  C   UNL     1      28.991  45.879  54.890  1.00  0.00     0.118 C 
HETATM    7  N   UNL     1      27.990  45.075  54.176  1.00  0.00    -0.365 N 
HETATM    8  N   UNL     1      25.784  47.597  53.037  1.00  0.00    -0.181 NA
HETATM    9  C   UNL     1      25.386  46.571  52.279  1.00  0.00     0.160 C 
HETATM   10  H   UNL     1      28.435  44.304  53.671  1.00  0.00     0.161 HD
ENDROOT
BRANCH   1  11
HETATM   11  C   UNL     1      25.854  44.073  51.945  1.00  0.00     0.261 C 
HETATM   12  N   UNL     1      26.881  43.705  51.097  1.00  0.00    -0.323 N 
HETATM   13  H   UNL     1      27.684  44.325  51.094  1.00  0.00     0.169 HD
HETATM   14  O   UNL     1      24.859  43.408  52.209  1.00  0.00    -0.267 OA
BRANCH  12  15
HETATM   15  C   UNL     1      26.989  42.532  50.325  1.00  0.00     0.035 A 
HETATM   16  C   UNL     1      27.869  41.485  50.614  1.00  0.00     0.039 A 
HETATM   17  C   UNL     1      27.934  40.345  49.795  1.00  0.00    -0.028 A 
HETATM   18  C   UNL     1      27.103  40.271  48.668  1.00  0.00     0.010 A 
HETATM   19  C   UNL     1      26.213  41.303  48.380  1.00  0.00     0.003 A 
HETATM   20  C   UNL     1      26.155  42.426  49.206  1.00  0.00     0.029 A 
BRANCH  17  21
HETATM   21  C   UNL     1      28.917  39.240  50.120  1.00  0.00     0.147 C 
HETATM   22  C   UNL     1      28.373  37.866  49.756  1.00  0.00     0.044 C 
BRANCH  21  23
HETATM   23  O   UNL     1      29.240  39.255  51.510  1.00  0.00    -0.391 OA
HETATM   24  H   UNL     1      28.720  38.546  51.925  1.00  0.00     0.210 HD
ENDBRANCH  21  23
ENDBRANCH  17  21
ENDBRANCH  12  15
ENDBRANCH   1  11
BRANCH   4  25
HETATM   25  C   UNL     1      26.471  48.658  55.707  1.00  0.00     0.409 C 
HETATM   26  F   UNL     1      25.203  48.696  55.251  1.00  0.00    -0.169 F 
HETATM   27  F   UNL     1      26.450  48.231  56.990  1.00  0.00    -0.169 F 
HETATM   28  F   UNL     1      26.899  49.950  55.736  1.00  0.00    -0.169 F 
ENDBRANCH   4  25
BRANCH   6  29
HETATM   29  C   UNL     1      29.860  44.969  55.733  1.00  0.00    -0.035 A 
HETATM   30  C   UNL     1      30.265  43.706  55.268  1.00  0.00     0.009 A 
HETATM   31  C   UNL     1      31.056  42.874  56.062  1.00  0.00     0.001 A 
HETATM   32  C   UNL     1      31.455  43.293  57.329  1.00  0.00     0.000 A 
HETATM   33  C   UNL     1      31.066  44.544  57.803  1.00  0.00     0.001 A 
HETATM   34  C   UNL     1      30.274  45.378  57.010  1.00  0.00     0.009 A 
ENDBRANCH   6  29
TORSDOF 6
ENDMDL
MODEL 5
REMARK VINA RESULT:      -9.3      4.619      7.245
REMARK  6 active torsions:
REMARK  status: ('A' for Active; 'I' for Inactive)
REMARK    1  A    between atoms: C_2  and  O_3 
REMARK    2  A    between atoms: C_2  and  C_4 
REMARK    3  A    between atoms: C_6  and  N_7 
REMARK       I    between atoms: N_7  and  C_8 
REMARK    4  A    between atoms: C_8  and  C_9 
REMARK    5  A    between atoms: C_12  and  C_13 
REMARK    6  A    between atoms: C_18  and  C_19 
ROOT
HETATM    1  C   UNL     1      26.195  45.402  52.631  1.00  0.00     0.096 C 
HETATM    2  C   UNL     1      27.063  45.783  53.638  1.00  0.00     0.138 C 
HETATM    3  N   UNL     1      26.730  47.082  53.949  1.00  0.00    -0.240 N 
HETATM    4  C   UNL     1      27.411  47.890  54.947  1.00  0.00     0.221 C 
HETATM    5  C   UNL     1      28.281  47.005  55.860  1.00  0.00     0.066 C 
HETATM    6  C   UNL     1      29.042  45.969  55.026  1.00  0.00     0.118 C 
HETATM    7  N   UNL     1      28.082  45.146  54.280  1.00  0.00    -0.365 N 
HETATM    8  N   UNL     1      25.847  47.622  53.097  1.00  0.00    -0.181 NA
HETATM    9  C   UNL     1      25.495  46.593  52.321  1.00  0.00     0.160 C 
HETATM   10  H   UNL     1      28.559  44.390  53.782  1.00  0.00     0.161 HD
ENDROOT
BRANCH   1  11
HETATM   11  C   UNL     1      26.033  44.110  51.984  1.00  0.00     0.261 C 
HETATM   12  N   UNL     1      27.197  43.635  51.410  1.00  0.00    -0.323 N 
HETATM   13  H   UNL     1      28.026  44.191  51.589  1.00  0.00     0.169 HD
HETATM   14  O   UNL     1      24.952  43.532  52.012  1.00  0.00    -0.267 OA
BRANCH  12  15
HETATM   15  C   UNL     1      27.387  42.432  50.702  1.00  0.00     0.035 A 
HETATM   16  C   UNL     1      27.041  42.254  49.359  1.00  0.00     0.039 A 
HETATM   17  C   UNL     1      27.248  41.022  48.715  1.00  0.00    -0.028 A 
HETATM   18  C   UNL     1      27.804  39.960  49.442  1.00  0.00     0.010 A 
HETATM   19  C   UNL     1      28.164  40.133  50.776  1.00  0.00     0.003 A 
HETATM   20  C   UNL     1      27.960  41.364  51.401  1.00  0.00     0.029 A 
BRANCH  17  21
HETATM   21  C   UNL     1      26.838  40.852  47.267  1.00  0.00     0.147 C 
HETATM   22  C   UNL     1      26.822  39.390  46.846  1.00  0.00     0.044 C 
BRANCH  21  23
HETATM   23  O   UNL     1      27.726  41.569  46.411  1.00  0.00    -0.391 OA
HETATM   24  H   UNL     1      28.542  41.043  46.351  1.00  0.00     0.210 HD
ENDBRANCH  21  23
ENDBRANCH  17  21
ENDBRANCH  12  15
ENDBRANCH   1  11
BRANCH   4  25
HETATM   25  C   UNL     1      26.434  48.680  55.791  1.00  0.00     0.409 C 
HETATM   26  F   UNL     1      26.366  48.265  57.072  1.00  0.00    -0.169 F 
HETATM   27  F   UNL     1      26.705  50.005  55.787  1.00  0.00    -0.169 F 
HETATM   28  F   UNL     1      25.179  48.540  55.283  1.00  0.00    -0.169 F 
ENDBRANCH   4  25
BRANCH   6  29
HETATM   29  C   UNL     1      29.910  45.073  55.887  1.00  0.00    -0.035 A 
HETATM   30  C   UNL     1      30.282  45.448  57.189  1.00  0.00     0.009 A 
HETATM   31  C   UNL     1      31.092  44.618  57.967  1.00  0.00     0.001 A 
HETATM   32  C   UNL     1      31.537  43.402  57.454  1.00  0.00     0.000 A 
HETATM   33  C   UNL     1      31.173  43.013  56.167  1.00  0.00     0.001 A 
HETATM   34  C   UNL     1      30.364  43.843  55.388  1.00  0.00     0.009 A 
ENDBRANCH   6  29
TORSDOF 6
ENDMDL
MODEL 6
REMARK VINA RESULT:      -8.7      2.765      3.570
REMARK  6 active torsions:
REMARK  status: ('A' for Active; 'I' for Inactive)
REMARK    1  A    between atoms: C_2  and  O_3 
REMARK    2  A    between atoms: C_2  and  C_4 
REMARK    3  A    between atoms: C_6  and  N_7 
REMARK       I    between atoms: N_7  and  C_8 
REMARK    4  A    between atoms: C_8  and  C_9 
REMARK    5  A    between atoms: C_12  and  C_13 
REMARK    6  A    between atoms: C_18  and  C_19 
ROOT
HETATM    1  C   UNL     1      24.560  42.269  49.695  1.00  0.00     0.096 C 
HETATM    2  C   UNL     1      25.741  41.935  50.332  1.00  0.00     0.138 C 
HETATM    3  N   UNL     1      26.251  40.861  49.638  1.00  0.00    -0.240 N 
HETATM    4  C   UNL     1      27.480  40.166  49.982  1.00  0.00     0.221 C 
HETATM    5  C   UNL     1      28.319  41.003  50.967  1.00  0.00     0.066 C 
HETATM    6  C   UNL     1      27.419  41.606  52.051  1.00  0.00     0.118 C 
HETATM    7  N   UNL     1      26.388  42.440  51.419  1.00  0.00    -0.365 N 
HETATM    8  N   UNL     1      25.401  40.365  48.726  1.00  0.00    -0.181 NA
HETATM    9  C   UNL     1      24.392  41.241  48.735  1.00  0.00     0.160 C 
HETATM   10  H   UNL     1      25.827  42.924  52.125  1.00  0.00     0.161 HD
ENDROOT
BRANCH   1  11
HETATM   11  C   UNL     1      23.651  43.377  49.944  1.00  0.00     0.261 C 
HETATM   12  N   UNL     1      23.270  44.041  48.793  1.00  0.00    -0.323 N 
HETATM   13  H   UNL     1      23.590  43.624  47.926  1.00  0.00     0.169 HD
HETATM   14  O   UNL     1      23.269  43.622  51.081  1.00  0.00    -0.267 OA
BRANCH  12  15
HETATM   15  C   UNL     1      22.415  45.155  48.678  1.00  0.00     0.035 A 
HETATM   16  C   UNL     1      21.037  45.063  48.463  1.00  0.00     0.039 A 
HETATM   17  C   UNL     1      20.242  46.216  48.348  1.00  0.00    -0.028 A 
HETATM   18  C   UNL     1      20.854  47.474  48.445  1.00  0.00     0.010 A 
HETATM   19  C   UNL     1      22.224  47.576  48.672  1.00  0.00     0.003 A 
HETATM   20  C   UNL     1      22.999  46.422  48.792  1.00  0.00     0.029 A 
BRANCH  17  21
HETATM   21  C   UNL     1      18.756  46.083  48.088  1.00  0.00     0.147 C 
HETATM   22  C   UNL     1      17.961  47.210  48.730  1.00  0.00     0.044 C 
BRANCH  21  23
HETATM   23  O   UNL     1      18.274  44.836  48.586  1.00  0.00    -0.391 OA
HETATM   24  H   UNL     1      18.796  44.141  48.151  1.00  0.00     0.210 HD
ENDBRANCH  21  23
ENDBRANCH  17  21
ENDBRANCH  12  15
ENDBRANCH   1  11
BRANCH   4  25
HETATM   25  C   UNL     1      28.309  39.850  48.756  1.00  0.00     0.409 C 
HETATM   26  F   UNL     1      29.577  39.489  49.037  1.00  0.00    -0.169 F 
HETATM   27  F   UNL     1      27.750  38.883  47.993  1.00  0.00    -0.169 F 
HETATM   28  F   UNL     1      28.399  40.958  47.971  1.00  0.00    -0.169 F 
ENDBRANCH   4  25
BRANCH   6  29
HETATM   29  C   UNL     1      28.205  42.442  53.041  1.00  0.00    -0.035 A 
HETATM   30  C   UNL     1      29.580  42.238  53.242  1.00  0.00     0.009 A 
HETATM   31  C   UNL     1      30.288  43.008  54.166  1.00  0.00     0.001 A 
HETATM   32  C   UNL     1      29.632  43.994  54.899  1.00  0.00     0.000 A 
HETATM   33  C   UNL     1      28.269  44.213  54.708  1.00  0.00     0.001 A 
HETATM   34  C   UNL     1      27.559  43.443  53.784  1.00  0.00     0.009 A 
ENDBRANCH   6  29
TORSDOF 6
ENDMDL
MODEL 7
REMARK VINA RESULT:      -8.7      3.987      7.726
REMARK  6 active torsions:
REMARK  status: ('A' for Active; 'I' for Inactive)
REMARK    1  A    between atoms: C_2  and  O_3 
REMARK    2  A    between atoms: C_2  and  C_4 
REMARK    3  A    between atoms: C_6  and  N_7 
REMARK       I    between atoms: N_7  and  C_8 
REMARK    4  A    between atoms: C_8  and  C_9 
REMARK    5  A    between atoms: C_12  and  C_13 
REMARK    6  A    between atoms: C_18  and  C_19 
ROOT
HETATM    1  C   UNL     1      25.661  44.262  51.835  1.00  0.00     0.096 C 
HETATM    2  C   UNL     1      25.597  43.094  51.098  1.00  0.00     0.138 C 
HETATM    3  N   UNL     1      24.430  43.172  50.371  1.00  0.00    -0.240 N 
HETATM    4  C   UNL     1      23.950  42.137  49.471  1.00  0.00     0.221 C 
HETATM    5  C   UNL     1      25.074  41.134  49.147  1.00  0.00     0.066 C 
HETATM    6  C   UNL     1      25.851  40.779  50.420  1.00  0.00     0.118 C 
HETATM    7  N   UNL     1      26.410  42.005  51.005  1.00  0.00    -0.365 N 
HETATM    8  N   UNL     1      23.653  44.207  50.724  1.00  0.00    -0.181 NA
HETATM    9  C   UNL     1      24.416  44.887  51.585  1.00  0.00     0.160 C 
HETATM   10  H   UNL     1      27.006  41.786  51.807  1.00  0.00     0.161 HD
ENDROOT
BRANCH   1  11
HETATM   11  C   UNL     1      26.716  44.753  52.708  1.00  0.00     0.261 C 
HETATM   12  N   UNL     1      27.490  43.745  53.252  1.00  0.00    -0.323 N 
HETATM   13  H   UNL     1      27.290  42.812  52.907  1.00  0.00     0.169 HD
HETATM   14  O   UNL     1      26.874  45.956  52.874  1.00  0.00    -0.267 OA
BRANCH  12  15
HETATM   15  C   UNL     1      28.578  43.870  54.138  1.00  0.00     0.035 A 
HETATM   16  C   UNL     1      28.644  44.816  55.164  1.00  0.00     0.039 A 
HETATM   17  C   UNL     1      29.765  44.893  56.008  1.00  0.00    -0.028 A 
HETATM   18  C   UNL     1      30.832  44.007  55.802  1.00  0.00     0.010 A 
HETATM   19  C   UNL     1      30.769  43.052  54.791  1.00  0.00     0.003 A 
HETATM   20  C   UNL     1      29.646  42.982  53.965  1.00  0.00     0.029 A 
BRANCH  17  21
HETATM   21  C   UNL     1      29.818  45.947  57.094  1.00  0.00     0.147 C 
HETATM   22  C   UNL     1      30.608  45.478  58.307  1.00  0.00     0.044 C 
BRANCH  21  23
HETATM   23  O   UNL     1      28.500  46.300  57.510  1.00  0.00    -0.391 OA
HETATM   24  H   UNL     1      28.250  45.671  58.209  1.00  0.00     0.210 HD
ENDBRANCH  21  23
ENDBRANCH  17  21
ENDBRANCH  12  15
ENDBRANCH   1  11
BRANCH   4  25
HETATM   25  C   UNL     1      23.407  42.720  48.183  1.00  0.00     0.409 C 
HETATM   26  F   UNL     1      22.110  43.081  48.256  1.00  0.00    -0.169 F 
HETATM   27  F   UNL     1      24.123  43.787  47.759  1.00  0.00    -0.169 F 
HETATM   28  F   UNL     1      23.483  41.786  47.196  1.00  0.00    -0.169 F 
ENDBRANCH   4  25
BRANCH   6  29
HETATM   29  C   UNL     1      26.970  39.796  50.145  1.00  0.00    -0.035 A 
HETATM   30  C   UNL     1      26.755  38.637  49.380  1.00  0.00     0.009 A 
HETATM   31  C   UNL     1      27.794  37.734  49.146  1.00  0.00     0.001 A 
HETATM   32  C   UNL     1      29.061  37.979  49.670  1.00  0.00     0.000 A 
HETATM   33  C   UNL     1      29.292  39.126  50.427  1.00  0.00     0.001 A 
HETATM   34  C   UNL     1      28.254  40.030  50.663  1.00  0.00     0.009 A 
ENDBRANCH   6  29
TORSDOF 6
ENDMDL
MODEL 8
REMARK VINA RESULT:      -8.6      3.631      9.133
REMARK  6 active torsions:
REMARK  status: ('A' for Active; 'I' for Inactive)
REMARK    1  A    between atoms: C_2  and  O_3 
REMARK    2  A    between atoms: C_2  and  C_4 
REMARK    3  A    between atoms: C_6  and  N_7 
REMARK       I    between atoms: N_7  and  C_8 
REMARK    4  A    between atoms: C_8  and  C_9 
REMARK    5  A    between atoms: C_12  and  C_13 
REMARK    6  A    between atoms: C_18  and  C_19 
ROOT
HETATM    1  C   UNL     1      23.919  46.223  49.611  1.00  0.00     0.096 C 
HETATM    2  C   UNL     1      22.809  46.813  49.034  1.00  0.00     0.138 C 
HETATM    3  N   UNL     1      22.338  45.905  48.112  1.00  0.00    -0.240 N 
HETATM    4  C   UNL     1      21.189  46.126  47.251  1.00  0.00     0.221 C 
HETATM    5  C   UNL     1      20.355  47.319  47.755  1.00  0.00     0.066 C 
HETATM    6  C   UNL     1      21.274  48.475  48.163  1.00  0.00     0.118 C 
HETATM    7  N   UNL     1      22.196  48.017  49.209  1.00  0.00    -0.365 N 
HETATM    8  N   UNL     1      23.163  44.864  47.923  1.00  0.00    -0.181 NA
HETATM    9  C   UNL     1      24.102  45.039  48.857  1.00  0.00     0.160 C 
HETATM   10  H   UNL     1      22.763  48.793  49.561  1.00  0.00     0.161 HD
ENDROOT
BRANCH   1  11
HETATM   11  C   UNL     1      24.756  46.691  50.705  1.00  0.00     0.261 C 
HETATM   12  N   UNL     1      25.269  45.666  51.478  1.00  0.00    -0.323 N 
HETATM   13  H   UNL     1      25.080  44.730  51.137  1.00  0.00     0.169 HD
HETATM   14  O   UNL     1      24.975  47.887  50.851  1.00  0.00    -0.267 OA
BRANCH  12  15
HETATM   15  C   UNL     1      26.101  45.768  52.610  1.00  0.00     0.035 A 
HETATM   16  C   UNL     1      27.183  44.920  52.863  1.00  0.00     0.039 A 
HETATM   17  C   UNL     1      27.968  45.070  54.019  1.00  0.00    -0.028 A 
HETATM   18  C   UNL     1      27.646  46.086  54.930  1.00  0.00     0.010 A 
HETATM   19  C   UNL     1      26.579  46.944  54.680  1.00  0.00     0.003 A 
HETATM   20  C   UNL     1      25.813  46.788  53.524  1.00  0.00     0.029 A 
BRANCH  17  21
HETATM   21  C   UNL     1      29.117  44.118  54.278  1.00  0.00     0.147 C 
HETATM   22  C   UNL     1      28.666  42.665  54.273  1.00  0.00     0.044 C 
BRANCH  21  23
HETATM   23  O   UNL     1      29.729  44.407  55.534  1.00  0.00    -0.391 OA
HETATM   24  H   UNL     1      29.084  44.167  56.221  1.00  0.00     0.210 HD
ENDBRANCH  21  23
ENDBRANCH  17  21
ENDBRANCH  12  15
ENDBRANCH   1  11
BRANCH   4  25
HETATM   25  C   UNL     1      20.310  44.897  47.160  1.00  0.00     0.409 C 
HETATM   26  F   UNL     1      19.137  45.115  46.533  1.00  0.00    -0.169 F 
HETATM   27  F   UNL     1      20.933  43.863  46.550  1.00  0.00    -0.169 F 
HETATM   28  F   UNL     1      19.993  44.473  48.414  1.00  0.00    -0.169 F 
ENDBRANCH   4  25
BRANCH   6  29
HETATM   29  C   UNL     1      20.492  49.671  48.670  1.00  0.00    -0.035 A 
HETATM   30  C   UNL     1      20.578  50.923  48.038  1.00  0.00     0.009 A 
HETATM   31  C   UNL     1      19.861  52.017  48.523  1.00  0.00     0.001 A 
HETATM   32  C   UNL     1      19.046  51.874  49.644  1.00  0.00     0.000 A 
HETATM   33  C   UNL     1      18.946  50.638  50.279  1.00  0.00     0.001 A 
HETATM   34  C   UNL     1      19.663  49.542  49.795  1.00  0.00     0.009 A 
ENDBRANCH   6  29
TORSDOF 6
ENDMDL
MODEL 9
REMARK VINA RESULT:      -8.6      1.822      2.524
REMARK  6 active torsions:
REMARK  status: ('A' for Active; 'I' for Inactive)
REMARK    1  A    between atoms: C_2  and  O_3 
REMARK    2  A    between atoms: C_2  and  C_4 
REMARK    3  A    between atoms: C_6  and  N_7 
REMARK       I    between atoms: N_7  and  C_8 
REMARK    4  A    between atoms: C_8  and  C_9 
REMARK    5  A    between atoms: C_12  and  C_13 
REMARK    6  A    between atoms: C_18  and  C_19 
ROOT
HETATM    1  C   UNL     1      23.750  44.643  49.417  1.00  0.00     0.096 C 
HETATM    2  C   UNL     1      24.647  44.462  50.454  1.00  0.00     0.138 C 
HETATM    3  N   UNL     1      25.147  43.188  50.299  1.00  0.00    -0.240 N 
HETATM    4  C   UNL     1      26.111  42.568  51.193  1.00  0.00     0.221 C 
HETATM    5  C   UNL     1      26.775  43.626  52.094  1.00  0.00     0.066 C 
HETATM    6  C   UNL     1      25.724  44.609  52.621  1.00  0.00     0.118 C 
HETATM    7  N   UNL     1      25.049  45.253  51.487  1.00  0.00    -0.365 N 
HETATM    8  N   UNL     1      24.507  42.477  49.360  1.00  0.00    -0.181 NA
HETATM    9  C   UNL     1      23.686  43.370  48.801  1.00  0.00     0.160 C 
HETATM   10  H   UNL     1      24.403  45.977  51.811  1.00  0.00     0.161 HD
ENDROOT
BRANCH   1  11
HETATM   11  C   UNL     1      22.997  45.828  49.037  1.00  0.00     0.261 C 
HETATM   12  N   UNL     1      23.693  47.006  49.233  1.00  0.00    -0.323 N 
HETATM   13  H   UNL     1      24.658  46.895  49.523  1.00  0.00     0.169 HD
HETATM   14  O   UNL     1      21.873  45.722  48.560  1.00  0.00    -0.267 OA
BRANCH  12  15
HETATM   15  C   UNL     1      23.258  48.321  48.981  1.00  0.00     0.035 A 
HETATM   16  C   UNL     1      21.945  48.760  49.173  1.00  0.00     0.039 A 
HETATM   17  C   UNL     1      21.575  50.087  48.892  1.00  0.00    -0.028 A 
HETATM   18  C   UNL     1      22.545  50.973  48.404  1.00  0.00     0.010 A 
HETATM   19  C   UNL     1      23.859  50.548  48.222  1.00  0.00     0.003 A 
HETATM   20  C   UNL     1      24.214  49.230  48.512  1.00  0.00     0.029 A 
BRANCH  17  21
HETATM   21  C   UNL     1      20.138  50.524  49.086  1.00  0.00     0.147 C 
HETATM   22  C   UNL     1      19.899  51.940  48.582  1.00  0.00     0.044 C 
BRANCH  21  23
HETATM   23  O   UNL     1      19.780  50.459  50.466  1.00  0.00    -0.391 OA
HETATM   24  H   UNL     1      20.115  49.610  50.801  1.00  0.00     0.210 HD
ENDBRANCH  21  23
ENDBRANCH  17  21
ENDBRANCH  12  15
ENDBRANCH   1  11
BRANCH   4  25
HETATM   25  C   UNL     1      27.178  41.812  50.431  1.00  0.00     0.409 C 
HETATM   26  F   UNL     1      28.365  41.761  51.068  1.00  0.00    -0.169 F 
HETATM   27  F   UNL     1      26.800  40.549  50.131  1.00  0.00    -0.169 F 
HETATM   28  F   UNL     1      27.415  42.437  49.244  1.00  0.00    -0.169 F 
ENDBRANCH   4  25
BRANCH   6  29
HETATM   29  C   UNL     1      26.337  45.672  53.512  1.00  0.00    -0.035 A 
HETATM   30  C   UNL     1      27.546  45.449  54.191  1.00  0.00     0.009 A 
HETATM   31  C   UNL     1      28.092  46.433  55.017  1.00  0.00     0.001 A 
HETATM   32  C   UNL     1      27.438  47.653  55.172  1.00  0.00     0.000 A 
HETATM   33  C   UNL     1      26.241  47.892  54.501  1.00  0.00     0.001 A 
HETATM   34  C   UNL     1      25.693  46.908  53.675  1.00  0.00     0.009 A 
ENDBRANCH   6  29
TORSDOF 6
ENDMDL
MODEL 10
REMARK VINA RESULT:      -8.5      3.902      8.501
REMARK  6 active torsions:
REMARK  status: ('A' for Active; 'I' for Inactive)
REMARK    1  A    between atoms: C_2  and  O_3 
REMARK    2  A    between atoms: C_2  and  C_4 
REMARK    3  A    between atoms: C_6  and  N_7 
REMARK       I    between atoms: N_7  and  C_8 
REMARK    4  A    between atoms: C_8  and  C_9 
REMARK    5  A    between atoms: C_12  and  C_13 
REMARK    6  A    between atoms: C_18  and  C_19 
ROOT
HETATM    1  C   UNL     1      27.161  43.096  51.593  1.00  0.00     0.096 C 
HETATM    2  C   UNL     1      26.806  44.424  51.745  1.00  0.00     0.138 C 
HETATM    3  N   UNL     1      26.943  44.697  53.088  1.00  0.00    -0.240 N 
HETATM    4  C   UNL     1      26.648  45.981  53.701  1.00  0.00     0.221 C 
HETATM    5  C   UNL     1      26.532  47.081  52.629  1.00  0.00     0.066 C 
HETATM    6  C   UNL     1      25.725  46.571  51.430  1.00  0.00     0.118 C 
HETATM    7  N   UNL     1      26.381  45.381  50.874  1.00  0.00    -0.365 N 
HETATM    8  N   UNL     1      27.176  43.605  53.831  1.00  0.00    -0.181 NA
HETATM    9  C   UNL     1      27.345  42.642  52.921  1.00  0.00     0.160 C 
HETATM   10  H   UNL     1      25.910  45.071  50.020  1.00  0.00     0.161 HD
ENDROOT
BRANCH   1  11
HETATM   11  C   UNL     1      27.288  42.302  50.381  1.00  0.00     0.261 C 
HETATM   12  N   UNL     1      27.477  40.955  50.627  1.00  0.00    -0.323 N 
HETATM   13  H   UNL     1      27.412  40.679  51.601  1.00  0.00     0.169 HD
HETATM   14  O   UNL     1      27.189  42.829  49.280  1.00  0.00    -0.267 OA
BRANCH  12  15
HETATM   15  C   UNL     1      27.645  39.918  49.689  1.00  0.00     0.035 A 
HETATM   16  C   UNL     1      26.619  39.425  48.878  1.00  0.00     0.039 A 
HETATM   17  C   UNL     1      26.853  38.380  47.967  1.00  0.00    -0.028 A 
HETATM   18  C   UNL     1      28.138  37.825  47.886  1.00  0.00     0.010 A 
HETATM   19  C   UNL     1      29.169  38.319  48.681  1.00  0.00     0.003 A 
HETATM   20  C   UNL     1      28.925  39.362  49.575  1.00  0.00     0.029 A 
BRANCH  17  21
HETATM   21  C   UNL     1      25.714  37.850  47.122  1.00  0.00     0.147 C 
HETATM   22  C   UNL     1      24.725  38.943  46.746  1.00  0.00     0.044 C 
BRANCH  21  23
HETATM   23  O   UNL     1      25.017  36.816  47.817  1.00  0.00    -0.391 OA
HETATM   24  H   UNL     1      25.617  36.052  47.855  1.00  0.00     0.210 HD
ENDBRANCH  21  23
ENDBRANCH  17  21
ENDBRANCH  12  15
ENDBRANCH   1  11
BRANCH   4  25
HETATM   25  C   UNL     1      27.699  46.374  54.717  1.00  0.00     0.409 C 
HETATM   26  F   UNL     1      27.939  47.700  54.763  1.00  0.00    -0.169 F 
HETATM   27  F   UNL     1      27.393  45.952  55.965  1.00  0.00    -0.169 F 
HETATM   28  F   UNL     1      28.885  45.789  54.390  1.00  0.00    -0.169 F 
ENDBRANCH   4  25
BRANCH   6  29
HETATM   29  C   UNL     1      25.590  47.624  50.348  1.00  0.00    -0.035 A 
HETATM   30  C   UNL     1      24.333  48.002  49.848  1.00  0.00     0.009 A 
HETATM   31  C   UNL     1      24.225  48.964  48.843  1.00  0.00     0.001 A 
HETATM   32  C   UNL     1      25.372  49.562  48.325  1.00  0.00     0.000 A 
HETATM   33  C   UNL     1      26.626  49.202  48.814  1.00  0.00     0.001 A 
HETATM   34  C   UNL     1      26.735  48.239  49.819  1.00  0.00     0.009 A 
ENDBRANCH   6  29
TORSDOF 6
ENDMDL
