MODEL 1
REMARK VINA RESULT:      -8.7      0.000      0.000
REMARK  7 active torsions:
REMARK  status: ('A' for Active; 'I' for Inactive)
REMARK    1  A    between atoms: N_3  and  C_4 
REMARK    2  A    between atoms: C_12  and  C_13 
REMARK       I    between atoms: C_13  and  N_14 
REMARK    3  A    between atoms: N_14  and  C_15 
REMARK    4  A    between atoms: C_15  and  C_16 
REMARK    5  A    between atoms: C_16  and  O_17 
REMARK    6  A    between atoms: C_16  and  C_18 
REMARK    7  A    between atoms: C_21  and  O_22 
ROOT
HETATM    1  C   UNL     1      26.352  45.419  49.971  1.00  0.00     0.255 C 
HETATM    2  N   UNL     1      26.160  44.461  50.934  1.00  0.00    -0.350 N 
HETATM    3  O   UNL     1      27.437  45.601  49.428  1.00  0.00    -0.268 OA
HETATM    4  H   UNL     1      25.239  44.290  51.308  1.00  0.00     0.163 HD
ENDROOT
BRANCH   2   5
HETATM    5  C   UNL     1      27.229  43.591  51.428  1.00  0.00     0.114 C 
HETATM    6  C   UNL     1      27.311  42.366  50.514  1.00  0.00     0.035 C 
BRANCH   5   7
HETATM    7  C   UNL     1      26.983  43.160  52.900  1.00  0.00     0.173 C 
BRANCH   7   8
HETATM    8  O   UNL     1      25.737  43.695  53.372  1.00  0.00    -0.389 OA
HETATM    9  H   UNL     1      25.205  42.934  53.666  1.00  0.00     0.210 HD
ENDBRANCH   7   8
BRANCH   7  10
HETATM   10  C   UNL     1      28.111  43.538  53.842  1.00  0.00    -0.028 A 
HETATM   11  C   UNL     1      29.220  42.693  53.980  1.00  0.00     0.012 A 
HETATM   12  C   UNL     1      30.277  43.042  54.826  1.00  0.00     0.037 A 
HETATM   13  C   UNL     1      30.255  44.239  55.540  1.00  0.00     0.068 A 
HETATM   14  C   UNL     1      29.153  45.084  55.416  1.00  0.00     0.037 A 
HETATM   15  C   UNL     1      28.091  44.734  54.573  1.00  0.00     0.012 A 
BRANCH  13  16
HETATM   16  O   UNL     1      31.355  44.463  56.322  1.00  0.00    -0.356 OA
HETATM   17  C   UNL     1      31.749  43.404  57.185  1.00  0.00     0.210 C 
ENDBRANCH  13  16
ENDBRANCH   7  10
ENDBRANCH   5   7
ENDBRANCH   2   5
BRANCH   1  18
HETATM   18  C   UNL     1      25.175  46.182  49.579  1.00  0.00     0.075 C 
HETATM   19  C   UNL     1      24.977  47.539  49.331  1.00  0.00     0.051 C 
HETATM   20  C   UNL     1      25.934  48.680  49.264  1.00  0.00     0.071 C 
HETATM   21  N   UNL     1      23.607  47.698  49.101  1.00  0.00    -0.220 N 
HETATM   22  N   UNL     1      22.982  46.492  48.996  1.00  0.00    -0.177 NA
HETATM   23  C   UNL     1      23.916  45.603  49.315  1.00  0.00     0.158 C 
BRANCH  21  24
HETATM   24  C   UNL     1      22.848  48.915  48.989  1.00  0.00     0.150 A 
HETATM   25  N   UNL     1      22.796  49.767  50.049  1.00  0.00    -0.241 NA
HETATM   26  C   UNL     1      22.048  50.885  49.915  1.00  0.00     0.119 A 
HETATM   27  C   UNL     1      21.343  51.210  48.769  1.00  0.00     0.019 A 
HETATM   28  C   UNL     1      21.404  50.336  47.693  1.00  0.00     0.005 A 
HETATM   29  C   UNL     1      22.162  49.170  47.800  1.00  0.00     0.052 A 
ENDBRANCH  21  24
ENDBRANCH   1  18
TORSDOF 7
ENDMDL
MODEL 2
REMARK VINA RESULT:      -8.5      1.638      2.565
REMARK  7 active torsions:
REMARK  status: ('A' for Active; 'I' for Inactive)
REMARK    1  A    between atoms: N_3  and  C_4 
REMARK    2  A    between atoms: C_12  and  C_13 
REMARK       I    between atoms: C_13  and  N_14 
REMARK    3  A    between atoms: N_14  and  C_15 
REMARK    4  A    between atoms: C_15  and  C_16 
REMARK    5  A    between atoms: C_16  and  O_17 
REMARK    6  A    between atoms: C_16  and  C_18 
REMARK    7  A    between atoms: C_21  and  O_22 
ROOT
HETATM    1  C   UNL     1      26.653  43.875  51.614  1.00  0.00     0.255 C 
HETATM    2  N   UNL     1      28.012  43.708  51.699  1.00  0.00    -0.350 N 
HETATM    3  O   UNL     1      25.862  42.951  51.779  1.00  0.00    -0.268 OA
HETATM    4  H   UNL     1      28.629  44.502  51.628  1.00  0.00     0.163 HD
ENDROOT
BRANCH   2   5
HETATM    5  C   UNL     1      28.650  42.417  51.961  1.00  0.00     0.114 C 
HETATM    6  C   UNL     1      27.959  41.358  51.098  1.00  0.00     0.035 C 
BRANCH   5   7
HETATM    7  C   UNL     1      28.574  42.033  53.464  1.00  0.00     0.173 C 
BRANCH   7   8
HETATM    8  O   UNL     1      27.242  41.622  53.804  1.00  0.00    -0.389 OA
HETATM    9  H   UNL     1      27.314  41.111  54.630  1.00  0.00     0.210 HD
ENDBRANCH   7   8
BRANCH   7  10
HETATM   10  C   UNL     1      29.042  43.134  54.397  1.00  0.00    -0.028 A 
HETATM   11  C   UNL     1      30.344  43.106  54.916  1.00  0.00     0.012 A 
HETATM   12  C   UNL     1      30.796  44.126  55.757  1.00  0.00     0.037 A 
HETATM   13  C   UNL     1      29.966  45.197  56.090  1.00  0.00     0.068 A 
HETATM   14  C   UNL     1      28.667  45.231  55.586  1.00  0.00     0.037 A 
HETATM   15  C   UNL     1      28.211  44.207  54.747  1.00  0.00     0.012 A 
BRANCH  13  16
HETATM   16  O   UNL     1      30.534  46.131  56.912  1.00  0.00    -0.356 OA
HETATM   17  C   UNL     1      30.551  45.831  58.302  1.00  0.00     0.210 C 
ENDBRANCH  13  16
ENDBRANCH   7  10
ENDBRANCH   5   7
ENDBRANCH   2   5
BRANCH   1  18
HETATM   18  C   UNL     1      26.186  45.233  51.368  1.00  0.00     0.075 C 
HETATM   19  C   UNL     1      25.512  45.814  50.296  1.00  0.00     0.051 C 
HETATM   20  C   UNL     1      24.924  45.220  49.062  1.00  0.00     0.071 C 
HETATM   21  N   UNL     1      25.431  47.180  50.580  1.00  0.00    -0.220 N 
HETATM   22  N   UNL     1      25.836  47.444  51.853  1.00  0.00    -0.177 NA
HETATM   23  C   UNL     1      26.313  46.286  52.298  1.00  0.00     0.158 C 
BRANCH  21  24
HETATM   24  C   UNL     1      25.009  48.255  49.721  1.00  0.00     0.150 A 
HETATM   25  N   UNL     1      23.688  48.576  49.656  1.00  0.00    -0.241 NA
HETATM   26  C   UNL     1      23.328  49.571  48.815  1.00  0.00     0.119 A 
HETATM   27  C   UNL     1      24.221  50.277  48.028  1.00  0.00     0.019 A 
HETATM   28  C   UNL     1      25.566  49.944  48.103  1.00  0.00     0.005 A 
HETATM   29  C   UNL     1      25.970  48.918  48.956  1.00  0.00     0.052 A 
ENDBRANCH  21  24
ENDBRANCH   1  18
TORSDOF 7
ENDMDL
MODEL 3
REMARK VINA RESULT:      -8.4      3.125      8.681
REMARK  7 active torsions:
REMARK  status: ('A' for Active; 'I' for Inactive)
REMARK    1  A    between atoms: N_3  and  C_4 
REMARK    2  A    between atoms: C_12  and  C_13 
REMARK       I    between atoms: C_13  and  N_14 
REMARK    3  A    between atoms: N_14  and  C_15 
REMARK    4  A    between atoms: C_15  and  C_16 
REMARK    5  A    between atoms: C_16  and  O_17 
REMARK    6  A    between atoms: C_16  and  C_18 
REMARK    7  A    between atoms: C_21  and  O_22 
ROOT
HETATM    1  C   UNL     1      26.076  44.047  52.833  1.00  0.00     0.255 C 
HETATM    2  N   UNL     1      26.504  43.310  51.758  1.00  0.00    -0.350 N 
HETATM    3  O   UNL     1      24.887  44.233  53.075  1.00  0.00    -0.268 OA
HETATM    4  H   UNL     1      27.485  43.118  51.629  1.00  0.00     0.163 HD
ENDROOT
BRANCH   2   5
HETATM    5  C   UNL     1      25.595  42.706  50.783  1.00  0.00     0.114 C 
HETATM    6  C   UNL     1      25.964  41.228  50.636  1.00  0.00     0.035 C 
BRANCH   5   7
HETATM    7  C   UNL     1      25.664  43.427  49.409  1.00  0.00     0.173 C 
BRANCH   7   8
HETATM    8  O   UNL     1      26.960  43.248  48.820  1.00  0.00    -0.389 OA
HETATM    9  H   UNL     1      26.842  43.347  47.858  1.00  0.00     0.210 HD
ENDBRANCH   7   8
BRANCH   7  10
HETATM   10  C   UNL     1      25.314  44.902  49.477  1.00  0.00    -0.028 A 
HETATM   11  C   UNL     1      26.328  45.856  49.637  1.00  0.00     0.012 A 
HETATM   12  C   UNL     1      26.021  47.219  49.677  1.00  0.00     0.037 A 
HETATM   13  C   UNL     1      24.703  47.658  49.548  1.00  0.00     0.068 A 
HETATM   14  C   UNL     1      23.686  46.717  49.395  1.00  0.00     0.037 A 
HETATM   15  C   UNL     1      23.991  45.351  49.361  1.00  0.00     0.012 A 
BRANCH  13  16
HETATM   16  O   UNL     1      24.543  49.015  49.593  1.00  0.00    -0.356 OA
HETATM   17  C   UNL     1      25.187  49.768  48.573  1.00  0.00     0.210 C 
ENDBRANCH  13  16
ENDBRANCH   7  10
ENDBRANCH   5   7
ENDBRANCH   2   5
BRANCH   1  18
HETATM   18  C   UNL     1      27.115  44.559  53.717  1.00  0.00     0.075 C 
HETATM   19  C   UNL     1      28.177  43.940  54.373  1.00  0.00     0.051 C 
HETATM   20  C   UNL     1      28.697  42.545  54.311  1.00  0.00     0.071 C 
HETATM   21  N   UNL     1      28.770  44.924  55.170  1.00  0.00    -0.220 N 
HETATM   22  N   UNL     1      28.261  46.156  54.891  1.00  0.00    -0.177 NA
HETATM   23  C   UNL     1      27.258  45.922  54.052  1.00  0.00     0.158 C 
BRANCH  21  24
HETATM   24  C   UNL     1      29.775  44.773  56.189  1.00  0.00     0.150 A 
HETATM   25  N   UNL     1      29.772  45.615  57.258  1.00  0.00    -0.241 NA
HETATM   26  C   UNL     1      30.751  45.461  58.176  1.00  0.00     0.119 A 
HETATM   27  C   UNL     1      31.742  44.499  58.094  1.00  0.00     0.019 A 
HETATM   28  C   UNL     1      31.735  43.643  57.002  1.00  0.00     0.005 A 
HETATM   29  C   UNL     1      30.744  43.779  56.031  1.00  0.00     0.052 A 
ENDBRANCH  21  24
ENDBRANCH   1  18
TORSDOF 7
ENDMDL
MODEL 4
REMARK VINA RESULT:      -8.2      1.168      2.169
REMARK  7 active torsions:
REMARK  status: ('A' for Active; 'I' for Inactive)
REMARK    1  A    between atoms: N_3  and  C_4 
REMARK    2  A    between atoms: C_12  and  C_13 
REMARK       I    between atoms: C_13  and  N_14 
REMARK    3  A    between atoms: N_14  and  C_15 
REMARK    4  A    between atoms: C_15  and  C_16 
REMARK    5  A    between atoms: C_16  and  O_17 
REMARK    6  A    between atoms: C_16  and  C_18 
REMARK    7  A    between atoms: C_21  and  O_22 
ROOT
HETATM    1  C   UNL     1      26.633  45.516  50.116  1.00  0.00     0.255 C 
HETATM    2  N   UNL     1      26.385  44.546  51.054  1.00  0.00    -0.350 N 
HETATM    3  O   UNL     1      27.702  45.602  49.521  1.00  0.00    -0.268 OA
HETATM    4  H   UNL     1      25.471  44.462  51.472  1.00  0.00     0.163 HD
ENDROOT
BRANCH   2   5
HETATM    5  C   UNL     1      27.375  43.547  51.459  1.00  0.00     0.114 C 
HETATM    6  C   UNL     1      27.278  42.360  50.498  1.00  0.00     0.035 C 
BRANCH   5   7
HETATM    7  C   UNL     1      27.155  43.083  52.926  1.00  0.00     0.173 C 
BRANCH   7   8
HETATM    8  O   UNL     1      25.834  43.431  53.363  1.00  0.00    -0.389 OA
HETATM    9  H   UNL     1      25.463  44.018  52.680  1.00  0.00     0.210 HD
ENDBRANCH   7   8
BRANCH   7  10
HETATM   10  C   UNL     1      28.192  43.619  53.896  1.00  0.00    -0.028 A 
HETATM   11  C   UNL     1      27.961  44.825  54.572  1.00  0.00     0.012 A 
HETATM   12  C   UNL     1      28.897  45.317  55.486  1.00  0.00     0.037 A 
HETATM   13  C   UNL     1      30.073  44.615  55.752  1.00  0.00     0.068 A 
HETATM   14  C   UNL     1      30.315  43.419  55.080  1.00  0.00     0.037 A 
HETATM   15  C   UNL     1      29.382  42.927  54.159  1.00  0.00     0.012 A 
BRANCH  13  16
HETATM   16  O   UNL     1      30.896  45.201  56.673  1.00  0.00    -0.356 OA
HETATM   17  C   UNL     1      30.265  45.885  57.749  1.00  0.00     0.210 C 
ENDBRANCH  13  16
ENDBRANCH   7  10
ENDBRANCH   5   7
ENDBRANCH   2   5
BRANCH   1  18
HETATM   18  C   UNL     1      25.529  46.418  49.816  1.00  0.00     0.075 C 
HETATM   19  C   UNL     1      24.206  46.189  49.443  1.00  0.00     0.051 C 
HETATM   20  C   UNL     1      23.416  44.931  49.329  1.00  0.00     0.071 C 
HETATM   21  N   UNL     1      23.651  47.447  49.184  1.00  0.00    -0.220 N 
HETATM   22  N   UNL     1      24.493  48.446  49.569  1.00  0.00    -0.177 NA
HETATM   23  C   UNL     1      25.615  47.823  49.911  1.00  0.00     0.158 C 
BRANCH  21  24
HETATM   24  C   UNL     1      22.383  47.765  48.583  1.00  0.00     0.150 A 
HETATM   25  N   UNL     1      22.039  47.178  47.404  1.00  0.00    -0.241 NA
HETATM   26  C   UNL     1      20.853  47.527  46.856  1.00  0.00     0.119 A 
HETATM   27  C   UNL     1      19.976  48.433  47.426  1.00  0.00     0.019 A 
HETATM   28  C   UNL     1      20.334  49.023  48.629  1.00  0.00     0.005 A 
HETATM   29  C   UNL     1      21.554  48.692  49.218  1.00  0.00     0.052 A 
ENDBRANCH  21  24
ENDBRANCH   1  18
TORSDOF 7
ENDMDL
MODEL 5
REMARK VINA RESULT:      -8.2      2.173      3.064
REMARK  7 active torsions:
REMARK  status: ('A' for Active; 'I' for Inactive)
REMARK    1  A    between atoms: N_3  and  C_4 
REMARK    2  A    between atoms: C_12  and  C_13 
REMARK       I    between atoms: C_13  and  N_14 
REMARK    3  A    between atoms: N_14  and  C_15 
REMARK    4  A    between atoms: C_15  and  C_16 
REMARK    5  A    between atoms: C_16  and  O_17 
REMARK    6  A    between atoms: C_16  and  C_18 
REMARK    7  A    between atoms: C_21  and  O_22 
ROOT
HETATM    1  C   UNL     1      24.592  47.889  49.692  1.00  0.00     0.255 C 
HETATM    2  N   UNL     1      24.679  46.620  50.205  1.00  0.00    -0.350 N 
HETATM    3  O   UNL     1      25.564  48.632  49.596  1.00  0.00    -0.268 OA
HETATM    4  H   UNL     1      23.875  46.012  50.203  1.00  0.00     0.163 HD
ENDROOT
BRANCH   2   5
HETATM    5  C   UNL     1      25.924  46.043  50.716  1.00  0.00     0.114 C 
HETATM    6  C   UNL     1      26.613  45.299  49.570  1.00  0.00     0.035 C 
BRANCH   5   7
HETATM    7  C   UNL     1      25.664  45.086  51.912  1.00  0.00     0.173 C 
BRANCH   7   8
HETATM    8  O   UNL     1      24.260  45.022  52.200  1.00  0.00    -0.389 OA
HETATM    9  H   UNL     1      23.847  44.552  51.453  1.00  0.00     0.210 HD
ENDBRANCH   7   8
BRANCH   7  10
HETATM   10  C   UNL     1      26.444  45.448  53.162  1.00  0.00    -0.028 A 
HETATM   11  C   UNL     1      27.299  44.507  53.751  1.00  0.00     0.012 A 
HETATM   12  C   UNL     1      28.042  44.836  54.889  1.00  0.00     0.037 A 
HETATM   13  C   UNL     1      27.955  46.108  55.454  1.00  0.00     0.068 A 
HETATM   14  C   UNL     1      27.102  47.049  54.881  1.00  0.00     0.037 A 
HETATM   15  C   UNL     1      26.353  46.720  53.744  1.00  0.00     0.012 A 
BRANCH  13  16
HETATM   16  O   UNL     1      28.741  46.301  56.557  1.00  0.00    -0.356 OA
HETATM   17  C   UNL     1      30.059  45.770  56.502  1.00  0.00     0.210 C 
ENDBRANCH  13  16
ENDBRANCH   7  10
ENDBRANCH   5   7
ENDBRANCH   2   5
BRANCH   1  18
HETATM   18  C   UNL     1      23.280  48.298  49.207  1.00  0.00     0.075 C 
HETATM   19  C   UNL     1      22.729  49.548  48.932  1.00  0.00     0.051 C 
HETATM   20  C   UNL     1      23.331  50.911  48.925  1.00  0.00     0.071 C 
HETATM   21  N   UNL     1      21.390  49.320  48.600  1.00  0.00    -0.220 N 
HETATM   22  N   UNL     1      21.136  47.989  48.461  1.00  0.00    -0.177 NA
HETATM   23  C   UNL     1      22.256  47.392  48.856  1.00  0.00     0.158 C 
BRANCH  21  24
HETATM   24  C   UNL     1      20.331  50.277  48.421  1.00  0.00     0.150 A 
HETATM   25  N   UNL     1      19.693  50.349  47.221  1.00  0.00    -0.241 NA
HETATM   26  C   UNL     1      18.726  51.282  47.083  1.00  0.00     0.119 A 
HETATM   27  C   UNL     1      18.347  52.156  48.087  1.00  0.00     0.019 A 
HETATM   28  C   UNL     1      19.002  52.074  49.308  1.00  0.00     0.005 A 
HETATM   29  C   UNL     1      20.010  51.127  49.482  1.00  0.00     0.052 A 
ENDBRANCH  21  24
ENDBRANCH   1  18
TORSDOF 7
ENDMDL
MODEL 6
REMARK VINA RESULT:      -8.1      3.012      9.742
REMARK  7 active torsions:
REMARK  status: ('A' for Active; 'I' for Inactive)
REMARK    1  A    between atoms: N_3  and  C_4 
REMARK    2  A    between atoms: C_12  and  C_13 
REMARK       I    between atoms: C_13  and  N_14 
REMARK    3  A    between atoms: N_14  and  C_15 
REMARK    4  A    between atoms: C_15  and  C_16 
REMARK    5  A    between atoms: C_16  and  O_17 
REMARK    6  A    between atoms: C_16  and  C_18 
REMARK    7  A    between atoms: C_21  and  O_22 
ROOT
HETATM    1  C   UNL     1      25.864  45.972  52.627  1.00  0.00     0.255 C 
HETATM    2  N   UNL     1      26.000  46.758  51.511  1.00  0.00    -0.350 N 
HETATM    3  O   UNL     1      24.914  45.213  52.789  1.00  0.00    -0.268 OA
HETATM    4  H   UNL     1      26.829  47.317  51.379  1.00  0.00     0.163 HD
ENDROOT
BRANCH   2   5
HETATM    5  C   UNL     1      25.018  46.792  50.426  1.00  0.00     0.114 C 
HETATM    6  C   UNL     1      25.022  45.427  49.733  1.00  0.00     0.035 C 
BRANCH   5   7
HETATM    7  C   UNL     1      25.327  47.924  49.408  1.00  0.00     0.173 C 
BRANCH   7   8
HETATM    8  O   UNL     1      26.394  48.751  49.895  1.00  0.00    -0.389 OA
HETATM    9  H   UNL     1      26.375  49.566  49.362  1.00  0.00     0.210 HD
ENDBRANCH   7   8
BRANCH   7  10
HETATM   10  C   UNL     1      24.120  48.771  49.055  1.00  0.00    -0.028 A 
HETATM   11  C   UNL     1      22.832  48.224  49.133  1.00  0.00     0.012 A 
HETATM   12  C   UNL     1      21.710  49.001  48.834  1.00  0.00     0.037 A 
HETATM   13  C   UNL     1      21.847  50.338  48.461  1.00  0.00     0.068 A 
HETATM   14  C   UNL     1      23.123  50.891  48.373  1.00  0.00     0.037 A 
HETATM   15  C   UNL     1      24.249  50.112  48.667  1.00  0.00     0.012 A 
BRANCH  13  16
HETATM   16  O   UNL     1      20.670  50.987  48.206  1.00  0.00    -0.356 OA
HETATM   17  C   UNL     1      19.957  51.482  49.332  1.00  0.00     0.210 C 
ENDBRANCH  13  16
ENDBRANCH   7  10
ENDBRANCH   5   7
ENDBRANCH   2   5
BRANCH   1  18
HETATM   18  C   UNL     1      26.946  46.044  53.601  1.00  0.00     0.075 C 
HETATM   19  C   UNL     1      27.909  45.121  54.002  1.00  0.00     0.051 C 
HETATM   20  C   UNL     1      28.248  43.763  53.490  1.00  0.00     0.071 C 
HETATM   21  N   UNL     1      28.611  45.721  55.053  1.00  0.00    -0.220 N 
HETATM   22  N   UNL     1      28.268  47.032  55.188  1.00  0.00    -0.177 NA
HETATM   23  C   UNL     1      27.257  47.202  54.344  1.00  0.00     0.158 C 
BRANCH  21  24
HETATM   24  C   UNL     1      29.572  45.131  55.946  1.00  0.00     0.150 A 
HETATM   25  N   UNL     1      29.756  45.675  57.180  1.00  0.00    -0.241 NA
HETATM   26  C   UNL     1      30.690  45.111  57.977  1.00  0.00     0.119 A 
HETATM   27  C   UNL     1      31.458  44.018  57.614  1.00  0.00     0.019 A 
HETATM   28  C   UNL     1      31.262  43.470  56.354  1.00  0.00     0.005 A 
HETATM   29  C   UNL     1      30.311  44.032  55.504  1.00  0.00     0.052 A 
ENDBRANCH  21  24
ENDBRANCH   1  18
TORSDOF 7
ENDMDL
MODEL 7
REMARK VINA RESULT:      -8.1      1.558      1.980
REMARK  7 active torsions:
REMARK  status: ('A' for Active; 'I' for Inactive)
REMARK    1  A    between atoms: N_3  and  C_4 
REMARK    2  A    between atoms: C_12  and  C_13 
REMARK       I    between atoms: C_13  and  N_14 
REMARK    3  A    between atoms: N_14  and  C_15 
REMARK    4  A    between atoms: C_15  and  C_16 
REMARK    5  A    between atoms: C_16  and  O_17 
REMARK    6  A    between atoms: C_16  and  C_18 
REMARK    7  A    between atoms: C_21  and  O_22 
ROOT
HETATM    1  C   UNL     1      24.989  44.135  51.332  1.00  0.00     0.255 C 
HETATM    2  N   UNL     1      26.287  44.286  51.747  1.00  0.00    -0.350 N 
HETATM    3  O   UNL     1      24.285  43.196  51.691  1.00  0.00    -0.268 OA
HETATM    4  H   UNL     1      26.814  45.106  51.489  1.00  0.00     0.163 HD
ENDROOT
BRANCH   2   5
HETATM    5  C   UNL     1      26.967  43.334  52.628  1.00  0.00     0.114 C 
HETATM    6  C   UNL     1      26.462  43.558  54.056  1.00  0.00     0.035 C 
BRANCH   5   7
HETATM    7  C   UNL     1      28.510  43.492  52.562  1.00  0.00     0.173 C 
BRANCH   7   8
HETATM    8  O   UNL     1      29.111  42.287  52.066  1.00  0.00    -0.389 OA
HETATM    9  H   UNL     1      29.157  42.380  51.097  1.00  0.00     0.210 HD
ENDBRANCH   7   8
BRANCH   7  10
HETATM   10  C   UNL     1      29.139  43.891  53.884  1.00  0.00    -0.028 A 
HETATM   11  C   UNL     1      30.108  43.068  54.475  1.00  0.00     0.012 A 
HETATM   12  C   UNL     1      30.713  43.437  55.680  1.00  0.00     0.037 A 
HETATM   13  C   UNL     1      30.373  44.633  56.313  1.00  0.00     0.068 A 
HETATM   14  C   UNL     1      29.406  45.455  55.737  1.00  0.00     0.037 A 
HETATM   15  C   UNL     1      28.795  45.085  54.532  1.00  0.00     0.012 A 
BRANCH  13  16
HETATM   16  O   UNL     1      31.046  44.877  57.478  1.00  0.00    -0.356 OA
HETATM   17  C   UNL     1      30.618  46.000  58.238  1.00  0.00     0.210 C 
ENDBRANCH  13  16
ENDBRANCH   7  10
ENDBRANCH   5   7
ENDBRANCH   2   5
BRANCH   1  18
HETATM   18  C   UNL     1      24.462  45.187  50.473  1.00  0.00     0.075 C 
HETATM   19  C   UNL     1      24.669  46.565  50.443  1.00  0.00     0.051 C 
HETATM   20  C   UNL     1      25.600  47.439  51.210  1.00  0.00     0.071 C 
HETATM   21  N   UNL     1      23.805  47.068  49.466  1.00  0.00    -0.220 N 
HETATM   22  N   UNL     1      23.224  46.061  48.755  1.00  0.00    -0.177 NA
HETATM   23  C   UNL     1      23.597  44.951  49.384  1.00  0.00     0.158 C 
BRANCH  21  24
HETATM   24  C   UNL     1      23.481  48.438  49.170  1.00  0.00     0.150 A 
HETATM   25  N   UNL     1      22.288  48.946  49.586  1.00  0.00    -0.241 NA
HETATM   26  C   UNL     1      22.008  50.227  49.262  1.00  0.00     0.119 A 
HETATM   27  C   UNL     1      22.861  51.046  48.542  1.00  0.00     0.019 A 
HETATM   28  C   UNL     1      24.075  50.520  48.124  1.00  0.00     0.005 A 
HETATM   29  C   UNL     1      24.393  49.199  48.435  1.00  0.00     0.052 A 
ENDBRANCH  21  24
ENDBRANCH   1  18
TORSDOF 7
ENDMDL
MODEL 8
REMARK VINA RESULT:      -8.0      2.742      9.546
REMARK  7 active torsions:
REMARK  status: ('A' for Active; 'I' for Inactive)
REMARK    1  A    between atoms: N_3  and  C_4 
REMARK    2  A    between atoms: C_12  and  C_13 
REMARK       I    between atoms: C_13  and  N_14 
REMARK    3  A    between atoms: N_14  and  C_15 
REMARK    4  A    between atoms: C_15  and  C_16 
REMARK    5  A    between atoms: C_16  and  O_17 
REMARK    6  A    between atoms: C_16  and  C_18 
REMARK    7  A    between atoms: C_21  and  O_22 
ROOT
HETATM    1  C   UNL     1      24.894  45.119  51.288  1.00  0.00     0.255 C 
HETATM    2  N   UNL     1      24.965  46.144  50.380  1.00  0.00    -0.350 N 
HETATM    3  O   UNL     1      23.847  44.533  51.544  1.00  0.00    -0.268 OA
HETATM    4  H   UNL     1      25.854  46.555  50.143  1.00  0.00     0.163 HD
ENDROOT
BRANCH   2   5
HETATM    5  C   UNL     1      23.802  46.659  49.656  1.00  0.00     0.114 C 
HETATM    6  C   UNL     1      23.388  45.619  48.612  1.00  0.00     0.035 C 
BRANCH   5   7
HETATM    7  C   UNL     1      24.106  48.023  48.978  1.00  0.00     0.173 C 
BRANCH   7   8
HETATM    8  O   UNL     1      25.238  48.646  49.602  1.00  0.00    -0.389 OA
HETATM    9  H   UNL     1      25.878  48.828  48.892  1.00  0.00     0.210 HD
ENDBRANCH   7   8
BRANCH   7  10
HETATM   10  C   UNL     1      22.922  48.973  48.962  1.00  0.00    -0.028 A 
HETATM   11  C   UNL     1      21.626  48.480  49.164  1.00  0.00     0.012 A 
HETATM   12  C   UNL     1      20.530  49.347  49.176  1.00  0.00     0.037 A 
HETATM   13  C   UNL     1      20.704  50.720  48.997  1.00  0.00     0.068 A 
HETATM   14  C   UNL     1      21.988  51.220  48.789  1.00  0.00     0.037 A 
HETATM   15  C   UNL     1      23.087  50.352  48.771  1.00  0.00     0.012 A 
BRANCH  13  16
HETATM   16  O   UNL     1      19.552  51.455  49.041  1.00  0.00    -0.356 OA
HETATM   17  C   UNL     1      18.542  51.007  49.936  1.00  0.00     0.210 C 
ENDBRANCH  13  16
ENDBRANCH   7  10
ENDBRANCH   5   7
ENDBRANCH   2   5
BRANCH   1  18
HETATM   18  C   UNL     1      26.152  44.716  51.903  1.00  0.00     0.075 C 
HETATM   19  C   UNL     1      26.581  44.687  53.229  1.00  0.00     0.051 C 
HETATM   20  C   UNL     1      25.860  44.950  54.505  1.00  0.00     0.071 C 
HETATM   21  N   UNL     1      27.928  44.310  53.195  1.00  0.00    -0.220 N 
HETATM   22  N   UNL     1      28.297  43.913  51.945  1.00  0.00    -0.177 NA
HETATM   23  C   UNL     1      27.245  44.190  51.182  1.00  0.00     0.158 C 
BRANCH  21  24
HETATM   24  C   UNL     1      28.892  44.316  54.263  1.00  0.00     0.150 A 
HETATM   25  N   UNL     1      29.018  45.427  55.040  1.00  0.00    -0.241 NA
HETATM   26  C   UNL     1      29.956  45.403  56.013  1.00  0.00     0.119 A 
HETATM   27  C   UNL     1      30.782  44.322  56.264  1.00  0.00     0.019 A 
HETATM   28  C   UNL     1      30.643  43.193  55.468  1.00  0.00     0.005 A 
HETATM   29  C   UNL     1      29.691  43.186  54.451  1.00  0.00     0.052 A 
ENDBRANCH  21  24
ENDBRANCH   1  18
TORSDOF 7
ENDMDL
MODEL 9
REMARK VINA RESULT:      -7.9      4.277     10.772
REMARK  7 active torsions:
REMARK  status: ('A' for Active; 'I' for Inactive)
REMARK    1  A    between atoms: N_3  and  C_4 
REMARK    2  A    between atoms: C_12  and  C_13 
REMARK       I    between atoms: C_13  and  N_14 
REMARK    3  A    between atoms: N_14  and  C_15 
REMARK    4  A    between atoms: C_15  and  C_16 
REMARK    5  A    between atoms: C_16  and  O_17 
REMARK    6  A    between atoms: C_16  and  C_18 
REMARK    7  A    between atoms: C_21  and  O_22 
ROOT
HETATM    1  C   UNL     1      22.811  47.953  48.779  1.00  0.00     0.255 C 
HETATM    2  N   UNL     1      22.095  48.908  49.453  1.00  0.00    -0.350 N 
HETATM    3  O   UNL     1      22.480  47.536  47.673  1.00  0.00    -0.268 OA
HETATM    4  H   UNL     1      22.434  49.278  50.328  1.00  0.00     0.163 HD
ENDROOT
BRANCH   2   5
HETATM    5  C   UNL     1      20.857  49.498  48.940  1.00  0.00     0.114 C 
HETATM    6  C   UNL     1      21.216  50.772  48.171  1.00  0.00     0.035 C 
BRANCH   5   7
HETATM    7  C   UNL     1      19.855  49.813  50.083  1.00  0.00     0.173 C 
BRANCH   7   8
HETATM    8  O   UNL     1      19.434  48.599  50.723  1.00  0.00    -0.389 OA
HETATM    9  H   UNL     1      19.457  48.772  51.682  1.00  0.00     0.210 HD
ENDBRANCH   7   8
BRANCH   7  10
HETATM   10  C   UNL     1      18.649  50.617  49.632  1.00  0.00    -0.028 A 
HETATM   11  C   UNL     1      17.614  49.991  48.924  1.00  0.00     0.012 A 
HETATM   12  C   UNL     1      16.488  50.716  48.525  1.00  0.00     0.037 A 
HETATM   13  C   UNL     1      16.365  52.071  48.830  1.00  0.00     0.068 A 
HETATM   14  C   UNL     1      17.392  52.705  49.527  1.00  0.00     0.037 A 
HETATM   15  C   UNL     1      18.524  51.983  49.924  1.00  0.00     0.012 A 
BRANCH  13  16
HETATM   16  O   UNL     1      15.210  52.657  48.390  1.00  0.00    -0.356 OA
HETATM   17  C   UNL     1      14.679  53.702  49.195  1.00  0.00     0.210 C 
ENDBRANCH  13  16
ENDBRANCH   7  10
ENDBRANCH   5   7
ENDBRANCH   2   5
BRANCH   1  18
HETATM   18  C   UNL     1      24.032  47.489  49.425  1.00  0.00     0.075 C 
HETATM   19  C   UNL     1      24.391  46.264  49.984  1.00  0.00     0.051 C 
HETATM   20  C   UNL     1      23.688  44.950  50.015  1.00  0.00     0.071 C 
HETATM   21  N   UNL     1      25.654  46.450  50.554  1.00  0.00    -0.220 N 
HETATM   22  N   UNL     1      26.179  47.657  50.205  1.00  0.00    -0.177 NA
HETATM   23  C   UNL     1      25.194  48.277  49.563  1.00  0.00     0.158 C 
BRANCH  21  24
HETATM   24  C   UNL     1      26.391  45.566  51.418  1.00  0.00     0.150 A 
HETATM   25  N   UNL     1      26.292  45.720  52.767  1.00  0.00    -0.241 NA
HETATM   26  C   UNL     1      27.023  44.890  53.544  1.00  0.00     0.119 A 
HETATM   27  C   UNL     1      27.853  43.900  53.049  1.00  0.00     0.019 A 
HETATM   28  C   UNL     1      27.945  43.750  51.672  1.00  0.00     0.005 A 
HETATM   29  C   UNL     1      27.210  44.594  50.842  1.00  0.00     0.052 A 
ENDBRANCH  21  24
ENDBRANCH   1  18
TORSDOF 7
ENDMDL
MODEL 10
REMARK VINA RESULT:      -7.7      2.689      9.347
REMARK  7 active torsions:
REMARK  status: ('A' for Active; 'I' for Inactive)
REMARK    1  A    between atoms: N_3  and  C_4 
REMARK    2  A    between atoms: C_12  and  C_13 
REMARK       I    between atoms: C_13  and  N_14 
REMARK    3  A    between atoms: N_14  and  C_15 
REMARK    4  A    between atoms: C_15  and  C_16 
REMARK    5  A    between atoms: C_16  and  O_17 
REMARK    6  A    between atoms: C_16  and  C_18 
REMARK    7  A    between atoms: C_21  and  O_22 
ROOT
HETATM    1  C   UNL     1      25.732  44.697  53.021  1.00  0.00     0.255 C 
HETATM    2  N   UNL     1      25.991  44.598  51.678  1.00  0.00    -0.350 N 
HETATM    3  O   UNL     1      24.641  44.416  53.507  1.00  0.00    -0.268 OA
HETATM    4  H   UNL     1      26.919  44.769  51.322  1.00  0.00     0.163 HD
ENDROOT
BRANCH   2   5
HETATM    5  C   UNL     1      24.989  44.182  50.694  1.00  0.00     0.114 C 
HETATM    6  C   UNL     1      25.183  42.690  50.415  1.00  0.00     0.035 C 
BRANCH   5   7
HETATM    7  C   UNL     1      25.099  45.004  49.381  1.00  0.00     0.173 C 
BRANCH   7   8
HETATM    8  O   UNL     1      26.419  45.552  49.248  1.00  0.00    -0.389 OA
HETATM    9  H   UNL     1      27.016  44.799  49.090  1.00  0.00     0.210 HD
ENDBRANCH   7   8
BRANCH   7  10
HETATM   10  C   UNL     1      24.057  46.100  49.258  1.00  0.00    -0.028 A 
HETATM   11  C   UNL     1      24.342  47.392  49.720  1.00  0.00     0.012 A 
HETATM   12  C   UNL     1      23.399  48.416  49.591  1.00  0.00     0.037 A 
HETATM   13  C   UNL     1      22.162  48.176  48.992  1.00  0.00     0.068 A 
HETATM   14  C   UNL     1      21.866  46.893  48.536  1.00  0.00     0.037 A 
HETATM   15  C   UNL     1      22.807  45.864  48.669  1.00  0.00     0.012 A 
BRANCH  13  16
HETATM   16  O   UNL     1      21.338  49.265  48.919  1.00  0.00    -0.356 OA
HETATM   17  C   UNL     1      20.881  49.635  47.624  1.00  0.00     0.210 C 
ENDBRANCH  13  16
ENDBRANCH   7  10
ENDBRANCH   5   7
ENDBRANCH   2   5
BRANCH   1  18
HETATM   18  C   UNL     1      26.849  45.106  53.863  1.00  0.00     0.075 C 
HETATM   19  C   UNL     1      27.903  44.395  54.433  1.00  0.00     0.051 C 
HETATM   20  C   UNL     1      28.327  42.974  54.288  1.00  0.00     0.071 C 
HETATM   21  N   UNL     1      28.602  45.306  55.231  1.00  0.00    -0.220 N 
HETATM   22  N   UNL     1      28.161  46.578  55.029  1.00  0.00    -0.177 NA
HETATM   23  C   UNL     1      27.100  46.442  54.240  1.00  0.00     0.158 C 
BRANCH  21  24
HETATM   24  C   UNL     1      29.650  45.050  56.184  1.00  0.00     0.150 A 
HETATM   25  N   UNL     1      30.562  44.073  55.924  1.00  0.00    -0.241 NA
HETATM   26  C   UNL     1      31.511  43.843  56.858  1.00  0.00     0.119 A 
HETATM   27  C   UNL     1      31.611  44.542  58.048  1.00  0.00     0.019 A 
HETATM   28  C   UNL     1      30.678  45.538  58.302  1.00  0.00     0.005 A 
HETATM   29  C   UNL     1      29.680  45.796  57.364  1.00  0.00     0.052 A 
ENDBRANCH  21  24
ENDBRANCH   1  18
TORSDOF 7
ENDMDL
