MODEL 1
REMARK VINA RESULT:      -9.2      0.000      0.000
REMARK  6 active torsions:
REMARK  status: ('A' for Active; 'I' for Inactive)
REMARK    1  A    between atoms: C_2  and  O_3 
REMARK    2  A    between atoms: O_3  and  C_4 
REMARK    3  A    between atoms: C_5  and  O_6 
REMARK    4  A    between atoms: O_6  and  C_7 
REMARK    5  A    between atoms: C_7  and  C_8 
REMARK    6  A    between atoms: C_18  and  C_19 
ROOT
HETATM    1  C   UNL     1      24.659  44.776  51.332  1.00  0.00     0.103 A 
HETATM    2  C   UNL     1      25.521  45.553  52.111  1.00  0.00     0.112 A 
HETATM    3  C   UNL     1      25.898  46.838  51.722  1.00  0.00     0.041 A 
HETATM    4  C   UNL     1      25.369  47.380  50.554  1.00  0.00     0.014 A 
HETATM    5  C   UNL     1      24.481  46.639  49.749  1.00  0.00    -0.013 A 
HETATM    6  C   UNL     1      24.151  45.326  50.150  1.00  0.00     0.050 A 
ENDROOT
BRANCH   5   7
HETATM    7  C   UNL     1      23.935  47.292  48.485  1.00  0.00     0.219 C 
HETATM    8  N   UNL     1      22.723  46.649  48.043  1.00  0.00    -0.332 N 
HETATM    9  C   UNL     1      21.468  47.049  48.403  1.00  0.00     0.256 C 
HETATM   10  H   UNL     1      22.781  45.686  47.746  1.00  0.00     0.165 HD
HETATM   11  O   UNL     1      20.490  46.323  48.259  1.00  0.00    -0.267 OA
HETATM   12  C   UNL     1      21.371  48.403  48.916  1.00  0.00     0.073 A 
HETATM   13  C   UNL     1      22.506  49.176  48.973  1.00  0.00     0.088 A 
HETATM   14  C   UNL     1      20.218  49.113  49.374  1.00  0.00    -0.023 A 
HETATM   15  S   UNL     1      22.200  50.744  49.556  1.00  0.00    -0.074 SA
HETATM   16  N   UNL     1      23.723  48.723  48.608  1.00  0.00    -0.358 N 
HETATM   17  C   UNL     1      20.543  50.406  49.742  1.00  0.00     0.018 A 
HETATM   18  C   UNL     1      19.578  51.414  50.264  1.00  0.00     0.281 C 
HETATM   19  N   UNL     1      18.136  51.000  49.983  1.00  0.00    -0.070 N 
HETATM   20  C   UNL     1      17.910  49.520  50.286  1.00  0.00     0.239 C 
HETATM   21  H   UNL     1      17.556  51.527  50.646  1.00  0.00     0.279 HD
HETATM   22  C   UNL     1      17.677  51.404  48.611  1.00  0.00     0.270 C 
HETATM   23  C   UNL     1      18.808  48.604  49.435  1.00  0.00     0.068 C 
HETATM   24  H   UNL     1      24.560  49.262  48.813  1.00  0.00     0.162 HD
ENDBRANCH   5   7
BRANCH   1  25
HETATM   25  O   UNL     1      24.399  43.510  51.783  1.00  0.00    -0.349 OA
BRANCH  25  26
HETATM   26  C   UNL     1      24.263  42.496  50.789  1.00  0.00     0.171 C 
HETATM   27  C   UNL     1      25.627  41.866  50.569  1.00  0.00     0.034 C 
ENDBRANCH  25  26
ENDBRANCH   1  25
BRANCH   2  28
HETATM   28  O   UNL     1      26.050  45.044  53.299  1.00  0.00    -0.272 OA
BRANCH  28  29
HETATM   29  C   UNL     1      27.345  44.607  53.119  1.00  0.00     0.300 C 
HETATM   30  O   UNL     1      27.834  44.087  52.127  1.00  0.00    -0.259 OA
BRANCH  29  31
HETATM   31  C   UNL     1      28.147  44.938  54.314  1.00  0.00     0.061 A 
HETATM   32  C   UNL     1      29.312  44.253  54.679  1.00  0.00     0.050 A 
HETATM   33 CL   UNL     1      29.976  42.952  53.756  1.00  0.00    -0.083 Cl
HETATM   34  C   UNL     1      30.029  44.663  55.809  1.00  0.00     0.025 A 
HETATM   35  C   UNL     1      29.599  45.758  56.562  1.00  0.00     0.002 A 
HETATM   36  C   UNL     1      28.452  46.455  56.186  1.00  0.00     0.001 A 
HETATM   37  C   UNL     1      27.729  46.050  55.064  1.00  0.00     0.019 A 
ENDBRANCH  29  31
ENDBRANCH  28  29
ENDBRANCH   2  28
TORSDOF 6
ENDMDL
MODEL 2
REMARK VINA RESULT:      -8.9      2.847      4.258
REMARK  6 active torsions:
REMARK  status: ('A' for Active; 'I' for Inactive)
REMARK    1  A    between atoms: C_2  and  O_3 
REMARK    2  A    between atoms: O_3  and  C_4 
REMARK    3  A    between atoms: C_5  and  O_6 
REMARK    4  A    between atoms: O_6  and  C_7 
REMARK    5  A    between atoms: C_7  and  C_8 
REMARK    6  A    between atoms: C_18  and  C_19 
ROOT
HETATM    1  C   UNL     1      23.666  48.065  49.260  1.00  0.00     0.103 A 
HETATM    2  C   UNL     1      24.454  46.912  49.218  1.00  0.00     0.112 A 
HETATM    3  C   UNL     1      23.896  45.654  49.002  1.00  0.00     0.041 A 
HETATM    4  C   UNL     1      22.526  45.544  48.776  1.00  0.00     0.014 A 
HETATM    5  C   UNL     1      21.697  46.684  48.790  1.00  0.00    -0.013 A 
HETATM    6  C   UNL     1      22.288  47.939  49.052  1.00  0.00     0.050 A 
ENDROOT
BRANCH   5   7
HETATM    7  C   UNL     1      20.207  46.496  48.533  1.00  0.00     0.219 C 
HETATM    8  N   UNL     1      19.427  46.819  49.701  1.00  0.00    -0.332 N 
HETATM    9  C   UNL     1      18.899  48.053  49.954  1.00  0.00     0.256 C 
HETATM   10  H   UNL     1      19.548  46.246  50.523  1.00  0.00     0.165 HD
HETATM   11  O   UNL     1      18.504  48.374  51.070  1.00  0.00    -0.267 OA
HETATM   12  C   UNL     1      18.794  48.930  48.803  1.00  0.00     0.073 A 
HETATM   13  C   UNL     1      19.190  48.464  47.572  1.00  0.00     0.088 A 
HETATM   14  C   UNL     1      18.292  50.268  48.731  1.00  0.00    -0.023 A 
HETATM   15  S   UNL     1      18.955  49.606  46.334  1.00  0.00    -0.074 SA
HETATM   16  N   UNL     1      19.711  47.234  47.385  1.00  0.00    -0.358 N 
HETATM   17  C   UNL     1      18.321  50.742  47.432  1.00  0.00     0.018 A 
HETATM   18  C   UNL     1      17.871  52.097  47.007  1.00  0.00     0.281 C 
HETATM   19  N   UNL     1      17.017  52.761  48.083  1.00  0.00    -0.070 N 
HETATM   20  C   UNL     1      17.624  52.575  49.473  1.00  0.00     0.239 C 
HETATM   21  H   UNL     1      17.045  53.768  47.883  1.00  0.00     0.279 HD
HETATM   22  C   UNL     1      15.573  52.357  48.005  1.00  0.00     0.270 C 
HETATM   23  C   UNL     1      17.752  51.092  49.862  1.00  0.00     0.068 C 
HETATM   24  H   UNL     1      20.140  46.984  46.498  1.00  0.00     0.162 HD
ENDBRANCH   5   7
BRANCH   1  25
HETATM   25  O   UNL     1      24.313  49.241  49.532  1.00  0.00    -0.349 OA
BRANCH  25  26
HETATM   26  C   UNL     1      24.650  50.056  48.412  1.00  0.00     0.171 C 
HETATM   27  C   UNL     1      23.441  50.908  48.070  1.00  0.00     0.034 C 
ENDBRANCH  25  26
ENDBRANCH   1  25
BRANCH   2  28
HETATM   28  O   UNL     1      25.834  46.994  49.419  1.00  0.00    -0.272 OA
BRANCH  28  29
HETATM   29  C   UNL     1      26.318  45.849  50.016  1.00  0.00     0.300 C 
HETATM   30  O   UNL     1      26.929  44.927  49.494  1.00  0.00    -0.259 OA
BRANCH  29  31
HETATM   31  C   UNL     1      26.069  45.909  51.470  1.00  0.00     0.061 A 
HETATM   32  C   UNL     1      25.640  44.812  52.228  1.00  0.00     0.050 A 
HETATM   33 CL   UNL     1      25.379  43.241  51.559  1.00  0.00    -0.083 Cl
HETATM   34  C   UNL     1      25.467  44.952  53.610  1.00  0.00     0.025 A 
HETATM   35  C   UNL     1      25.735  46.172  54.236  1.00  0.00     0.002 A 
HETATM   36  C   UNL     1      26.185  47.257  53.486  1.00  0.00     0.001 A 
HETATM   37  C   UNL     1      26.355  47.127  52.108  1.00  0.00     0.019 A 
ENDBRANCH  29  31
ENDBRANCH  28  29
ENDBRANCH   2  28
TORSDOF 6
ENDMDL
MODEL 3
REMARK VINA RESULT:      -8.8      5.631      9.386
REMARK  6 active torsions:
REMARK  status: ('A' for Active; 'I' for Inactive)
REMARK    1  A    between atoms: C_2  and  O_3 
REMARK    2  A    between atoms: O_3  and  C_4 
REMARK    3  A    between atoms: C_5  and  O_6 
REMARK    4  A    between atoms: O_6  and  C_7 
REMARK    5  A    between atoms: C_7  and  C_8 
REMARK    6  A    between atoms: C_18  and  C_19 
ROOT
HETATM    1  C   UNL     1      26.996  43.486  49.967  1.00  0.00     0.103 A 
HETATM    2  C   UNL     1      27.598  43.006  51.134  1.00  0.00     0.112 A 
HETATM    3  C   UNL     1      27.435  41.685  51.548  1.00  0.00     0.041 A 
HETATM    4  C   UNL     1      26.693  40.809  50.760  1.00  0.00     0.014 A 
HETATM    5  C   UNL     1      26.085  41.246  49.566  1.00  0.00    -0.013 A 
HETATM    6  C   UNL     1      26.236  42.600  49.195  1.00  0.00     0.050 A 
ENDROOT
BRANCH   5   7
HETATM    7  C   UNL     1      25.290  40.237  48.748  1.00  0.00     0.219 C 
HETATM    8  N   UNL     1      25.035  40.723  47.416  1.00  0.00    -0.332 N 
HETATM    9  C   UNL     1      25.841  40.474  46.341  1.00  0.00     0.256 C 
HETATM   10  H   UNL     1      24.456  41.543  47.315  1.00  0.00     0.165 HD
HETATM   11  O   UNL     1      25.766  41.130  45.308  1.00  0.00    -0.267 OA
HETATM   12  C   UNL     1      26.748  39.351  46.493  1.00  0.00     0.073 A 
HETATM   13  C   UNL     1      26.714  38.620  47.657  1.00  0.00     0.088 A 
HETATM   14  C   UNL     1      27.708  38.836  45.567  1.00  0.00    -0.023 A 
HETATM   15  S   UNL     1      27.808  37.319  47.643  1.00  0.00    -0.074 SA
HETATM   16  N   UNL     1      25.898  38.920  48.689  1.00  0.00    -0.358 N 
HETATM   17  C   UNL     1      28.345  37.720  46.078  1.00  0.00     0.018 A 
HETATM   18  C   UNL     1      29.400  36.940  45.374  1.00  0.00     0.281 C 
HETATM   19  N   UNL     1      29.427  37.264  43.883  1.00  0.00    -0.070 N 
HETATM   20  C   UNL     1      29.315  38.767  43.634  1.00  0.00     0.239 C 
HETATM   21  H   UNL     1      30.355  36.980  43.548  1.00  0.00     0.279 HD
HETATM   22  C   UNL     1      28.433  36.455  43.098  1.00  0.00     0.270 C 
HETATM   23  C   UNL     1      28.008  39.357  44.192  1.00  0.00     0.068 C 
HETATM   24  H   UNL     1      26.013  38.461  49.589  1.00  0.00     0.162 HD
ENDBRANCH   5   7
BRANCH   1  25
HETATM   25  O   UNL     1      27.180  44.813  49.684  1.00  0.00    -0.349 OA
BRANCH  25  26
HETATM   26  C   UNL     1      26.019  45.640  49.730  1.00  0.00     0.171 C 
HETATM   27  C   UNL     1      26.170  46.598  50.898  1.00  0.00     0.034 C 
ENDBRANCH  25  26
ENDBRANCH   1  25
BRANCH   2  28
HETATM   28  O   UNL     1      28.366  43.856  51.932  1.00  0.00    -0.272 OA
BRANCH  28  29
HETATM   29  C   UNL     1      27.762  44.072  53.152  1.00  0.00     0.300 C 
HETATM   30  O   UNL     1      26.567  44.069  53.413  1.00  0.00    -0.259 OA
BRANCH  29  31
HETATM   31  C   UNL     1      28.797  44.233  54.193  1.00  0.00     0.061 A 
HETATM   32  C   UNL     1      28.938  45.388  54.973  1.00  0.00     0.050 A 
HETATM   33 CL   UNL     1      27.894  46.758  54.836  1.00  0.00    -0.083 Cl
HETATM   34  C   UNL     1      29.926  45.436  55.963  1.00  0.00     0.025 A 
HETATM   35  C   UNL     1      30.757  44.337  56.187  1.00  0.00     0.002 A 
HETATM   36  C   UNL     1      30.602  43.179  55.428  1.00  0.00     0.001 A 
HETATM   37  C   UNL     1      29.624  43.124  54.435  1.00  0.00     0.019 A 
ENDBRANCH  29  31
ENDBRANCH  28  29
ENDBRANCH   2  28
TORSDOF 6
ENDMDL
MODEL 4
REMARK VINA RESULT:      -8.8      3.934     10.103
REMARK  6 active torsions:
REMARK  status: ('A' for Active; 'I' for Inactive)
REMARK    1  A    between atoms: C_2  and  O_3 
REMARK    2  A    between atoms: O_3  and  C_4 
REMARK    3  A    between atoms: C_5  and  O_6 
REMARK    4  A    between atoms: O_6  and  C_7 
REMARK    5  A    between atoms: C_7  and  C_8 
REMARK    6  A    between atoms: C_18  and  C_19 
ROOT
HETATM    1  C   UNL     1      19.857  48.939  49.452  1.00  0.00     0.103 A 
HETATM    2  C   UNL     1      18.800  48.058  49.203  1.00  0.00     0.112 A 
HETATM    3  C   UNL     1      19.006  46.832  48.573  1.00  0.00     0.041 A 
HETATM    4  C   UNL     1      20.299  46.453  48.222  1.00  0.00     0.014 A 
HETATM    5  C   UNL     1      21.396  47.303  48.471  1.00  0.00    -0.013 A 
HETATM    6  C   UNL     1      21.148  48.555  49.075  1.00  0.00     0.050 A 
ENDROOT
BRANCH   5   7
HETATM    7  C   UNL     1      22.785  46.828  48.066  1.00  0.00     0.219 C 
HETATM    8  N   UNL     1      23.798  47.781  48.443  1.00  0.00    -0.332 N 
HETATM    9  C   UNL     1      24.484  47.745  49.623  1.00  0.00     0.256 C 
HETATM   10  H   UNL     1      23.776  48.690  48.005  1.00  0.00     0.165 HD
HETATM   11  O   UNL     1      25.110  48.714  50.039  1.00  0.00    -0.267 OA
HETATM   12  C   UNL     1      24.457  46.471  50.317  1.00  0.00     0.073 A 
HETATM   13  C   UNL     1      23.793  45.414  49.743  1.00  0.00     0.088 A 
HETATM   14  C   UNL     1      25.066  46.108  51.559  1.00  0.00    -0.023 A 
HETATM   15  S   UNL     1      23.904  43.991  50.669  1.00  0.00    -0.074 SA
HETATM   16  N   UNL     1      23.127  45.512  48.574  1.00  0.00    -0.358 N 
HETATM   17  C   UNL     1      24.841  44.776  51.854  1.00  0.00     0.018 A 
HETATM   18  C   UNL     1      25.335  44.075  53.072  1.00  0.00     0.281 C 
HETATM   19  N   UNL     1      26.437  44.872  53.763  1.00  0.00    -0.070 N 
HETATM   20  C   UNL     1      26.086  46.357  53.844  1.00  0.00     0.239 C 
HETATM   21  H   UNL     1      26.473  44.527  54.729  1.00  0.00     0.279 HD
HETATM   22  C   UNL     1      27.794  44.613  53.174  1.00  0.00     0.270 C 
HETATM   23  C   UNL     1      25.888  46.988  52.455  1.00  0.00     0.068 C 
HETATM   24  H   UNL     1      22.517  44.761  48.262  1.00  0.00     0.162 HD
ENDBRANCH   5   7
BRANCH   1  25
HETATM   25  O   UNL     1      19.532  50.138  50.028  1.00  0.00    -0.349 OA
BRANCH  25  26
HETATM   26  C   UNL     1      20.368  51.247  49.704  1.00  0.00     0.171 C 
HETATM   27  C   UNL     1      19.725  52.001  48.554  1.00  0.00     0.034 C 
ENDBRANCH  25  26
ENDBRANCH   1  25
BRANCH   2  28
HETATM   28  O   UNL     1      17.496  48.402  49.565  1.00  0.00    -0.272 OA
BRANCH  28  29
HETATM   29  C   UNL     1      16.652  48.362  48.476  1.00  0.00     0.300 C 
HETATM   30  O   UNL     1      15.920  47.449  48.123  1.00  0.00    -0.259 OA
BRANCH  29  31
HETATM   31  C   UNL     1      16.673  49.669  47.788  1.00  0.00     0.061 A 
HETATM   32  C   UNL     1      17.281  49.879  46.544  1.00  0.00     0.050 A 
HETATM   33 CL   UNL     1      18.056  48.626  45.643  1.00  0.00    -0.083 Cl
HETATM   34  C   UNL     1      17.218  51.145  45.950  1.00  0.00     0.025 A 
HETATM   35  C   UNL     1      16.540  52.191  46.582  1.00  0.00     0.002 A 
HETATM   36  C   UNL     1      15.914  51.976  47.808  1.00  0.00     0.001 A 
HETATM   37  C   UNL     1      15.977  50.718  48.410  1.00  0.00     0.019 A 
ENDBRANCH  29  31
ENDBRANCH  28  29
ENDBRANCH   2  28
TORSDOF 6
ENDMDL
MODEL 5
REMARK VINA RESULT:      -8.7     10.954     12.782
REMARK  6 active torsions:
REMARK  status: ('A' for Active; 'I' for Inactive)
REMARK    1  A    between atoms: C_2  and  O_3 
REMARK    2  A    between atoms: O_3  and  C_4 
REMARK    3  A    between atoms: C_5  and  O_6 
REMARK    4  A    between atoms: O_6  and  C_7 
REMARK    5  A    between atoms: C_7  and  C_8 
REMARK    6  A    between atoms: C_18  and  C_19 
ROOT
HETATM    1  C   UNL     1      28.914  50.566  41.078  1.00  0.00     0.103 A 
HETATM    2  C   UNL     1      29.189  51.924  40.896  1.00  0.00     0.112 A 
HETATM    3  C   UNL     1      28.743  52.614  39.771  1.00  0.00     0.041 A 
HETATM    4  C   UNL     1      27.967  51.950  38.825  1.00  0.00     0.014 A 
HETATM    5  C   UNL     1      27.650  50.585  38.979  1.00  0.00    -0.013 A 
HETATM    6  C   UNL     1      28.151  49.905  40.110  1.00  0.00     0.050 A 
ENDROOT
BRANCH   5   7
HETATM    7  C   UNL     1      26.794  49.918  37.910  1.00  0.00     0.219 C 
HETATM    8  N   UNL     1      26.848  48.481  38.014  1.00  0.00    -0.332 N 
HETATM    9  C   UNL     1      25.961  47.731  38.733  1.00  0.00     0.256 C 
HETATM   10  H   UNL     1      27.735  48.029  37.852  1.00  0.00     0.165 HD
HETATM   11  O   UNL     1      26.198  46.568  39.044  1.00  0.00    -0.267 OA
HETATM   12  C   UNL     1      24.709  48.389  39.055  1.00  0.00     0.073 A 
HETATM   13  C   UNL     1      24.494  49.670  38.603  1.00  0.00     0.088 A 
HETATM   14  C   UNL     1      23.588  47.887  39.786  1.00  0.00    -0.023 A 
HETATM   15  S   UNL     1      22.961  50.266  39.032  1.00  0.00    -0.074 SA
HETATM   16  N   UNL     1      25.413  50.364  37.900  1.00  0.00    -0.358 N 
HETATM   17  C   UNL     1      22.566  48.817  39.834  1.00  0.00     0.018 A 
HETATM   18  C   UNL     1      21.257  48.616  40.516  1.00  0.00     0.281 C 
HETATM   19  N   UNL     1      21.011  47.141  40.820  1.00  0.00    -0.070 N 
HETATM   20  C   UNL     1      22.262  46.469  41.384  1.00  0.00     0.239 C 
HETATM   21  H   UNL     1      20.305  47.119  41.565  1.00  0.00     0.279 HD
HETATM   22  C   UNL     1      20.414  46.403  39.655  1.00  0.00     0.270 C 
HETATM   23  C   UNL     1      23.449  46.528  40.408  1.00  0.00     0.068 C 
HETATM   24  H   UNL     1      25.286  51.357  37.722  1.00  0.00     0.162 HD
ENDBRANCH   5   7
BRANCH   1  25
HETATM   25  O   UNL     1      29.446  49.977  42.194  1.00  0.00    -0.349 OA
BRANCH  25  26
HETATM   26  C   UNL     1      29.942  48.649  42.037  1.00  0.00     0.171 C 
HETATM   27  C   UNL     1      31.238  48.536  42.820  1.00  0.00     0.034 C 
ENDBRANCH  25  26
ENDBRANCH   1  25
BRANCH   2  28
HETATM   28  O   UNL     1      29.946  52.622  41.840  1.00  0.00    -0.272 OA
BRANCH  28  29
HETATM   29  C   UNL     1      31.102  53.122  41.278  1.00  0.00     0.300 C 
HETATM   30  O   UNL     1      31.289  54.231  40.800  1.00  0.00    -0.259 OA
BRANCH  29  31
HETATM   31  C   UNL     1      32.183  52.123  41.405  1.00  0.00     0.061 A 
HETATM   32  C   UNL     1      32.711  51.412  40.321  1.00  0.00     0.050 A 
HETATM   33 CL   UNL     1      32.184  51.637  38.691  1.00  0.00    -0.083 Cl
HETATM   34  C   UNL     1      33.762  50.511  40.532  1.00  0.00     0.025 A 
HETATM   35  C   UNL     1      34.295  50.333  41.811  1.00  0.00     0.002 A 
HETATM   36  C   UNL     1      33.786  51.059  42.886  1.00  0.00     0.001 A 
HETATM   37  C   UNL     1      32.735  51.954  42.685  1.00  0.00     0.019 A 
ENDBRANCH  29  31
ENDBRANCH  28  29
ENDBRANCH   2  28
TORSDOF 6
ENDMDL
MODEL 6
REMARK VINA RESULT:      -8.6      1.760      2.333
REMARK  6 active torsions:
REMARK  status: ('A' for Active; 'I' for Inactive)
REMARK    1  A    between atoms: C_2  and  O_3 
REMARK    2  A    between atoms: O_3  and  C_4 
REMARK    3  A    between atoms: C_5  and  O_6 
REMARK    4  A    between atoms: O_6  and  C_7 
REMARK    5  A    between atoms: C_7  and  C_8 
REMARK    6  A    between atoms: C_18  and  C_19 
ROOT
HETATM    1  C   UNL     1      24.931  42.868  50.360  1.00  0.00     0.103 A 
HETATM    2  C   UNL     1      25.424  43.905  51.156  1.00  0.00     0.112 A 
HETATM    3  C   UNL     1      25.137  45.240  50.876  1.00  0.00     0.041 A 
HETATM    4  C   UNL     1      24.302  45.548  49.805  1.00  0.00     0.014 A 
HETATM    5  C   UNL     1      23.766  44.532  48.988  1.00  0.00    -0.013 A 
HETATM    6  C   UNL     1      24.110  43.193  49.275  1.00  0.00     0.050 A 
ENDROOT
BRANCH   5   7
HETATM    7  C   UNL     1      22.857  44.936  47.835  1.00  0.00     0.219 C 
HETATM    8  N   UNL     1      21.484  44.584  48.100  1.00  0.00    -0.332 N 
HETATM    9  C   UNL     1      20.577  45.422  48.684  1.00  0.00     0.256 C 
HETATM   10  H   UNL     1      21.255  43.605  48.184  1.00  0.00     0.165 HD
HETATM   11  O   UNL     1      19.525  45.009  49.160  1.00  0.00    -0.267 OA
HETATM   12  C   UNL     1      20.924  46.830  48.654  1.00  0.00     0.073 A 
HETATM   13  C   UNL     1      22.088  47.216  48.033  1.00  0.00     0.088 A 
HETATM   14  C   UNL     1      20.200  47.949  49.172  1.00  0.00    -0.023 A 
HETATM   15  S   UNL     1      22.312  48.902  48.053  1.00  0.00    -0.074 SA
HETATM   16  N   UNL     1      22.950  46.340  47.478  1.00  0.00    -0.358 N 
HETATM   17  C   UNL     1      20.853  49.137  48.898  1.00  0.00     0.018 A 
HETATM   18  C   UNL     1      20.372  50.489  49.296  1.00  0.00     0.281 C 
HETATM   19  N   UNL     1      18.898  50.459  49.693  1.00  0.00    -0.070 N 
HETATM   20  C   UNL     1      18.583  49.259  50.584  1.00  0.00     0.239 C 
HETATM   21  H   UNL     1      18.742  51.298  50.265  1.00  0.00     0.279 HD
HETATM   22  C   UNL     1      17.980  50.580  48.511  1.00  0.00     0.270 C 
HETATM   23  C   UNL     1      18.882  47.919  49.889  1.00  0.00     0.068 C 
HETATM   24  H   UNL     1      23.871  46.643  47.173  1.00  0.00     0.162 HD
ENDBRANCH   5   7
BRANCH   1  25
HETATM   25  O   UNL     1      25.320  41.599  50.696  1.00  0.00    -0.349 OA
BRANCH  25  26
HETATM   26  C   UNL     1      25.888  40.809  49.653  1.00  0.00     0.171 C 
HETATM   27  C   UNL     1      27.331  41.242  49.469  1.00  0.00     0.034 C 
ENDBRANCH  25  26
ENDBRANCH   1  25
BRANCH   2  28
HETATM   28  O   UNL     1      26.246  43.624  52.249  1.00  0.00    -0.272 OA
BRANCH  28  29
HETATM   29  C   UNL     1      25.788  44.252  53.389  1.00  0.00     0.300 C 
HETATM   30  O   UNL     1      24.672  44.193  53.885  1.00  0.00    -0.259 OA
BRANCH  29  31
HETATM   31  C   UNL     1      26.900  44.983  54.029  1.00  0.00     0.061 A 
HETATM   32  C   UNL     1      26.911  46.372  54.208  1.00  0.00     0.050 A 
HETATM   33 CL   UNL     1      25.609  47.401  53.729  1.00  0.00    -0.083 Cl
HETATM   34  C   UNL     1      27.992  46.976  54.860  1.00  0.00     0.025 A 
HETATM   35  C   UNL     1      29.048  46.201  55.347  1.00  0.00     0.002 A 
HETATM   36  C   UNL     1      29.026  44.816  55.190  1.00  0.00     0.001 A 
HETATM   37  C   UNL     1      27.954  44.207  54.537  1.00  0.00     0.019 A 
ENDBRANCH  29  31
ENDBRANCH  28  29
ENDBRANCH   2  28
TORSDOF 6
ENDMDL
MODEL 7
REMARK VINA RESULT:      -8.5      5.663      7.769
REMARK  6 active torsions:
REMARK  status: ('A' for Active; 'I' for Inactive)
REMARK    1  A    between atoms: C_2  and  O_3 
REMARK    2  A    between atoms: O_3  and  C_4 
REMARK    3  A    between atoms: C_5  and  O_6 
REMARK    4  A    between atoms: O_6  and  C_7 
REMARK    5  A    between atoms: C_7  and  C_8 
REMARK    6  A    between atoms: C_18  and  C_19 
ROOT
HETATM    1  C   UNL     1      26.593  43.240  50.695  1.00  0.00     0.103 A 
HETATM    2  C   UNL     1      27.680  43.124  51.567  1.00  0.00     0.112 A 
HETATM    3  C   UNL     1      28.426  41.950  51.650  1.00  0.00     0.041 A 
HETATM    4  C   UNL     1      28.113  40.881  50.814  1.00  0.00     0.014 A 
HETATM    5  C   UNL     1      27.037  40.963  49.906  1.00  0.00    -0.013 A 
HETATM    6  C   UNL     1      26.276  42.151  49.875  1.00  0.00     0.050 A 
ENDROOT
BRANCH   5   7
HETATM    7  C   UNL     1      26.750  39.759  49.018  1.00  0.00     0.219 C 
HETATM    8  N   UNL     1      25.358  39.702  48.645  1.00  0.00    -0.332 N 
HETATM    9  C   UNL     1      24.846  40.257  47.507  1.00  0.00     0.256 C 
HETATM   10  H   UNL     1      24.679  39.560  49.377  1.00  0.00     0.165 HD
HETATM   11  O   UNL     1      23.643  40.450  47.364  1.00  0.00    -0.267 OA
HETATM   12  C   UNL     1      25.816  40.552  46.469  1.00  0.00     0.073 A 
HETATM   13  C   UNL     1      27.136  40.234  46.682  1.00  0.00     0.088 A 
HETATM   14  C   UNL     1      25.608  41.128  45.177  1.00  0.00    -0.023 A 
HETATM   15  S   UNL     1      28.122  40.606  45.347  1.00  0.00    -0.074 SA
HETATM   16  N   UNL     1      27.585  39.691  47.833  1.00  0.00    -0.358 N 
HETATM   17  C   UNL     1      26.792  41.201  44.467  1.00  0.00     0.018 A 
HETATM   18  C   UNL     1      26.930  41.749  43.089  1.00  0.00     0.281 C 
HETATM   19  N   UNL     1      25.574  41.861  42.398  1.00  0.00    -0.070 N 
HETATM   20  C   UNL     1      24.515  42.442  43.333  1.00  0.00     0.239 C 
HETATM   21  H   UNL     1      25.699  42.540  41.638  1.00  0.00     0.279 HD
HETATM   22  C   UNL     1      25.151  40.575  41.746  1.00  0.00     0.270 C 
HETATM   23  C   UNL     1      24.303  41.577  44.587  1.00  0.00     0.068 C 
HETATM   24  H   UNL     1      28.582  39.619  48.016  1.00  0.00     0.162 HD
ENDBRANCH   5   7
BRANCH   1  25
HETATM   25  O   UNL     1      25.899  44.420  50.734  1.00  0.00    -0.349 OA
BRANCH  25  26
HETATM   26  C   UNL     1      25.880  45.188  49.533  1.00  0.00     0.171 C 
HETATM   27  C   UNL     1      26.532  46.528  49.821  1.00  0.00     0.034 C 
ENDBRANCH  25  26
ENDBRANCH   1  25
BRANCH   2  28
HETATM   28  O   UNL     1      28.031  44.187  52.401  1.00  0.00    -0.272 OA
BRANCH  28  29
HETATM   29  C   UNL     1      27.672  43.933  53.707  1.00  0.00     0.300 C 
HETATM   30  O   UNL     1      26.606  43.505  54.127  1.00  0.00    -0.259 OA
BRANCH  29  31
HETATM   31  C   UNL     1      28.829  44.175  54.592  1.00  0.00     0.061 A 
HETATM   32  C   UNL     1      29.060  45.389  55.251  1.00  0.00     0.050 A 
HETATM   33 CL   UNL     1      27.999  46.747  55.136  1.00  0.00    -0.083 Cl
HETATM   34  C   UNL     1      30.165  45.514  56.101  1.00  0.00     0.025 A 
HETATM   35  C   UNL     1      31.026  44.433  56.307  1.00  0.00     0.002 A 
HETATM   36  C   UNL     1      30.783  43.217  55.670  1.00  0.00     0.001 A 
HETATM   37  C   UNL     1      29.687  43.086  54.817  1.00  0.00     0.019 A 
ENDBRANCH  29  31
ENDBRANCH  28  29
ENDBRANCH   2  28
TORSDOF 6
ENDMDL
MODEL 8
REMARK VINA RESULT:      -8.5      4.968      7.552
REMARK  6 active torsions:
REMARK  status: ('A' for Active; 'I' for Inactive)
REMARK    1  A    between atoms: C_2  and  O_3 
REMARK    2  A    between atoms: O_3  and  C_4 
REMARK    3  A    between atoms: C_5  and  O_6 
REMARK    4  A    between atoms: O_6  and  C_7 
REMARK    5  A    between atoms: C_7  and  C_8 
REMARK    6  A    between atoms: C_18  and  C_19 
ROOT
HETATM    1  C   UNL     1      20.011  49.139  49.233  1.00  0.00     0.103 A 
HETATM    2  C   UNL     1      21.150  49.950  49.226  1.00  0.00     0.112 A 
HETATM    3  C   UNL     1      21.088  51.292  48.856  1.00  0.00     0.041 A 
HETATM    4  C   UNL     1      19.857  51.853  48.528  1.00  0.00     0.014 A 
HETATM    5  C   UNL     1      18.680  51.077  48.541  1.00  0.00    -0.013 A 
HETATM    6  C   UNL     1      18.784  49.711  48.881  1.00  0.00     0.050 A 
ENDROOT
BRANCH   5   7
HETATM    7  C   UNL     1      17.365  51.753  48.175  1.00  0.00     0.219 C 
HETATM    8  N   UNL     1      17.475  52.481  46.936  1.00  0.00    -0.332 N 
HETATM    9  C   UNL     1      17.173  51.957  45.710  1.00  0.00     0.256 C 
HETATM   10  H   UNL     1      18.105  53.268  46.904  1.00  0.00     0.165 HD
HETATM   11  O   UNL     1      17.550  52.484  44.669  1.00  0.00    -0.267 OA
HETATM   12  C   UNL     1      16.339  50.771  45.731  1.00  0.00     0.073 A 
HETATM   13  C   UNL     1      15.897  50.288  46.940  1.00  0.00     0.088 A 
HETATM   14  C   UNL     1      15.852  49.991  44.636  1.00  0.00    -0.023 A 
HETATM   15  S   UNL     1      14.895  48.924  46.773  1.00  0.00    -0.074 SA
HETATM   16  N   UNL     1      16.233  50.846  48.121  1.00  0.00    -0.358 N 
HETATM   17  C   UNL     1      15.044  48.959  45.077  1.00  0.00     0.018 A 
HETATM   18  C   UNL     1      14.376  47.960  44.198  1.00  0.00     0.281 C 
HETATM   19  N   UNL     1      14.357  48.425  42.745  1.00  0.00    -0.070 N 
HETATM   20  C   UNL     1      15.705  49.008  42.326  1.00  0.00     0.239 C 
HETATM   21  H   UNL     1      14.215  47.579  42.179  1.00  0.00     0.279 HD
HETATM   22  C   UNL     1      13.197  49.331  42.443  1.00  0.00     0.270 C 
HETATM   23  C   UNL     1      16.105  50.227  43.175  1.00  0.00     0.068 C 
HETATM   24  H   UNL     1      16.023  50.372  48.996  1.00  0.00     0.162 HD
ENDBRANCH   5   7
BRANCH   1  25
HETATM   25  O   UNL     1      20.197  47.823  49.563  1.00  0.00    -0.349 OA
BRANCH  25  26
HETATM   26  C   UNL     1      19.816  46.861  48.581  1.00  0.00     0.171 C 
HETATM   27  C   UNL     1      20.963  45.882  48.412  1.00  0.00     0.034 C 
ENDBRANCH  25  26
ENDBRANCH   1  25
BRANCH   2  28
HETATM   28  O   UNL     1      22.395  49.419  49.572  1.00  0.00    -0.272 OA
BRANCH  28  29
HETATM   29  C   UNL     1      23.093  49.020  48.452  1.00  0.00     0.300 C 
HETATM   30  O   UNL     1      22.653  48.771  47.338  1.00  0.00    -0.259 OA
BRANCH  29  31
HETATM   31  C   UNL     1      24.539  49.009  48.751  1.00  0.00     0.061 A 
HETATM   32  C   UNL     1      25.157  48.039  49.550  1.00  0.00     0.050 A 
HETATM   33 CL   UNL     1      24.307  46.714  50.262  1.00  0.00    -0.083 Cl
HETATM   34  C   UNL     1      26.542  48.087  49.748  1.00  0.00     0.025 A 
HETATM   35  C   UNL     1      27.309  49.084  49.141  1.00  0.00     0.002 A 
HETATM   36  C   UNL     1      26.699  50.035  48.326  1.00  0.00     0.001 A 
HETATM   37  C   UNL     1      25.318  49.997  48.128  1.00  0.00     0.019 A 
ENDBRANCH  29  31
ENDBRANCH  28  29
ENDBRANCH   2  28
TORSDOF 6
ENDMDL
MODEL 9
REMARK VINA RESULT:      -8.4      3.919      6.128
REMARK  6 active torsions:
REMARK  status: ('A' for Active; 'I' for Inactive)
REMARK    1  A    between atoms: C_2  and  O_3 
REMARK    2  A    between atoms: O_3  and  C_4 
REMARK    3  A    between atoms: C_5  and  O_6 
REMARK    4  A    between atoms: O_6  and  C_7 
REMARK    5  A    between atoms: C_7  and  C_8 
REMARK    6  A    between atoms: C_18  and  C_19 
ROOT
HETATM    1  C   UNL     1      25.055  46.212  50.718  1.00  0.00     0.103 A 
HETATM    2  C   UNL     1      25.754  45.231  51.426  1.00  0.00     0.112 A 
HETATM    3  C   UNL     1      25.343  43.899  51.426  1.00  0.00     0.041 A 
HETATM    4  C   UNL     1      24.236  43.526  50.668  1.00  0.00     0.014 A 
HETATM    5  C   UNL     1      23.513  44.481  49.924  1.00  0.00    -0.013 A 
HETATM    6  C   UNL     1      23.932  45.828  49.978  1.00  0.00     0.050 A 
ENDROOT
BRANCH   5   7
HETATM    7  C   UNL     1      22.314  44.007  49.113  1.00  0.00     0.219 C 
HETATM    8  N   UNL     1      21.868  45.022  48.192  1.00  0.00    -0.332 N 
HETATM    9  C   UNL     1      22.294  45.124  46.898  1.00  0.00     0.256 C 
HETATM   10  H   UNL     1      21.506  45.882  48.576  1.00  0.00     0.165 HD
HETATM   11  O   UNL     1      22.133  46.147  46.241  1.00  0.00    -0.267 OA
HETATM   12  C   UNL     1      22.899  43.925  46.348  1.00  0.00     0.073 A 
HETATM   13  C   UNL     1      22.972  42.797  47.130  1.00  0.00     0.088 A 
HETATM   14  C   UNL     1      23.440  43.706  45.042  1.00  0.00    -0.023 A 
HETATM   15  S   UNL     1      23.667  41.478  46.311  1.00  0.00    -0.074 SA
HETATM   16  N   UNL     1      22.538  42.759  48.407  1.00  0.00    -0.358 N 
HETATM   17  C   UNL     1      23.883  42.404  44.899  1.00  0.00     0.018 A 
HETATM   18  C   UNL     1      24.501  41.842  43.665  1.00  0.00     0.281 C 
HETATM   19  N   UNL     1      24.239  42.736  42.457  1.00  0.00    -0.070 N 
HETATM   20  C   UNL     1      24.449  44.211  42.796  1.00  0.00     0.239 C 
HETATM   21  H   UNL     1      24.954  42.490  41.762  1.00  0.00     0.279 HD
HETATM   22  C   UNL     1      22.912  42.458  41.810  1.00  0.00     0.270 C 
HETATM   23  C   UNL     1      23.512  44.694  43.916  1.00  0.00     0.068 C 
HETATM   24  H   UNL     1      22.753  41.964  49.002  1.00  0.00     0.162 HD
ENDBRANCH   5   7
BRANCH   1  25
HETATM   25  O   UNL     1      25.517  47.496  50.832  1.00  0.00    -0.349 OA
BRANCH  25  26
HETATM   26  C   UNL     1      25.685  48.222  49.616  1.00  0.00     0.171 C 
HETATM   27  C   UNL     1      27.173  48.426  49.392  1.00  0.00     0.034 C 
ENDBRANCH  25  26
ENDBRANCH   1  25
BRANCH   2  28
HETATM   28  O   UNL     1      26.881  45.571  52.177  1.00  0.00    -0.272 OA
BRANCH  28  29
HETATM   29  C   UNL     1      26.699  45.271  53.510  1.00  0.00     0.300 C 
HETATM   30  O   UNL     1      25.686  45.404  54.181  1.00  0.00    -0.259 OA
BRANCH  29  31
HETATM   31  C   UNL     1      27.926  44.648  54.047  1.00  0.00     0.061 A 
HETATM   32  C   UNL     1      28.744  45.253  55.009  1.00  0.00     0.050 A 
HETATM   33 CL   UNL     1      28.401  46.792  55.713  1.00  0.00    -0.083 Cl
HETATM   34  C   UNL     1      29.869  44.570  55.487  1.00  0.00     0.025 A 
HETATM   35  C   UNL     1      30.168  43.287  55.024  1.00  0.00     0.002 A 
HETATM   36  C   UNL     1      29.341  42.675  54.083  1.00  0.00     0.001 A 
HETATM   37  C   UNL     1      28.221  43.350  53.598  1.00  0.00     0.019 A 
ENDBRANCH  29  31
ENDBRANCH  28  29
ENDBRANCH   2  28
TORSDOF 6
ENDMDL
MODEL 10
REMARK VINA RESULT:      -8.3     14.294     15.698
REMARK  6 active torsions:
REMARK  status: ('A' for Active; 'I' for Inactive)
REMARK    1  A    between atoms: C_2  and  O_3 
REMARK    2  A    between atoms: O_3  and  C_4 
REMARK    3  A    between atoms: C_5  and  O_6 
REMARK    4  A    between atoms: O_6  and  C_7 
REMARK    5  A    between atoms: C_7  and  C_8 
REMARK    6  A    between atoms: C_18  and  C_19 
ROOT
HETATM    1  C   UNL     1      36.987  53.327  41.275  1.00  0.00     0.103 A 
HETATM    2  C   UNL     1      37.043  53.550  42.654  1.00  0.00     0.112 A 
HETATM    3  C   UNL     1      36.341  52.748  43.552  1.00  0.00     0.041 A 
HETATM    4  C   UNL     1      35.601  51.671  43.071  1.00  0.00     0.014 A 
HETATM    5  C   UNL     1      35.532  51.398  41.690  1.00  0.00    -0.013 A 
HETATM    6  C   UNL     1      36.222  52.254  40.804  1.00  0.00     0.050 A 
ENDROOT
BRANCH   5   7
HETATM    7  C   UNL     1      34.708  50.203  41.230  1.00  0.00     0.219 C 
HETATM    8  N   UNL     1      33.767  49.792  42.242  1.00  0.00    -0.332 N 
HETATM    9  C   UNL     1      32.479  50.240  42.319  1.00  0.00     0.256 C 
HETATM   10  H   UNL     1      34.135  49.441  43.114  1.00  0.00     0.165 HD
HETATM   11  O   UNL     1      31.807  50.110  43.337  1.00  0.00    -0.267 OA
HETATM   12  C   UNL     1      31.954  50.830  41.102  1.00  0.00     0.073 A 
HETATM   13  C   UNL     1      32.751  50.867  39.982  1.00  0.00     0.088 A 
HETATM   14  C   UNL     1      30.660  51.386  40.855  1.00  0.00    -0.023 A 
HETATM   15  S   UNL     1      31.960  51.548  38.640  1.00  0.00    -0.074 SA
HETATM   16  N   UNL     1      34.021  50.413  39.969  1.00  0.00    -0.358 N 
HETATM   17  C   UNL     1      30.540  51.805  39.543  1.00  0.00     0.018 A 
HETATM   18  C   UNL     1      29.323  52.431  38.953  1.00  0.00     0.281 C 
HETATM   19  N   UNL     1      28.100  52.206  39.837  1.00  0.00    -0.070 N 
HETATM   20  C   UNL     1      28.424  52.441  41.312  1.00  0.00     0.239 C 
HETATM   21  H   UNL     1      27.420  52.928  39.568  1.00  0.00     0.279 HD
HETATM   22  C   UNL     1      27.435  50.885  39.577  1.00  0.00     0.270 C 
HETATM   23  C   UNL     1      29.523  51.496  41.828  1.00  0.00     0.068 C 
HETATM   24  H   UNL     1      34.629  50.602  39.177  1.00  0.00     0.162 HD
ENDBRANCH   5   7
BRANCH   1  25
HETATM   25  O   UNL     1      37.673  54.208  40.483  1.00  0.00    -0.349 OA
BRANCH  25  26
HETATM   26  C   UNL     1      36.944  54.801  39.410  1.00  0.00     0.171 C 
HETATM   27  C   UNL     1      36.204  56.009  39.955  1.00  0.00     0.034 C 
ENDBRANCH  25  26
ENDBRANCH   1  25
BRANCH   2  28
HETATM   28  O   UNL     1      37.795  54.609  43.166  1.00  0.00    -0.272 OA
BRANCH  28  29
HETATM   29  C   UNL     1      39.035  54.179  43.588  1.00  0.00     0.300 C 
HETATM   30  O   UNL     1      40.051  54.041  42.922  1.00  0.00    -0.259 OA
BRANCH  29  31
HETATM   31  C   UNL     1      39.015  53.973  45.050  1.00  0.00     0.061 A 
HETATM   32  C   UNL     1      39.439  52.792  45.671  1.00  0.00     0.050 A 
HETATM   33 CL   UNL     1      40.070  51.438  44.804  1.00  0.00    -0.083 Cl
HETATM   34  C   UNL     1      39.419  52.701  47.068  1.00  0.00     0.025 A 
HETATM   35  C   UNL     1      38.995  53.784  47.842  1.00  0.00     0.002 A 
HETATM   36  C   UNL     1      38.596  54.968  47.225  1.00  0.00     0.001 A 
HETATM   37  C   UNL     1      38.607  55.065  45.834  1.00  0.00     0.019 A 
ENDBRANCH  29  31
ENDBRANCH  28  29
ENDBRANCH   2  28
TORSDOF 6
ENDMDL
