MODEL 1
REMARK VINA RESULT:      -9.2      0.000      0.000
REMARK  3 active torsions:
REMARK  status: ('A' for Active; 'I' for Inactive)
REMARK    1  A    between atoms: C_4  and  C_5 
REMARK    2  A    between atoms: C_11  and  C_12 
REMARK    3  A    between atoms: C_21  and  N_22 
ROOT
HETATM    1  C   UNL     1      27.543  46.958  55.508  1.00  0.00     0.098 A 
HETATM    2  N   UNL     1      26.919  48.008  56.080  1.00  0.00    -0.172 NA
HETATM    3  N   UNL     1      25.984  48.383  55.188  1.00  0.00    -0.256 N 
HETATM    4  H   UNL     1      25.391  49.175  55.404  1.00  0.00     0.191 HD
HETATM    5  C   UNL     1      25.985  47.612  54.075  1.00  0.00     0.175 A 
HETATM    6  C   UNL     1      26.950  46.656  54.249  1.00  0.00     0.036 A 
HETATM    7  C   UNL     1      27.132  45.579  53.213  1.00  0.00     0.077 C 
HETATM    8  C   UNL     1      26.428  46.034  51.917  1.00  0.00     0.076 C 
HETATM    9  C   UNL     1      26.887  45.480  50.686  1.00  0.00     0.100 C 
HETATM   10  N   UNL     1      27.290  45.090  49.671  1.00  0.00    -0.192 NA
HETATM   11  C   UNL     1      25.511  47.044  51.885  1.00  0.00     0.140 C 
HETATM   12  O   UNL     1      25.185  47.786  53.032  1.00  0.00    -0.279 OA
ENDROOT
BRANCH   7  13
HETATM   13  C   UNL     1      26.685  44.196  53.810  1.00  0.00     0.003 C 
HETATM   14  C   UNL     1      25.713  43.393  52.921  1.00  0.00     0.032 C 
HETATM   15  C   UNL     1      26.383  42.456  51.967  1.00  0.00    -0.030 C 
HETATM   16  C   UNL     1      27.634  42.011  52.136  1.00  0.00    -0.031 C 
HETATM   17  C   UNL     1      28.499  42.384  53.299  1.00  0.00     0.027 C 
HETATM   18  C   UNL     1      27.835  43.306  54.325  1.00  0.00     0.009 C 
ENDBRANCH   7  13
BRANCH  11  19
HETATM   19  N   UNL     1      24.853  47.498  50.763  1.00  0.00    -0.282 NA
HETATM   20  H   UNL     1      24.637  46.794  50.061  1.00  0.00     0.126 HD
HETATM   21  H   UNL     1      25.289  48.329  50.375  1.00  0.00     0.126 HD
ENDBRANCH  11  19
BRANCH   1  22
HETATM   22  C   UNL     1      28.641  46.281  56.196  1.00  0.00    -0.005 A 
HETATM   23  C   UNL     1      28.659  46.224  57.597  1.00  0.00     0.014 A 
HETATM   24  C   UNL     1      29.697  45.576  58.269  1.00  0.00     0.001 A 
HETATM   25  C   UNL     1      30.732  44.984  57.546  1.00  0.00     0.000 A 
HETATM   26  C   UNL     1      30.731  45.045  56.154  1.00  0.00     0.001 A 
HETATM   27  C   UNL     1      29.692  45.694  55.481  1.00  0.00     0.014 A 
ENDBRANCH   1  22
TORSDOF 3
ENDMDL
MODEL 2
REMARK VINA RESULT:      -9.0     13.278     15.184
REMARK  3 active torsions:
REMARK  status: ('A' for Active; 'I' for Inactive)
REMARK    1  A    between atoms: C_4  and  C_5 
REMARK    2  A    between atoms: C_11  and  C_12 
REMARK    3  A    between atoms: C_21  and  N_22 
ROOT
HETATM    1  C   UNL     1      32.307  49.024  41.445  1.00  0.00     0.098 A 
HETATM    2  N   UNL     1      32.967  47.856  41.307  1.00  0.00    -0.172 NA
HETATM    3  N   UNL     1      32.243  47.152  40.418  1.00  0.00    -0.256 N 
HETATM    4  H   UNL     1      32.550  46.220  40.165  1.00  0.00     0.191 HD
HETATM    5  C   UNL     1      31.153  47.825  39.982  1.00  0.00     0.175 A 
HETATM    6  C   UNL     1      31.169  49.053  40.589  1.00  0.00     0.036 A 
HETATM    7  C   UNL     1      30.126  50.078  40.232  1.00  0.00     0.077 C 
HETATM    8  C   UNL     1      28.964  49.355  39.519  1.00  0.00     0.076 C 
HETATM    9  C   UNL     1      27.678  49.969  39.562  1.00  0.00     0.100 C 
HETATM   10  N   UNL     1      26.612  50.421  39.643  1.00  0.00    -0.192 NA
HETATM   11  C   UNL     1      29.079  48.099  38.998  1.00  0.00     0.140 C 
HETATM   12  O   UNL     1      30.259  47.348  39.127  1.00  0.00    -0.279 OA
ENDROOT
BRANCH   7  13
HETATM   13  C   UNL     1      30.802  51.264  39.454  1.00  0.00     0.003 C 
HETATM   14  C   UNL     1      30.028  51.744  38.209  1.00  0.00     0.032 C 
HETATM   15  C   UNL     1      29.046  52.840  38.479  1.00  0.00    -0.030 C 
HETATM   16  C   UNL     1      29.117  53.636  39.553  1.00  0.00    -0.031 C 
HETATM   17  C   UNL     1      30.186  53.535  40.595  1.00  0.00     0.027 C 
HETATM   18  C   UNL     1      31.240  52.455  40.333  1.00  0.00     0.009 C 
ENDBRANCH   7  13
BRANCH  11  19
HETATM   19  N   UNL     1      28.081  47.400  38.356  1.00  0.00    -0.282 NA
HETATM   20  H   UNL     1      27.174  47.400  38.817  1.00  0.00     0.126 HD
HETATM   21  H   UNL     1      28.384  46.475  38.070  1.00  0.00     0.126 HD
ENDBRANCH  11  19
BRANCH   1  22
HETATM   22  C   UNL     1      32.805  50.056  42.351  1.00  0.00    -0.005 A 
HETATM   23  C   UNL     1      34.103  50.563  42.189  1.00  0.00     0.014 A 
HETATM   24  C   UNL     1      34.591  51.553  43.044  1.00  0.00     0.001 A 
HETATM   25  C   UNL     1      33.789  52.043  44.073  1.00  0.00     0.000 A 
HETATM   26  C   UNL     1      32.502  51.539  44.251  1.00  0.00     0.001 A 
HETATM   27  C   UNL     1      32.013  50.547  43.397  1.00  0.00     0.014 A 
ENDBRANCH   1  22
TORSDOF 3
ENDMDL
MODEL 3
REMARK VINA RESULT:      -8.9      3.213      4.930
REMARK  3 active torsions:
REMARK  status: ('A' for Active; 'I' for Inactive)
REMARK    1  A    between atoms: C_4  and  C_5 
REMARK    2  A    between atoms: C_11  and  C_12 
REMARK    3  A    between atoms: C_21  and  N_22 
ROOT
HETATM    1  C   UNL     1      28.702  42.766  53.275  1.00  0.00     0.098 A 
HETATM    2  N   UNL     1      29.622  41.789  53.136  1.00  0.00    -0.172 NA
HETATM    3  N   UNL     1      29.180  41.042  52.107  1.00  0.00    -0.256 N 
HETATM    4  H   UNL     1      29.716  40.230  51.825  1.00  0.00     0.191 HD
HETATM    5  C   UNL     1      28.020  41.506  51.585  1.00  0.00     0.175 A 
HETATM    6  C   UNL     1      27.690  42.638  52.282  1.00  0.00     0.036 A 
HETATM    7  C   UNL     1      26.488  43.446  51.871  1.00  0.00     0.077 C 
HETATM    8  C   UNL     1      25.607  42.567  50.957  1.00  0.00     0.076 C 
HETATM    9  C   UNL     1      24.219  42.881  50.877  1.00  0.00     0.100 C 
HETATM   10  N   UNL     1      23.076  43.081  50.851  1.00  0.00    -0.192 NA
HETATM   11  C   UNL     1      26.061  41.428  50.359  1.00  0.00     0.140 C 
HETATM   12  O   UNL     1      27.360  40.940  50.585  1.00  0.00    -0.279 OA
ENDROOT
BRANCH   7  13
HETATM   13  C   UNL     1      26.959  44.825  51.283  1.00  0.00     0.003 C 
HETATM   14  C   UNL     1      26.790  44.966  49.756  1.00  0.00     0.032 C 
HETATM   15  C   UNL     1      25.477  45.544  49.333  1.00  0.00    -0.030 C 
HETATM   16  C   UNL     1      24.701  46.270  50.147  1.00  0.00    -0.031 C 
HETATM   17  C   UNL     1      25.060  46.600  51.562  1.00  0.00     0.027 C 
HETATM   18  C   UNL     1      26.419  46.067  52.022  1.00  0.00     0.009 C 
ENDBRANCH   7  13
BRANCH  11  19
HETATM   19  N   UNL     1      25.326  40.601  49.539  1.00  0.00    -0.282 NA
HETATM   20  H   UNL     1      24.469  41.000  49.163  1.00  0.00     0.126 HD
HETATM   21  H   UNL     1      25.195  39.679  49.944  1.00  0.00     0.126 HD
ENDBRANCH  11  19
BRANCH   1  22
HETATM   22  C   UNL     1      28.849  43.781  54.317  1.00  0.00    -0.005 A 
HETATM   23  C   UNL     1      30.084  43.952  54.958  1.00  0.00     0.014 A 
HETATM   24  C   UNL     1      30.241  44.921  55.951  1.00  0.00     0.001 A 
HETATM   25  C   UNL     1      29.163  45.724  56.317  1.00  0.00     0.000 A 
HETATM   26  C   UNL     1      27.927  45.555  55.695  1.00  0.00     0.001 A 
HETATM   27  C   UNL     1      27.769  44.585  54.702  1.00  0.00     0.014 A 
ENDBRANCH   1  22
TORSDOF 3
ENDMDL
MODEL 4
REMARK VINA RESULT:      -8.7      3.267      6.590
REMARK  3 active torsions:
REMARK  status: ('A' for Active; 'I' for Inactive)
REMARK    1  A    between atoms: C_4  and  C_5 
REMARK    2  A    between atoms: C_11  and  C_12 
REMARK    3  A    between atoms: C_21  and  N_22 
ROOT
HETATM    1  C   UNL     1      26.001  44.084  49.773  1.00  0.00     0.098 A 
HETATM    2  N   UNL     1      25.443  43.256  48.865  1.00  0.00    -0.172 NA
HETATM    3  N   UNL     1      25.886  42.030  49.196  1.00  0.00    -0.256 N 
HETATM    4  H   UNL     1      25.600  41.237  48.635  1.00  0.00     0.191 HD
HETATM    5  C   UNL     1      26.700  42.044  50.279  1.00  0.00     0.175 A 
HETATM    6  C   UNL     1      26.776  43.341  50.708  1.00  0.00     0.036 A 
HETATM    7  C   UNL     1      27.538  43.671  51.964  1.00  0.00     0.077 C 
HETATM    8  C   UNL     1      28.454  42.474  52.299  1.00  0.00     0.076 C 
HETATM    9  C   UNL     1      29.617  42.730  53.083  1.00  0.00     0.100 C 
HETATM   10  N   UNL     1      30.601  42.932  53.663  1.00  0.00    -0.192 NA
HETATM   11  C   UNL     1      28.286  41.235  51.754  1.00  0.00     0.140 C 
HETATM   12  O   UNL     1      27.293  40.975  50.794  1.00  0.00    -0.279 OA
ENDROOT
BRANCH   7  13
HETATM   13  C   UNL     1      26.534  44.126  53.083  1.00  0.00     0.003 C 
HETATM   14  C   UNL     1      26.974  43.785  54.522  1.00  0.00     0.032 C 
HETATM   15  C   UNL     1      27.778  44.855  55.190  1.00  0.00    -0.030 C 
HETATM   16  C   UNL     1      27.763  46.134  54.796  1.00  0.00    -0.031 C 
HETATM   17  C   UNL     1      26.935  46.645  53.660  1.00  0.00     0.027 C 
HETATM   18  C   UNL     1      26.060  45.591  52.976  1.00  0.00     0.009 C 
ENDBRANCH   7  13
BRANCH  11  19
HETATM   19  N   UNL     1      29.069  40.131  52.009  1.00  0.00    -0.282 NA
HETATM   20  H   UNL     1      29.240  39.517  51.215  1.00  0.00     0.126 HD
HETATM   21  H   UNL     1      28.769  39.633  52.841  1.00  0.00     0.126 HD
ENDBRANCH  11  19
BRANCH   1  22
HETATM   22  C   UNL     1      25.745  45.522  49.722  1.00  0.00    -0.005 A 
HETATM   23  C   UNL     1      24.427  46.000  49.759  1.00  0.00     0.014 A 
HETATM   24  C   UNL     1      24.166  47.371  49.717  1.00  0.00     0.001 A 
HETATM   25  C   UNL     1      25.221  48.278  49.633  1.00  0.00     0.000 A 
HETATM   26  C   UNL     1      26.535  47.815  49.584  1.00  0.00     0.001 A 
HETATM   27  C   UNL     1      26.796  46.442  49.625  1.00  0.00     0.014 A 
ENDBRANCH   1  22
TORSDOF 3
ENDMDL
MODEL 5
REMARK VINA RESULT:      -8.1     13.534     15.026
REMARK  3 active torsions:
REMARK  status: ('A' for Active; 'I' for Inactive)
REMARK    1  A    between atoms: C_4  and  C_5 
REMARK    2  A    between atoms: C_11  and  C_12 
REMARK    3  A    between atoms: C_21  and  N_22 
ROOT
HETATM    1  C   UNL     1      32.298  51.659  41.583  1.00  0.00     0.098 A 
HETATM    2  N   UNL     1      32.265  52.371  42.729  1.00  0.00    -0.172 NA
HETATM    3  N   UNL     1      30.957  52.500  43.017  1.00  0.00    -0.256 N 
HETATM    4  H   UNL     1      30.687  53.018  43.845  1.00  0.00     0.191 HD
HETATM    5  C   UNL     1      30.159  51.895  42.106  1.00  0.00     0.175 A 
HETATM    6  C   UNL     1      30.979  51.308  41.180  1.00  0.00     0.036 A 
HETATM    7  C   UNL     1      30.385  50.470  40.079  1.00  0.00     0.077 C 
HETATM    8  C   UNL     1      28.879  50.794  39.987  1.00  0.00     0.076 C 
HETATM    9  C   UNL     1      28.227  50.559  38.741  1.00  0.00     0.100 C 
HETATM   10  N   UNL     1      27.697  50.436  37.716  1.00  0.00    -0.192 NA
HETATM   11  C   UNL     1      28.194  51.432  40.979  1.00  0.00     0.140 C 
HETATM   12  O   UNL     1      28.833  51.896  42.141  1.00  0.00    -0.279 OA
ENDROOT
BRANCH   7  13
HETATM   13  C   UNL     1      30.771  48.963  40.302  1.00  0.00     0.003 C 
HETATM   14  C   UNL     1      29.930  48.233  41.370  1.00  0.00     0.032 C 
HETATM   15  C   UNL     1      28.707  47.558  40.835  1.00  0.00    -0.030 C 
HETATM   16  C   UNL     1      28.559  47.226  39.547  1.00  0.00    -0.031 C 
HETATM   17  C   UNL     1      29.598  47.475  38.500  1.00  0.00     0.027 C 
HETATM   18  C   UNL     1      30.887  48.123  39.013  1.00  0.00     0.009 C 
ENDBRANCH   7  13
BRANCH  11  19
HETATM   19  N   UNL     1      26.855  51.753  40.955  1.00  0.00    -0.282 NA
HETATM   20  H   UNL     1      26.215  50.970  40.837  1.00  0.00     0.126 HD
HETATM   21  H   UNL     1      26.658  52.528  40.330  1.00  0.00     0.126 HD
ENDBRANCH  11  19
BRANCH   1  22
HETATM   22  C   UNL     1      33.575  51.324  40.954  1.00  0.00    -0.005 A 
HETATM   23  C   UNL     1      33.944  51.941  39.750  1.00  0.00     0.014 A 
HETATM   24  C   UNL     1      35.162  51.636  39.140  1.00  0.00     0.001 A 
HETATM   25  C   UNL     1      36.021  50.707  39.725  1.00  0.00     0.000 A 
HETATM   26  C   UNL     1      35.659  50.079  40.915  1.00  0.00     0.001 A 
HETATM   27  C   UNL     1      34.440  50.383  41.526  1.00  0.00     0.014 A 
ENDBRANCH   1  22
TORSDOF 3
ENDMDL
MODEL 6
REMARK VINA RESULT:      -7.9      9.410     13.278
REMARK  3 active torsions:
REMARK  status: ('A' for Active; 'I' for Inactive)
REMARK    1  A    between atoms: C_4  and  C_5 
REMARK    2  A    between atoms: C_11  and  C_12 
REMARK    3  A    between atoms: C_21  and  N_22 
ROOT
HETATM    1  C   UNL     1      16.926  50.375  46.502  1.00  0.00     0.098 A 
HETATM    2  N   UNL     1      15.729  50.175  47.091  1.00  0.00    -0.172 NA
HETATM    3  N   UNL     1      15.979  49.319  48.098  1.00  0.00    -0.256 N 
HETATM    4  H   UNL     1      15.210  49.012  48.683  1.00  0.00     0.191 HD
HETATM    5  C   UNL     1      17.285  48.970  48.175  1.00  0.00     0.175 A 
HETATM    6  C   UNL     1      17.943  49.653  47.188  1.00  0.00     0.036 A 
HETATM    7  C   UNL     1      19.440  49.548  47.075  1.00  0.00     0.077 C 
HETATM    8  C   UNL     1      19.899  48.316  47.885  1.00  0.00     0.076 C 
HETATM    9  C   UNL     1      21.134  47.707  47.518  1.00  0.00     0.100 C 
HETATM   10  N   UNL     1      22.103  47.159  47.190  1.00  0.00    -0.192 NA
HETATM   11  C   UNL     1      19.111  47.703  48.814  1.00  0.00     0.140 C 
HETATM   12  O   UNL     1      17.791  48.119  49.058  1.00  0.00    -0.279 OA
ENDROOT
BRANCH   7  13
HETATM   13  C   UNL     1      20.093  50.926  47.456  1.00  0.00     0.003 C 
HETATM   14  C   UNL     1      19.207  51.841  48.327  1.00  0.00     0.032 C 
HETATM   15  C   UNL     1      19.391  51.656  49.800  1.00  0.00    -0.030 C 
HETATM   16  C   UNL     1      20.486  51.102  50.336  1.00  0.00    -0.031 C 
HETATM   17  C   UNL     1      21.653  50.621  49.533  1.00  0.00     0.027 C 
HETATM   18  C   UNL     1      21.526  50.834  48.022  1.00  0.00     0.009 C 
ENDBRANCH   7  13
BRANCH  11  19
HETATM   19  N   UNL     1      19.459  46.601  49.564  1.00  0.00    -0.282 NA
HETATM   20  H   UNL     1      18.961  46.490  50.444  1.00  0.00     0.126 HD
HETATM   21  H   UNL     1      20.466  46.506  49.658  1.00  0.00     0.126 HD
ENDBRANCH  11  19
BRANCH   1  22
HETATM   22  C   UNL     1      17.045  51.261  45.345  1.00  0.00    -0.005 A 
HETATM   23  C   UNL     1      17.587  50.777  44.146  1.00  0.00     0.014 A 
HETATM   24  C   UNL     1      17.702  51.608  43.030  1.00  0.00     0.001 A 
HETATM   25  C   UNL     1      17.280  52.935  43.104  1.00  0.00     0.000 A 
HETATM   26  C   UNL     1      16.751  53.431  44.294  1.00  0.00     0.001 A 
HETATM   27  C   UNL     1      16.637  52.599  45.411  1.00  0.00     0.014 A 
ENDBRANCH   1  22
TORSDOF 3
ENDMDL
MODEL 7
REMARK VINA RESULT:      -7.7     13.980     15.932
REMARK  3 active torsions:
REMARK  status: ('A' for Active; 'I' for Inactive)
REMARK    1  A    between atoms: C_4  and  C_5 
REMARK    2  A    between atoms: C_11  and  C_12 
REMARK    3  A    between atoms: C_21  and  N_22 
ROOT
HETATM    1  C   UNL     1      31.633  48.030  40.703  1.00  0.00     0.098 A 
HETATM    2  N   UNL     1      32.293  47.002  41.277  1.00  0.00    -0.172 NA
HETATM    3  N   UNL     1      33.444  47.536  41.723  1.00  0.00    -0.256 N 
HETATM    4  H   UNL     1      34.116  46.936  42.187  1.00  0.00     0.191 HD
HETATM    5  C   UNL     1      33.542  48.861  41.460  1.00  0.00     0.175 A 
HETATM    6  C   UNL     1      32.382  49.233  40.835  1.00  0.00     0.036 A 
HETATM    7  C   UNL     1      32.146  50.681  40.496  1.00  0.00     0.077 C 
HETATM    8  C   UNL     1      33.499  51.419  40.567  1.00  0.00     0.076 C 
HETATM    9  C   UNL     1      33.641  52.615  39.803  1.00  0.00     0.100 C 
HETATM   10  N   UNL     1      33.796  53.552  39.137  1.00  0.00    -0.192 NA
HETATM   11  C   UNL     1      34.597  50.901  41.191  1.00  0.00     0.140 C 
HETATM   12  O   UNL     1      34.585  49.620  41.768  1.00  0.00    -0.279 OA
ENDROOT
BRANCH   7  13
HETATM   13  C   UNL     1      30.986  51.247  41.393  1.00  0.00     0.003 C 
HETATM   14  C   UNL     1      31.246  52.653  41.973  1.00  0.00     0.032 C 
HETATM   15  C   UNL     1      30.758  53.774  41.111  1.00  0.00    -0.030 C 
HETATM   16  C   UNL     1      29.819  53.617  40.170  1.00  0.00    -0.031 C 
HETATM   17  C   UNL     1      29.140  52.316  39.882  1.00  0.00     0.027 C 
HETATM   18  C   UNL     1      29.577  51.150  40.773  1.00  0.00     0.009 C 
ENDBRANCH   7  13
BRANCH  11  19
HETATM   19  N   UNL     1      35.830  51.507  41.285  1.00  0.00    -0.282 NA
HETATM   20  H   UNL     1      35.822  52.487  41.556  1.00  0.00     0.126 HD
HETATM   21  H   UNL     1      36.410  51.321  40.472  1.00  0.00     0.126 HD
ENDBRANCH  11  19
BRANCH   1  22
HETATM   22  C   UNL     1      30.322  47.821  40.093  1.00  0.00    -0.005 A 
HETATM   23  C   UNL     1      30.189  47.840  38.697  1.00  0.00     0.014 A 
HETATM   24  C   UNL     1      28.943  47.637  38.099  1.00  0.00     0.001 A 
HETATM   25  C   UNL     1      27.818  47.419  38.891  1.00  0.00     0.000 A 
HETATM   26  C   UNL     1      27.935  47.411  40.280  1.00  0.00     0.001 A 
HETATM   27  C   UNL     1      29.181  47.614  40.879  1.00  0.00     0.014 A 
ENDBRANCH   1  22
TORSDOF 3
ENDMDL
MODEL 8
REMARK VINA RESULT:      -7.7     13.545     15.506
REMARK  3 active torsions:
REMARK  status: ('A' for Active; 'I' for Inactive)
REMARK    1  A    between atoms: C_4  and  C_5 
REMARK    2  A    between atoms: C_11  and  C_12 
REMARK    3  A    between atoms: C_21  and  N_22 
ROOT
HETATM    1  C   UNL     1      27.628  49.134  39.069  1.00  0.00     0.098 A 
HETATM    2  N   UNL     1      26.687  49.568  38.205  1.00  0.00    -0.172 NA
HETATM    3  N   UNL     1      26.901  50.891  38.097  1.00  0.00    -0.256 N 
HETATM    4  H   UNL     1      26.294  51.439  37.498  1.00  0.00     0.191 HD
HETATM    5  C   UNL     1      27.941  51.316  38.853  1.00  0.00     0.175 A 
HETATM    6  C   UNL     1      28.465  50.213  39.471  1.00  0.00     0.036 A 
HETATM    7  C   UNL     1      29.704  50.347  40.316  1.00  0.00     0.077 C 
HETATM    8  C   UNL     1      29.901  51.841  40.648  1.00  0.00     0.076 C 
HETATM    9  C   UNL     1      30.646  52.165  41.820  1.00  0.00     0.100 C 
HETATM   10  N   UNL     1      31.192  52.445  42.805  1.00  0.00    -0.192 NA
HETATM   11  C   UNL     1      29.270  52.843  39.970  1.00  0.00     0.140 C 
HETATM   12  O   UNL     1      28.342  52.576  38.949  1.00  0.00    -0.279 OA
ENDROOT
BRANCH   7  13
HETATM   13  C   UNL     1      30.902  49.618  39.607  1.00  0.00     0.003 C 
HETATM   14  C   UNL     1      32.149  50.497  39.379  1.00  0.00     0.032 C 
HETATM   15  C   UNL     1      33.143  50.459  40.497  1.00  0.00    -0.030 C 
HETATM   16  C   UNL     1      33.198  49.465  41.392  1.00  0.00    -0.031 C 
HETATM   17  C   UNL     1      32.290  48.276  41.372  1.00  0.00     0.027 C 
HETATM   18  C   UNL     1      31.286  48.253  40.215  1.00  0.00     0.009 C 
ENDBRANCH   7  13
BRANCH  11  19
HETATM   19  N   UNL     1      29.401  54.191  40.220  1.00  0.00    -0.282 NA
HETATM   20  H   UNL     1      30.315  54.591  40.022  1.00  0.00     0.126 HD
HETATM   21  H   UNL     1      29.042  54.446  41.135  1.00  0.00     0.126 HD
ENDBRANCH  11  19
BRANCH   1  22
HETATM   22  C   UNL     1      27.702  47.722  39.439  1.00  0.00    -0.005 A 
HETATM   23  C   UNL     1      27.131  47.283  40.642  1.00  0.00     0.014 A 
HETATM   24  C   UNL     1      27.188  45.936  41.007  1.00  0.00     0.001 A 
HETATM   25  C   UNL     1      27.823  45.016  40.174  1.00  0.00     0.000 A 
HETATM   26  C   UNL     1      28.405  45.442  38.982  1.00  0.00     0.001 A 
HETATM   27  C   UNL     1      28.348  46.790  38.616  1.00  0.00     0.014 A 
ENDBRANCH   1  22
TORSDOF 3
ENDMDL
MODEL 9
REMARK VINA RESULT:      -7.6      8.112     11.047
REMARK  3 active torsions:
REMARK  status: ('A' for Active; 'I' for Inactive)
REMARK    1  A    between atoms: C_4  and  C_5 
REMARK    2  A    between atoms: C_11  and  C_12 
REMARK    3  A    between atoms: C_21  and  N_22 
ROOT
HETATM    1  C   UNL     1      20.898  49.760  49.214  1.00  0.00     0.098 A 
HETATM    2  N   UNL     1      22.100  50.093  49.727  1.00  0.00    -0.172 NA
HETATM    3  N   UNL     1      22.858  48.992  49.574  1.00  0.00    -0.256 N 
HETATM    4  H   UNL     1      23.816  49.007  49.904  1.00  0.00     0.191 HD
HETATM    5  C   UNL     1      22.189  47.975  48.983  1.00  0.00     0.175 A 
HETATM    6  C   UNL     1      20.930  48.433  48.699  1.00  0.00     0.036 A 
HETATM    7  C   UNL     1      19.966  47.555  47.946  1.00  0.00     0.077 C 
HETATM    8  C   UNL     1      20.489  46.104  48.007  1.00  0.00     0.076 C 
HETATM    9  C   UNL     1      19.539  45.052  47.852  1.00  0.00     0.100 C 
HETATM   10  N   UNL     1      18.771  44.184  47.794  1.00  0.00    -0.192 NA
HETATM   11  C   UNL     1      21.770  45.789  48.354  1.00  0.00     0.140 C 
HETATM   12  O   UNL     1      22.696  46.773  48.743  1.00  0.00    -0.279 OA
ENDROOT
BRANCH   7  13
HETATM   13  C   UNL     1      19.717  48.156  46.516  1.00  0.00     0.003 C 
HETATM   14  C   UNL     1      19.619  47.111  45.385  1.00  0.00     0.032 C 
HETATM   15  C   UNL     1      18.231  46.618  45.122  1.00  0.00    -0.030 C 
HETATM   16  C   UNL     1      17.134  47.293  45.487  1.00  0.00    -0.031 C 
HETATM   17  C   UNL     1      17.165  48.617  46.183  1.00  0.00     0.027 C 
HETATM   18  C   UNL     1      18.567  49.181  46.432  1.00  0.00     0.009 C 
ENDBRANCH   7  13
BRANCH  11  19
HETATM   19  N   UNL     1      22.295  44.518  48.431  1.00  0.00    -0.282 NA
HETATM   20  H   UNL     1      21.670  43.803  48.796  1.00  0.00     0.126 HD
HETATM   21  H   UNL     1      23.212  44.508  48.866  1.00  0.00     0.126 HD
ENDBRANCH  11  19
BRANCH   1  22
HETATM   22  C   UNL     1      19.798  50.723  49.212  1.00  0.00    -0.005 A 
HETATM   23  C   UNL     1      19.888  51.886  48.434  1.00  0.00     0.014 A 
HETATM   24  C   UNL     1      18.844  52.813  48.417  1.00  0.00     0.001 A 
HETATM   25  C   UNL     1      17.702  52.589  49.183  1.00  0.00     0.000 A 
HETATM   26  C   UNL     1      17.606  51.442  49.970  1.00  0.00     0.001 A 
HETATM   27  C   UNL     1      18.651  50.515  49.988  1.00  0.00     0.014 A 
ENDBRANCH   1  22
TORSDOF 3
ENDMDL
MODEL 10
REMARK VINA RESULT:      -7.6      3.312      4.974
REMARK  3 active torsions:
REMARK  status: ('A' for Active; 'I' for Inactive)
REMARK    1  A    between atoms: C_4  and  C_5 
REMARK    2  A    between atoms: C_11  and  C_12 
REMARK    3  A    between atoms: C_21  and  N_22 
ROOT
HETATM    1  C   UNL     1      26.895  43.464  52.168  1.00  0.00     0.098 A 
HETATM    2  N   UNL     1      25.829  44.193  52.560  1.00  0.00    -0.172 NA
HETATM    3  N   UNL     1      24.919  44.028  51.583  1.00  0.00    -0.256 N 
HETATM    4  H   UNL     1      24.027  44.502  51.660  1.00  0.00     0.191 HD
HETATM    5  C   UNL     1      25.360  43.222  50.589  1.00  0.00     0.175 A 
HETATM    6  C   UNL     1      26.616  42.804  50.938  1.00  0.00     0.036 A 
HETATM    7  C   UNL     1      27.342  41.810  50.071  1.00  0.00     0.077 C 
HETATM    8  C   UNL     1      26.647  41.775  48.693  1.00  0.00     0.076 C 
HETATM    9  C   UNL     1      27.419  41.349  47.573  1.00  0.00     0.100 C 
HETATM   10  N   UNL     1      28.051  41.068  46.641  1.00  0.00    -0.192 NA
HETATM   11  C   UNL     1      25.396  42.276  48.479  1.00  0.00     0.140 C 
HETATM   12  O   UNL     1      24.671  42.919  49.497  1.00  0.00    -0.279 OA
ENDROOT
BRANCH   7  13
HETATM   13  C   UNL     1      27.467  40.442  50.833  1.00  0.00     0.003 C 
HETATM   14  C   UNL     1      26.364  39.416  50.503  1.00  0.00     0.032 C 
HETATM   15  C   UNL     1      26.694  38.501  49.366  1.00  0.00    -0.030 C 
HETATM   16  C   UNL     1      27.946  38.271  48.953  1.00  0.00    -0.031 C 
HETATM   17  C   UNL     1      29.156  38.884  49.584  1.00  0.00     0.027 C 
HETATM   18  C   UNL     1      28.866  39.793  50.782  1.00  0.00     0.009 C 
ENDBRANCH   7  13
BRANCH  11  19
HETATM   19  N   UNL     1      24.724  42.279  47.277  1.00  0.00    -0.282 NA
HETATM   20  H   UNL     1      23.916  41.663  47.220  1.00  0.00     0.126 HD
HETATM   21  H   UNL     1      25.355  42.185  46.487  1.00  0.00     0.126 HD
ENDBRANCH  11  19
BRANCH   1  22
HETATM   22  C   UNL     1      28.100  43.408  52.993  1.00  0.00    -0.005 A 
HETATM   23  C   UNL     1      28.076  43.908  54.303  1.00  0.00     0.014 A 
HETATM   24  C   UNL     1      29.218  43.857  55.105  1.00  0.00     0.001 A 
HETATM   25  C   UNL     1      30.397  43.310  54.603  1.00  0.00     0.000 A 
HETATM   26  C   UNL     1      30.437  42.820  53.298  1.00  0.00     0.001 A 
HETATM   27  C   UNL     1      29.295  42.872  52.495  1.00  0.00     0.014 A 
ENDBRANCH   1  22
TORSDOF 3
ENDMDL
