MODEL 1
REMARK VINA RESULT:      -9.8      0.000      0.000
REMARK  8 active torsions:
REMARK  status: ('A' for Active; 'I' for Inactive)
REMARK    1  A    between atoms: C_4  and  C_5 
REMARK    2  A    between atoms: C_5  and  C_6 
REMARK    3  A    between atoms: C_10  and  S_11 
REMARK    4  A    between atoms: S_11  and  C_12 
REMARK    5  A    between atoms: C_12  and  C_13 
REMARK       I    between atoms: C_13  and  N_14 
REMARK    6  A    between atoms: N_14  and  N_15 
REMARK       I    between atoms: N_15  and  C_16 
REMARK       I    between atoms: C_16  and  N_17 
REMARK    7  A    between atoms: N_17  and  C_18 
REMARK    8  A    between atoms: C_18  and  C_19 
ROOT
HETATM    1  C   UNL     1      23.759  44.693  50.136  1.00  0.00     0.245 C 
HETATM    2  N   UNL     1      24.093  46.008  49.880  1.00  0.00    -0.265 N 
HETATM    3  O   UNL     1      22.697  44.192  49.757  1.00  0.00    -0.271 OA
HETATM    4  H   UNL     1      24.739  46.494  50.510  1.00  0.00     0.190 HD
ENDROOT
BRANCH   1   5
HETATM    5  C   UNL     1      24.750  43.916  50.972  1.00  0.00     0.187 C 
BRANCH   5   6
HETATM    6  S   UNL     1      25.951  45.037  51.719  1.00  0.00    -0.081 SA
BRANCH   6   7
HETATM    7  C   UNL     1      26.997  44.036  52.662  1.00  0.00     0.185 A 
HETATM    8  N   UNL     1      26.610  43.207  53.672  1.00  0.00    -0.254 N 
HETATM    9  N   UNL     1      27.673  42.651  54.282  1.00  0.00    -0.157 NA
HETATM   10  H   UNL     1      25.676  43.007  54.021  1.00  0.00     0.191 HD
HETATM   11  C   UNL     1      28.689  43.231  53.623  1.00  0.00     0.153 A 
HETATM   12  N   UNL     1      28.306  44.045  52.582  1.00  0.00    -0.206 NA
BRANCH  11  13
HETATM   13  C   UNL     1      30.114  43.020  53.993  1.00  0.00     0.120 C 
BRANCH  13  14
HETATM   14  C   UNL     1      30.318  43.768  55.291  1.00  0.00    -0.051 A 
HETATM   15  C   UNL     1      31.163  43.257  56.290  1.00  0.00     0.007 A 
HETATM   16  C   UNL     1      31.322  43.936  57.498  1.00  0.00     0.001 A 
HETATM   17  C   UNL     1      30.641  45.132  57.724  1.00  0.00     0.000 A 
HETATM   18  C   UNL     1      29.799  45.648  56.742  1.00  0.00     0.001 A 
HETATM   19  C   UNL     1      29.636  44.970  55.533  1.00  0.00     0.007 A 
ENDBRANCH  13  14
ENDBRANCH  11  13
ENDBRANCH   6   7
ENDBRANCH   5   6
ENDBRANCH   1   5
BRANCH   2  20
HETATM   20  N   UNL     1      23.041  46.831  49.401  1.00  0.00    -0.249 N 
HETATM   21  C   UNL     1      23.234  48.192  49.541  1.00  0.00     0.335 C 
HETATM   22  N   UNL     1      22.080  48.898  49.356  1.00  0.00    -0.338 N 
HETATM   23  O   UNL     1      24.323  48.681  49.821  1.00  0.00    -0.246 OA
HETATM   24  H   UNL     1      21.347  48.461  48.818  1.00  0.00     0.164 HD
HETATM   25  H   UNL     1      22.111  46.485  49.635  1.00  0.00     0.192 HD
BRANCH  22  26
HETATM   26  C   UNL     1      22.074  50.341  49.416  1.00  0.00     0.162 C 
BRANCH  26  27
HETATM   27  C   UNL     1      20.663  50.862  49.355  1.00  0.00    -0.040 A 
HETATM   28  C   UNL     1      20.328  51.870  48.438  1.00  0.00     0.009 A 
HETATM   29  C   UNL     1      19.030  52.379  48.387  1.00  0.00     0.001 A 
HETATM   30  C   UNL     1      18.056  51.892  49.255  1.00  0.00     0.000 A 
HETATM   31  C   UNL     1      18.379  50.897  50.178  1.00  0.00     0.001 A 
HETATM   32  C   UNL     1      19.678  50.386  50.231  1.00  0.00     0.009 A 
ENDBRANCH  26  27
ENDBRANCH  22  26
ENDBRANCH   2  20
TORSDOF 8
ENDMDL
MODEL 2
REMARK VINA RESULT:      -9.6      3.422      9.773
REMARK  8 active torsions:
REMARK  status: ('A' for Active; 'I' for Inactive)
REMARK    1  A    between atoms: C_4  and  C_5 
REMARK    2  A    between atoms: C_5  and  C_6 
REMARK    3  A    between atoms: C_10  and  S_11 
REMARK    4  A    between atoms: S_11  and  C_12 
REMARK    5  A    between atoms: C_12  and  C_13 
REMARK       I    between atoms: C_13  and  N_14 
REMARK    6  A    between atoms: N_14  and  N_15 
REMARK       I    between atoms: N_15  and  C_16 
REMARK       I    between atoms: C_16  and  N_17 
REMARK    7  A    between atoms: N_17  and  C_18 
REMARK    8  A    between atoms: C_18  and  C_19 
ROOT
HETATM    1  C   UNL     1      26.786  41.045  50.361  1.00  0.00     0.245 C 
HETATM    2  N   UNL     1      26.509  40.887  51.705  1.00  0.00    -0.265 N 
HETATM    3  O   UNL     1      27.922  41.275  49.939  1.00  0.00    -0.271 OA
HETATM    4  H   UNL     1      25.569  41.095  52.052  1.00  0.00     0.190 HD
ENDROOT
BRANCH   1   5
HETATM    5  C   UNL     1      25.593  40.984  49.435  1.00  0.00     0.187 C 
BRANCH   5   6
HETATM    6  S   UNL     1      24.415  42.288  49.848  1.00  0.00    -0.081 SA
BRANCH   6   7
HETATM    7  C   UNL     1      25.315  43.761  49.795  1.00  0.00     0.185 A 
HETATM    8  N   UNL     1      26.482  43.958  49.119  1.00  0.00    -0.254 N 
HETATM    9  N   UNL     1      26.990  45.179  49.368  1.00  0.00    -0.157 NA
HETATM   10  H   UNL     1      26.999  43.316  48.523  1.00  0.00     0.191 HD
HETATM   11  C   UNL     1      26.103  45.659  50.253  1.00  0.00     0.153 A 
HETATM   12  N   UNL     1      25.029  44.833  50.494  1.00  0.00    -0.206 NA
BRANCH  11  13
HETATM   13  C   UNL     1      26.270  46.973  50.930  1.00  0.00     0.120 C 
BRANCH  13  14
HETATM   14  C   UNL     1      25.835  48.014  49.923  1.00  0.00    -0.051 A 
HETATM   15  C   UNL     1      24.476  48.195  49.617  1.00  0.00     0.007 A 
HETATM   16  C   UNL     1      24.084  49.135  48.663  1.00  0.00     0.001 A 
HETATM   17  C   UNL     1      25.042  49.904  48.004  1.00  0.00     0.000 A 
HETATM   18  C   UNL     1      26.393  49.733  48.297  1.00  0.00     0.001 A 
HETATM   19  C   UNL     1      26.789  48.792  49.249  1.00  0.00     0.007 A 
ENDBRANCH  13  14
ENDBRANCH  11  13
ENDBRANCH   6   7
ENDBRANCH   5   6
ENDBRANCH   1   5
BRANCH   2  20
HETATM   20  N   UNL     1      27.543  41.274  52.598  1.00  0.00    -0.249 N 
HETATM   21  C   UNL     1      27.507  42.589  53.020  1.00  0.00     0.335 C 
HETATM   22  N   UNL     1      28.678  42.973  53.610  1.00  0.00    -0.338 N 
HETATM   23  O   UNL     1      26.531  43.313  52.853  1.00  0.00    -0.246 OA
HETATM   24  H   UNL     1      29.266  42.249  53.993  1.00  0.00     0.164 HD
HETATM   25  H   UNL     1      28.462  40.912  52.344  1.00  0.00     0.192 HD
BRANCH  22  26
HETATM   26  C   UNL     1      28.832  44.300  54.161  1.00  0.00     0.162 C 
BRANCH  26  27
HETATM   27  C   UNL     1      29.717  44.262  55.377  1.00  0.00    -0.040 A 
HETATM   28  C   UNL     1      29.718  45.338  56.276  1.00  0.00     0.009 A 
HETATM   29  C   UNL     1      30.553  45.327  57.395  1.00  0.00     0.001 A 
HETATM   30  C   UNL     1      31.399  44.244  57.623  1.00  0.00     0.000 A 
HETATM   31  C   UNL     1      31.414  43.173  56.730  1.00  0.00     0.001 A 
HETATM   32  C   UNL     1      30.580  43.182  55.609  1.00  0.00     0.009 A 
ENDBRANCH  26  27
ENDBRANCH  22  26
ENDBRANCH   2  20
TORSDOF 8
ENDMDL
MODEL 3
REMARK VINA RESULT:      -9.3      2.227     11.990
REMARK  8 active torsions:
REMARK  status: ('A' for Active; 'I' for Inactive)
REMARK    1  A    between atoms: C_4  and  C_5 
REMARK    2  A    between atoms: C_5  and  C_6 
REMARK    3  A    between atoms: C_10  and  S_11 
REMARK    4  A    between atoms: S_11  and  C_12 
REMARK    5  A    between atoms: C_12  and  C_13 
REMARK       I    between atoms: C_13  and  N_14 
REMARK    6  A    between atoms: N_14  and  N_15 
REMARK       I    between atoms: N_15  and  C_16 
REMARK       I    between atoms: C_16  and  N_17 
REMARK    7  A    between atoms: N_17  and  C_18 
REMARK    8  A    between atoms: C_18  and  C_19 
ROOT
HETATM    1  C   UNL     1      25.099  47.492  49.788  1.00  0.00     0.245 C 
HETATM    2  N   UNL     1      24.497  46.954  50.908  1.00  0.00    -0.265 N 
HETATM    3  O   UNL     1      26.166  47.065  49.338  1.00  0.00    -0.271 OA
HETATM    4  H   UNL     1      23.875  47.539  51.474  1.00  0.00     0.190 HD
ENDROOT
BRANCH   1   5
HETATM    5  C   UNL     1      24.402  48.687  49.179  1.00  0.00     0.187 C 
BRANCH   5   6
HETATM    6  S   UNL     1      22.708  48.258  48.726  1.00  0.00    -0.081 SA
BRANCH   6   7
HETATM    7  C   UNL     1      21.767  49.668  49.056  1.00  0.00     0.185 A 
HETATM    8  N   UNL     1      21.287  50.038  50.277  1.00  0.00    -0.254 N 
HETATM    9  N   UNL     1      20.498  51.125  50.183  1.00  0.00    -0.157 NA
HETATM   10  H   UNL     1      21.414  49.594  51.183  1.00  0.00     0.191 HD
HETATM   11  C   UNL     1      20.496  51.335  48.857  1.00  0.00     0.153 A 
HETATM   12  N   UNL     1      21.313  50.491  48.141  1.00  0.00    -0.206 NA
BRANCH  11  13
HETATM   13  C   UNL     1      19.670  52.389  48.210  1.00  0.00     0.120 C 
BRANCH  13  14
HETATM   14  C   UNL     1      18.233  52.044  48.534  1.00  0.00    -0.051 A 
HETATM   15  C   UNL     1      17.540  52.728  49.545  1.00  0.00     0.007 A 
HETATM   16  C   UNL     1      16.225  52.384  49.861  1.00  0.00     0.001 A 
HETATM   17  C   UNL     1      15.588  51.354  49.171  1.00  0.00     0.000 A 
HETATM   18  C   UNL     1      16.264  50.666  48.166  1.00  0.00     0.001 A 
HETATM   19  C   UNL     1      17.580  51.007  47.850  1.00  0.00     0.007 A 
ENDBRANCH  13  14
ENDBRANCH  11  13
ENDBRANCH   6   7
ENDBRANCH   5   6
ENDBRANCH   1   5
BRANCH   2  20
HETATM   20  N   UNL     1      25.299  46.069  51.676  1.00  0.00    -0.249 N 
HETATM   21  C   UNL     1      25.845  46.604  52.827  1.00  0.00     0.335 C 
HETATM   22  N   UNL     1      26.837  45.817  53.341  1.00  0.00    -0.338 N 
HETATM   23  O   UNL     1      25.477  47.674  53.301  1.00  0.00    -0.246 OA
HETATM   24  H   UNL     1      26.833  44.840  53.090  1.00  0.00     0.164 HD
HETATM   25  H   UNL     1      25.921  45.488  51.115  1.00  0.00     0.192 HD
BRANCH  22  26
HETATM   26  C   UNL     1      27.509  46.176  54.568  1.00  0.00     0.162 C 
BRANCH  26  27
HETATM   27  C   UNL     1      28.637  45.219  54.846  1.00  0.00    -0.040 A 
HETATM   28  C   UNL     1      28.702  43.996  54.164  1.00  0.00     0.009 A 
HETATM   29  C   UNL     1      29.729  43.089  54.429  1.00  0.00     0.001 A 
HETATM   30  C   UNL     1      30.698  43.393  55.383  1.00  0.00     0.000 A 
HETATM   31  C   UNL     1      30.638  44.602  56.075  1.00  0.00     0.001 A 
HETATM   32  C   UNL     1      29.611  45.511  55.811  1.00  0.00     0.009 A 
ENDBRANCH  26  27
ENDBRANCH  22  26
ENDBRANCH   2  20
TORSDOF 8
ENDMDL
MODEL 4
REMARK VINA RESULT:      -9.2      1.338      1.729
REMARK  8 active torsions:
REMARK  status: ('A' for Active; 'I' for Inactive)
REMARK    1  A    between atoms: C_4  and  C_5 
REMARK    2  A    between atoms: C_5  and  C_6 
REMARK    3  A    between atoms: C_10  and  S_11 
REMARK    4  A    between atoms: S_11  and  C_12 
REMARK    5  A    between atoms: C_12  and  C_13 
REMARK       I    between atoms: C_13  and  N_14 
REMARK    6  A    between atoms: N_14  and  N_15 
REMARK       I    between atoms: N_15  and  C_16 
REMARK       I    between atoms: C_16  and  N_17 
REMARK    7  A    between atoms: N_17  and  C_18 
REMARK    8  A    between atoms: C_18  and  C_19 
ROOT
HETATM    1  C   UNL     1      24.444  44.624  50.093  1.00  0.00     0.245 C 
HETATM    2  N   UNL     1      24.389  45.682  49.207  1.00  0.00    -0.265 N 
HETATM    3  O   UNL     1      23.464  44.251  50.743  1.00  0.00    -0.271 OA
HETATM    4  H   UNL     1      25.242  46.210  49.000  1.00  0.00     0.190 HD
ENDROOT
BRANCH   1   5
HETATM    5  C   UNL     1      25.804  43.988  50.269  1.00  0.00     0.187 C 
BRANCH   5   6
HETATM    6  S   UNL     1      25.627  42.278  50.821  1.00  0.00    -0.081 SA
BRANCH   6   7
HETATM    7  C   UNL     1      27.041  41.943  51.754  1.00  0.00     0.185 A 
HETATM    8  N   UNL     1      27.142  41.005  52.738  1.00  0.00    -0.254 N 
HETATM    9  N   UNL     1      28.340  41.067  53.350  1.00  0.00    -0.157 NA
HETATM   10  H   UNL     1      26.449  40.338  53.068  1.00  0.00     0.191 HD
HETATM   11  C   UNL     1      28.904  42.109  52.721  1.00  0.00     0.153 A 
HETATM   12  N   UNL     1      28.153  42.634  51.694  1.00  0.00    -0.206 NA
BRANCH  11  13
HETATM   13  C   UNL     1      30.231  42.661  53.106  1.00  0.00     0.120 C 
BRANCH  13  14
HETATM   14  C   UNL     1      29.965  43.604  54.258  1.00  0.00    -0.051 A 
HETATM   15  C   UNL     1      28.885  44.500  54.220  1.00  0.00     0.007 A 
HETATM   16  C   UNL     1      28.665  45.390  55.272  1.00  0.00     0.001 A 
HETATM   17  C   UNL     1      29.520  45.395  56.374  1.00  0.00     0.000 A 
HETATM   18  C   UNL     1      30.596  44.513  56.423  1.00  0.00     0.001 A 
HETATM   19  C   UNL     1      30.820  43.623  55.371  1.00  0.00     0.007 A 
ENDBRANCH  13  14
ENDBRANCH  11  13
ENDBRANCH   6   7
ENDBRANCH   5   6
ENDBRANCH   1   5
BRANCH   2  20
HETATM   20  N   UNL     1      23.225  46.493  49.285  1.00  0.00    -0.249 N 
HETATM   21  C   UNL     1      23.444  47.857  49.269  1.00  0.00     0.335 C 
HETATM   22  N   UNL     1      22.339  48.561  49.656  1.00  0.00    -0.338 N 
HETATM   23  O   UNL     1      24.523  48.352  48.960  1.00  0.00    -0.246 OA
HETATM   24  H   UNL     1      21.443  48.108  49.564  1.00  0.00     0.164 HD
HETATM   25  H   UNL     1      22.537  46.158  49.958  1.00  0.00     0.192 HD
BRANCH  22  26
HETATM   26  C   UNL     1      22.345  50.005  49.667  1.00  0.00     0.162 C 
BRANCH  26  27
HETATM   27  C   UNL     1      21.059  50.538  49.094  1.00  0.00    -0.040 A 
HETATM   28  C   UNL     1      20.719  50.260  47.762  1.00  0.00     0.009 A 
HETATM   29  C   UNL     1      19.542  50.768  47.210  1.00  0.00     0.001 A 
HETATM   30  C   UNL     1      18.698  51.564  47.981  1.00  0.00     0.000 A 
HETATM   31  C   UNL     1      19.030  51.855  49.303  1.00  0.00     0.001 A 
HETATM   32  C   UNL     1      20.208  51.348  49.858  1.00  0.00     0.009 A 
ENDBRANCH  26  27
ENDBRANCH  22  26
ENDBRANCH   2  20
TORSDOF 8
ENDMDL
MODEL 5
REMARK VINA RESULT:      -9.1      1.790     10.898
REMARK  8 active torsions:
REMARK  status: ('A' for Active; 'I' for Inactive)
REMARK    1  A    between atoms: C_4  and  C_5 
REMARK    2  A    between atoms: C_5  and  C_6 
REMARK    3  A    between atoms: C_10  and  S_11 
REMARK    4  A    between atoms: S_11  and  C_12 
REMARK    5  A    between atoms: C_12  and  C_13 
REMARK       I    between atoms: C_13  and  N_14 
REMARK    6  A    between atoms: N_14  and  N_15 
REMARK       I    between atoms: N_15  and  C_16 
REMARK       I    between atoms: C_16  and  N_17 
REMARK    7  A    between atoms: N_17  and  C_18 
REMARK    8  A    between atoms: C_18  and  C_19 
ROOT
HETATM    1  C   UNL     1      24.126  44.310  49.941  1.00  0.00     0.245 C 
HETATM    2  N   UNL     1      25.391  44.731  50.301  1.00  0.00    -0.265 N 
HETATM    3  O   UNL     1      23.347  43.787  50.743  1.00  0.00    -0.271 OA
HETATM    4  H   UNL     1      26.127  44.778  49.590  1.00  0.00     0.190 HD
ENDROOT
BRANCH   1   5
HETATM    5  C   UNL     1      23.774  44.468  48.480  1.00  0.00     0.187 C 
BRANCH   5   6
HETATM    6  S   UNL     1      22.252  45.423  48.303  1.00  0.00    -0.081 SA
BRANCH   6   7
HETATM    7  C   UNL     1      22.701  47.068  48.577  1.00  0.00     0.185 A 
HETATM    8  N   UNL     1      23.307  47.553  49.698  1.00  0.00    -0.254 N 
HETATM    9  N   UNL     1      23.422  48.893  49.649  1.00  0.00    -0.157 NA
HETATM   10  H   UNL     1      23.622  47.057  50.528  1.00  0.00     0.191 HD
HETATM   11  C   UNL     1      22.812  49.169  48.486  1.00  0.00     0.153 A 
HETATM   12  N   UNL     1      22.408  48.063  47.775  1.00  0.00    -0.206 NA
BRANCH  11  13
HETATM   13  C   UNL     1      22.581  50.558  48.006  1.00  0.00     0.120 C 
BRANCH  13  14
HETATM   14  C   UNL     1      21.130  50.861  48.306  1.00  0.00    -0.051 A 
HETATM   15  C   UNL     1      20.162  50.818  47.290  1.00  0.00     0.007 A 
HETATM   16  C   UNL     1      18.830  51.131  47.567  1.00  0.00     0.001 A 
HETATM   17  C   UNL     1      18.450  51.489  48.860  1.00  0.00     0.000 A 
HETATM   18  C   UNL     1      19.401  51.537  49.876  1.00  0.00     0.001 A 
HETATM   19  C   UNL     1      20.735  51.227  49.602  1.00  0.00     0.007 A 
ENDBRANCH  13  14
ENDBRANCH  11  13
ENDBRANCH   6   7
ENDBRANCH   5   6
ENDBRANCH   1   5
BRANCH   2  20
HETATM   20  N   UNL     1      25.854  44.285  51.568  1.00  0.00    -0.249 N 
HETATM   21  C   UNL     1      26.331  45.270  52.411  1.00  0.00     0.335 C 
HETATM   22  N   UNL     1      27.036  44.754  53.460  1.00  0.00    -0.338 N 
HETATM   23  O   UNL     1      26.147  46.466  52.205  1.00  0.00    -0.246 OA
HETATM   24  H   UNL     1      26.850  43.797  53.720  1.00  0.00     0.164 HD
HETATM   25  H   UNL     1      26.405  43.429  51.525  1.00  0.00     0.192 HD
BRANCH  22  26
HETATM   26  C   UNL     1      27.583  45.614  54.483  1.00  0.00     0.162 C 
BRANCH  26  27
HETATM   27  C   UNL     1      28.809  44.989  55.093  1.00  0.00    -0.040 A 
HETATM   28  C   UNL     1      29.461  45.622  56.160  1.00  0.00     0.009 A 
HETATM   29  C   UNL     1      30.613  45.066  56.719  1.00  0.00     0.001 A 
HETATM   30  C   UNL     1      31.126  43.874  56.213  1.00  0.00     0.000 A 
HETATM   31  C   UNL     1      30.492  43.239  55.145  1.00  0.00     0.001 A 
HETATM   32  C   UNL     1      29.340  43.795  54.584  1.00  0.00     0.009 A 
ENDBRANCH  26  27
ENDBRANCH  22  26
ENDBRANCH   2  20
TORSDOF 8
ENDMDL
MODEL 6
REMARK VINA RESULT:      -8.9      1.965      2.679
REMARK  8 active torsions:
REMARK  status: ('A' for Active; 'I' for Inactive)
REMARK    1  A    between atoms: C_4  and  C_5 
REMARK    2  A    between atoms: C_5  and  C_6 
REMARK    3  A    between atoms: C_10  and  S_11 
REMARK    4  A    between atoms: S_11  and  C_12 
REMARK    5  A    between atoms: C_12  and  C_13 
REMARK       I    between atoms: C_13  and  N_14 
REMARK    6  A    between atoms: N_14  and  N_15 
REMARK       I    between atoms: N_15  and  C_16 
REMARK       I    between atoms: C_16  and  N_17 
REMARK    7  A    between atoms: N_17  and  C_18 
REMARK    8  A    between atoms: C_18  and  C_19 
ROOT
HETATM    1  C   UNL     1      26.123  42.937  50.123  1.00  0.00     0.245 C 
HETATM    2  N   UNL     1      24.966  43.594  50.492  1.00  0.00    -0.265 N 
HETATM    3  O   UNL     1      26.874  43.359  49.239  1.00  0.00    -0.271 OA
HETATM    4  H   UNL     1      24.194  43.061  50.903  1.00  0.00     0.190 HD
ENDROOT
BRANCH   1   5
HETATM    5  C   UNL     1      26.383  41.623  50.824  1.00  0.00     0.187 C 
BRANCH   5   6
HETATM    6  S   UNL     1      28.030  41.624  51.562  1.00  0.00    -0.081 SA
BRANCH   6   7
HETATM    7  C   UNL     1      27.923  42.665  52.937  1.00  0.00     0.185 A 
HETATM    8  N   UNL     1      26.959  42.616  53.900  1.00  0.00    -0.254 N 
HETATM    9  N   UNL     1      27.091  43.631  54.774  1.00  0.00    -0.157 NA
HETATM   10  H   UNL     1      26.181  41.970  54.002  1.00  0.00     0.191 HD
HETATM   11  C   UNL     1      28.132  44.297  54.250  1.00  0.00     0.153 A 
HETATM   12  N   UNL     1      28.702  43.697  53.151  1.00  0.00    -0.206 NA
BRANCH  11  13
HETATM   13  C   UNL     1      28.624  45.587  54.804  1.00  0.00     0.120 C 
BRANCH  13  14
HETATM   14  C   UNL     1      29.571  45.220  55.924  1.00  0.00    -0.051 A 
HETATM   15  C   UNL     1      30.534  44.212  55.751  1.00  0.00     0.007 A 
HETATM   16  C   UNL     1      31.384  43.856  56.799  1.00  0.00     0.001 A 
HETATM   17  C   UNL     1      31.283  44.501  58.031  1.00  0.00     0.000 A 
HETATM   18  C   UNL     1      30.331  45.501  58.216  1.00  0.00     0.001 A 
HETATM   19  C   UNL     1      29.478  45.858  57.171  1.00  0.00     0.007 A 
ENDBRANCH  13  14
ENDBRANCH  11  13
ENDBRANCH   6   7
ENDBRANCH   5   6
ENDBRANCH   1   5
BRANCH   2  20
HETATM   20  N   UNL     1      24.540  44.631  49.621  1.00  0.00    -0.249 N 
HETATM   21  C   UNL     1      24.676  45.916  50.110  1.00  0.00     0.335 C 
HETATM   22  N   UNL     1      23.972  46.826  49.372  1.00  0.00    -0.338 N 
HETATM   23  O   UNL     1      25.340  46.180  51.107  1.00  0.00    -0.246 OA
HETATM   24  H   UNL     1      23.748  46.579  48.420  1.00  0.00     0.164 HD
HETATM   25  H   UNL     1      23.666  44.427  49.138  1.00  0.00     0.192 HD
BRANCH  22  26
HETATM   26  C   UNL     1      24.016  48.234  49.691  1.00  0.00     0.162 C 
BRANCH  26  27
HETATM   27  C   UNL     1      22.853  48.950  49.058  1.00  0.00    -0.040 A 
HETATM   28  C   UNL     1      22.002  48.264  48.180  1.00  0.00     0.009 A 
HETATM   29  C   UNL     1      20.935  48.922  47.567  1.00  0.00     0.001 A 
HETATM   30  C   UNL     1      20.711  50.274  47.822  1.00  0.00     0.000 A 
HETATM   31  C   UNL     1      21.557  50.969  48.686  1.00  0.00     0.001 A 
HETATM   32  C   UNL     1      22.626  50.312  49.300  1.00  0.00     0.009 A 
ENDBRANCH  26  27
ENDBRANCH  22  26
ENDBRANCH   2  20
TORSDOF 8
ENDMDL
MODEL 7
REMARK VINA RESULT:      -8.8     13.476     16.050
REMARK  8 active torsions:
REMARK  status: ('A' for Active; 'I' for Inactive)
REMARK    1  A    between atoms: C_4  and  C_5 
REMARK    2  A    between atoms: C_5  and  C_6 
REMARK    3  A    between atoms: C_10  and  S_11 
REMARK    4  A    between atoms: S_11  and  C_12 
REMARK    5  A    between atoms: C_12  and  C_13 
REMARK       I    between atoms: C_13  and  N_14 
REMARK    6  A    between atoms: N_14  and  N_15 
REMARK       I    between atoms: N_15  and  C_16 
REMARK       I    between atoms: C_16  and  N_17 
REMARK    7  A    between atoms: N_17  and  C_18 
REMARK    8  A    between atoms: C_18  and  C_19 
ROOT
HETATM    1  C   UNL     1      35.602  51.166  42.288  1.00  0.00     0.245 C 
HETATM    2  N   UNL     1      34.991  49.956  42.027  1.00  0.00    -0.265 N 
HETATM    3  O   UNL     1      35.015  52.102  42.836  1.00  0.00    -0.271 OA
HETATM    4  H   UNL     1      35.333  49.376  41.255  1.00  0.00     0.190 HD
ENDROOT
BRANCH   1   5
HETATM    5  C   UNL     1      37.026  51.300  41.797  1.00  0.00     0.187 C 
BRANCH   5   6
HETATM    6  S   UNL     1      37.081  52.324  40.311  1.00  0.00    -0.081 SA
BRANCH   6   7
HETATM    7  C   UNL     1      35.449  52.422  39.754  1.00  0.00     0.185 A 
HETATM    8  N   UNL     1      34.620  53.494  39.899  1.00  0.00    -0.254 N 
HETATM    9  N   UNL     1      33.379  53.215  39.457  1.00  0.00    -0.157 NA
HETATM   10  H   UNL     1      34.807  54.404  40.313  1.00  0.00     0.191 HD
HETATM   11  C   UNL     1      33.508  51.927  39.103  1.00  0.00     0.153 A 
HETATM   12  N   UNL     1      34.784  51.426  39.219  1.00  0.00    -0.206 NA
BRANCH  11  13
HETATM   13  C   UNL     1      32.364  51.102  38.631  1.00  0.00     0.120 C 
BRANCH  13  14
HETATM   14  C   UNL     1      31.118  51.837  39.071  1.00  0.00    -0.051 A 
HETATM   15  C   UNL     1      30.920  52.175  40.419  1.00  0.00     0.007 A 
HETATM   16  C   UNL     1      29.753  52.825  40.823  1.00  0.00     0.001 A 
HETATM   17  C   UNL     1      28.771  53.144  39.887  1.00  0.00     0.000 A 
HETATM   18  C   UNL     1      28.953  52.812  38.547  1.00  0.00     0.001 A 
HETATM   19  C   UNL     1      30.118  52.161  38.140  1.00  0.00     0.007 A 
ENDBRANCH  13  14
ENDBRANCH  11  13
ENDBRANCH   6   7
ENDBRANCH   5   6
ENDBRANCH   1   5
BRANCH   2  20
HETATM   20  N   UNL     1      33.578  49.934  42.170  1.00  0.00    -0.249 N 
HETATM   21  C   UNL     1      32.932  48.872  41.567  1.00  0.00     0.335 C 
HETATM   22  N   UNL     1      31.585  49.073  41.474  1.00  0.00    -0.338 N 
HETATM   23  O   UNL     1      33.527  47.882  41.153  1.00  0.00    -0.246 OA
HETATM   24  H   UNL     1      31.166  49.727  42.118  1.00  0.00     0.164 HD
HETATM   25  H   UNL     1      33.140  50.847  42.054  1.00  0.00     0.192 HD
BRANCH  22  26
HETATM   26  C   UNL     1      30.719  48.062  40.914  1.00  0.00     0.162 C 
BRANCH  26  27
HETATM   27  C   UNL     1      29.457  48.688  40.384  1.00  0.00    -0.040 A 
HETATM   28  C   UNL     1      28.561  49.310  41.264  1.00  0.00     0.009 A 
HETATM   29  C   UNL     1      27.375  49.873  40.789  1.00  0.00     0.001 A 
HETATM   30  C   UNL     1      27.071  49.814  39.431  1.00  0.00     0.000 A 
HETATM   31  C   UNL     1      27.950  49.189  38.547  1.00  0.00     0.001 A 
HETATM   32  C   UNL     1      29.137  48.625  39.020  1.00  0.00     0.009 A 
ENDBRANCH  26  27
ENDBRANCH  22  26
ENDBRANCH   2  20
TORSDOF 8
ENDMDL
MODEL 8
REMARK VINA RESULT:      -8.7      2.429     12.337
REMARK  8 active torsions:
REMARK  status: ('A' for Active; 'I' for Inactive)
REMARK    1  A    between atoms: C_4  and  C_5 
REMARK    2  A    between atoms: C_5  and  C_6 
REMARK    3  A    between atoms: C_10  and  S_11 
REMARK    4  A    between atoms: S_11  and  C_12 
REMARK    5  A    between atoms: C_12  and  C_13 
REMARK       I    between atoms: C_13  and  N_14 
REMARK    6  A    between atoms: N_14  and  N_15 
REMARK       I    between atoms: N_15  and  C_16 
REMARK       I    between atoms: C_16  and  N_17 
REMARK    7  A    between atoms: N_17  and  C_18 
REMARK    8  A    between atoms: C_18  and  C_19 
ROOT
HETATM    1  C   UNL     1      23.854  48.033  49.621  1.00  0.00     0.245 C 
HETATM    2  N   UNL     1      23.887  46.760  50.155  1.00  0.00    -0.265 N 
HETATM    3  O   UNL     1      24.847  48.764  49.585  1.00  0.00    -0.271 OA
HETATM    4  H   UNL     1      23.026  46.350  50.530  1.00  0.00     0.190 HD
ENDROOT
BRANCH   1   5
HETATM    5  C   UNL     1      22.502  48.507  49.139  1.00  0.00     0.187 C 
BRANCH   5   6
HETATM    6  S   UNL     1      22.332  50.284  49.403  1.00  0.00    -0.081 SA
BRANCH   6   7
HETATM    7  C   UNL     1      20.685  50.531  49.859  1.00  0.00     0.185 A 
HETATM    8  N   UNL     1      19.917  49.661  50.574  1.00  0.00    -0.254 N 
HETATM    9  N   UNL     1      18.646  50.095  50.668  1.00  0.00    -0.157 NA
HETATM   10  H   UNL     1      20.167  48.763  50.981  1.00  0.00     0.191 HD
HETATM   11  C   UNL     1      18.696  51.218  49.935  1.00  0.00     0.153 A 
HETATM   12  N   UNL     1      19.949  51.545  49.471  1.00  0.00    -0.206 NA
BRANCH  11  13
HETATM   13  C   UNL     1      17.492  52.041  49.638  1.00  0.00     0.120 C 
BRANCH  13  14
HETATM   14  C   UNL     1      16.936  51.504  48.338  1.00  0.00    -0.051 A 
HETATM   15  C   UNL     1      17.399  51.988  47.104  1.00  0.00     0.007 A 
HETATM   16  C   UNL     1      16.859  51.511  45.909  1.00  0.00     0.001 A 
HETATM   17  C   UNL     1      15.852  50.547  45.932  1.00  0.00     0.000 A 
HETATM   18  C   UNL     1      15.383  50.060  47.150  1.00  0.00     0.001 A 
HETATM   19  C   UNL     1      15.920  50.536  48.347  1.00  0.00     0.007 A 
ENDBRANCH  13  14
ENDBRANCH  11  13
ENDBRANCH   6   7
ENDBRANCH   5   6
ENDBRANCH   1   5
BRANCH   2  20
HETATM   20  N   UNL     1      25.046  46.435  50.908  1.00  0.00    -0.249 N 
HETATM   21  C   UNL     1      24.935  45.331  51.731  1.00  0.00     0.335 C 
HETATM   22  N   UNL     1      25.951  45.262  52.641  1.00  0.00    -0.338 N 
HETATM   23  O   UNL     1      24.009  44.532  51.646  1.00  0.00    -0.246 OA
HETATM   24  H   UNL     1      26.807  45.748  52.421  1.00  0.00     0.164 HD
HETATM   25  H   UNL     1      25.514  47.247  51.310  1.00  0.00     0.192 HD
BRANCH  22  26
HETATM   26  C   UNL     1      26.044  44.158  53.568  1.00  0.00     0.162 C 
BRANCH  26  27
HETATM   27  C   UNL     1      27.446  44.041  54.102  1.00  0.00    -0.040 A 
HETATM   28  C   UNL     1      28.173  42.857  53.908  1.00  0.00     0.009 A 
HETATM   29  C   UNL     1      29.465  42.725  54.419  1.00  0.00     0.001 A 
HETATM   30  C   UNL     1      30.041  43.773  55.134  1.00  0.00     0.000 A 
HETATM   31  C   UNL     1      29.325  44.951  55.343  1.00  0.00     0.001 A 
HETATM   32  C   UNL     1      28.031  45.085  54.832  1.00  0.00     0.009 A 
ENDBRANCH  26  27
ENDBRANCH  22  26
ENDBRANCH   2  20
TORSDOF 8
ENDMDL
MODEL 9
REMARK VINA RESULT:      -8.7      2.122     11.126
REMARK  8 active torsions:
REMARK  status: ('A' for Active; 'I' for Inactive)
REMARK    1  A    between atoms: C_4  and  C_5 
REMARK    2  A    between atoms: C_5  and  C_6 
REMARK    3  A    between atoms: C_10  and  S_11 
REMARK    4  A    between atoms: S_11  and  C_12 
REMARK    5  A    between atoms: C_12  and  C_13 
REMARK       I    between atoms: C_13  and  N_14 
REMARK    6  A    between atoms: N_14  and  N_15 
REMARK       I    between atoms: N_15  and  C_16 
REMARK       I    between atoms: C_16  and  N_17 
REMARK    7  A    between atoms: N_17  and  C_18 
REMARK    8  A    between atoms: C_18  and  C_19 
ROOT
HETATM    1  C   UNL     1      23.764  44.519  49.392  1.00  0.00     0.245 C 
HETATM    2  N   UNL     1      25.013  44.634  48.814  1.00  0.00    -0.265 N 
HETATM    3  O   UNL     1      23.541  44.845  50.561  1.00  0.00    -0.271 OA
HETATM    4  H   UNL     1      25.264  44.019  48.034  1.00  0.00     0.190 HD
ENDROOT
BRANCH   1   5
HETATM    5  C   UNL     1      22.693  43.902  48.522  1.00  0.00     0.187 C 
BRANCH   5   6
HETATM    6  S   UNL     1      22.270  45.017  47.167  1.00  0.00    -0.081 SA
BRANCH   6   7
HETATM    7  C   UNL     1      21.943  46.543  47.906  1.00  0.00     0.185 A 
HETATM    8  N   UNL     1      20.968  46.791  48.825  1.00  0.00    -0.254 N 
HETATM    9  N   UNL     1      20.899  48.103  49.123  1.00  0.00    -0.157 NA
HETATM   10  H   UNL     1      20.304  46.150  49.251  1.00  0.00     0.191 HD
HETATM   11  C   UNL     1      21.832  48.609  48.302  1.00  0.00     0.153 A 
HETATM   12  N   UNL     1      22.533  47.669  47.581  1.00  0.00    -0.206 NA
BRANCH  11  13
HETATM   13  C   UNL     1      22.085  50.069  48.171  1.00  0.00     0.120 C 
BRANCH  13  14
HETATM   14  C   UNL     1      20.729  50.705  47.965  1.00  0.00    -0.051 A 
HETATM   15  C   UNL     1      19.924  50.344  46.872  1.00  0.00     0.007 A 
HETATM   16  C   UNL     1      18.687  50.958  46.669  1.00  0.00     0.001 A 
HETATM   17  C   UNL     1      18.240  51.938  47.555  1.00  0.00     0.000 A 
HETATM   18  C   UNL     1      19.028  52.305  48.642  1.00  0.00     0.001 A 
HETATM   19  C   UNL     1      20.267  51.695  48.846  1.00  0.00     0.007 A 
ENDBRANCH  13  14
ENDBRANCH  11  13
ENDBRANCH   6   7
ENDBRANCH   5   6
ENDBRANCH   1   5
BRANCH   2  20
HETATM   20  N   UNL     1      26.087  44.888  49.707  1.00  0.00    -0.249 N 
HETATM   21  C   UNL     1      26.768  43.773  50.155  1.00  0.00     0.335 C 
HETATM   22  N   UNL     1      27.564  44.052  51.230  1.00  0.00    -0.338 N 
HETATM   23  O   UNL     1      26.638  42.666  49.643  1.00  0.00    -0.246 OA
HETATM   24  H   UNL     1      27.855  45.009  51.357  1.00  0.00     0.164 HD
HETATM   25  H   UNL     1      25.877  45.595  50.410  1.00  0.00     0.192 HD
BRANCH  22  26
HETATM   26  C   UNL     1      28.395  43.031  51.824  1.00  0.00     0.162 C 
BRANCH  26  27
HETATM   27  C   UNL     1      28.964  43.513  53.131  1.00  0.00    -0.040 A 
HETATM   28  C   UNL     1      30.130  42.929  53.645  1.00  0.00     0.009 A 
HETATM   29  C   UNL     1      30.655  43.351  54.868  1.00  0.00     0.001 A 
HETATM   30  C   UNL     1      30.016  44.355  55.591  1.00  0.00     0.000 A 
HETATM   31  C   UNL     1      28.849  44.937  55.095  1.00  0.00     0.001 A 
HETATM   32  C   UNL     1      28.322  44.516  53.871  1.00  0.00     0.009 A 
ENDBRANCH  26  27
ENDBRANCH  22  26
ENDBRANCH   2  20
TORSDOF 8
ENDMDL
MODEL 10
REMARK VINA RESULT:      -8.7     13.222     15.005
REMARK  8 active torsions:
REMARK  status: ('A' for Active; 'I' for Inactive)
REMARK    1  A    between atoms: C_4  and  C_5 
REMARK    2  A    between atoms: C_5  and  C_6 
REMARK    3  A    between atoms: C_10  and  S_11 
REMARK    4  A    between atoms: S_11  and  C_12 
REMARK    5  A    between atoms: C_12  and  C_13 
REMARK       I    between atoms: C_13  and  N_14 
REMARK    6  A    between atoms: N_14  and  N_15 
REMARK       I    between atoms: N_15  and  C_16 
REMARK       I    between atoms: C_16  and  N_17 
REMARK    7  A    between atoms: N_17  and  C_18 
REMARK    8  A    between atoms: C_18  and  C_19 
ROOT
HETATM    1  C   UNL     1      35.088  52.686  39.722  1.00  0.00     0.245 C 
HETATM    2  N   UNL     1      33.915  52.605  40.447  1.00  0.00    -0.265 N 
HETATM    3  O   UNL     1      35.191  53.370  38.700  1.00  0.00    -0.271 OA
HETATM    4  H   UNL     1      33.732  51.771  41.013  1.00  0.00     0.190 HD
ENDROOT
BRANCH   1   5
HETATM    5  C   UNL     1      36.228  51.829  40.222  1.00  0.00     0.187 C 
BRANCH   5   6
HETATM    6  S   UNL     1      35.960  51.379  41.949  1.00  0.00    -0.081 SA
BRANCH   6   7
HETATM    7  C   UNL     1      34.669  50.231  41.936  1.00  0.00     0.185 A 
HETATM    8  N   UNL     1      34.680  49.027  41.298  1.00  0.00    -0.254 N 
HETATM    9  N   UNL     1      33.483  48.417  41.386  1.00  0.00    -0.157 NA
HETATM   10  H   UNL     1      35.424  48.586  40.763  1.00  0.00     0.191 HD
HETATM   11  C   UNL     1      32.766  49.337  42.050  1.00  0.00     0.153 A 
HETATM   12  N   UNL     1      33.483  50.440  42.454  1.00  0.00    -0.206 NA
BRANCH  11  13
HETATM   13  C   UNL     1      31.312  49.183  42.322  1.00  0.00     0.120 C 
BRANCH  13  14
HETATM   14  C   UNL     1      30.691  48.754  41.012  1.00  0.00    -0.051 A 
HETATM   15  C   UNL     1      29.863  47.621  40.945  1.00  0.00     0.007 A 
HETATM   16  C   UNL     1      29.319  47.212  39.727  1.00  0.00     0.001 A 
HETATM   17  C   UNL     1      29.594  47.928  38.562  1.00  0.00     0.000 A 
HETATM   18  C   UNL     1      30.415  49.052  38.615  1.00  0.00     0.001 A 
HETATM   19  C   UNL     1      30.962  49.463  39.831  1.00  0.00     0.007 A 
ENDBRANCH  13  14
ENDBRANCH  11  13
ENDBRANCH   6   7
ENDBRANCH   5   6
ENDBRANCH   1   5
BRANCH   2  20
HETATM   20  N   UNL     1      32.758  53.125  39.810  1.00  0.00    -0.249 N 
HETATM   21  C   UNL     1      31.600  53.104  40.564  1.00  0.00     0.335 C 
HETATM   22  N   UNL     1      30.486  53.319  39.803  1.00  0.00    -0.338 N 
HETATM   23  O   UNL     1      31.599  52.894  41.772  1.00  0.00    -0.246 OA
HETATM   24  H   UNL     1      30.607  53.800  38.925  1.00  0.00     0.164 HD
HETATM   25  H   UNL     1      32.662  52.839  38.836  1.00  0.00     0.192 HD
BRANCH  22  26
HETATM   26  C   UNL     1      29.175  53.380  40.406  1.00  0.00     0.162 C 
BRANCH  26  27
HETATM   27  C   UNL     1      28.367  52.167  40.028  1.00  0.00    -0.040 A 
HETATM   28  C   UNL     1      28.034  51.940  38.685  1.00  0.00     0.009 A 
HETATM   29  C   UNL     1      27.265  50.833  38.322  1.00  0.00     0.001 A 
HETATM   30  C   UNL     1      26.817  49.946  39.299  1.00  0.00     0.000 A 
HETATM   31  C   UNL     1      27.133  50.167  40.639  1.00  0.00     0.001 A 
HETATM   32  C   UNL     1      27.903  51.275  41.004  1.00  0.00     0.009 A 
ENDBRANCH  26  27
ENDBRANCH  22  26
ENDBRANCH   2  20
TORSDOF 8
ENDMDL
