MODEL 1
REMARK VINA RESULT:      -9.7      0.000      0.000
REMARK  4 active torsions:
REMARK  status: ('A' for Active; 'I' for Inactive)
REMARK    1  A    between atoms: C_4  and  C_5 
REMARK    2  A    between atoms: C_9  and  C_10 
REMARK       I    between atoms: C_10  and  N_11 
REMARK    3  A    between atoms: N_11  and  N_12 
REMARK    4  A    between atoms: C_13  and  C_14 
ROOT
HETATM    1  C   UNL     1      24.840  47.692  50.023  1.00  0.00     0.289 C 
HETATM    2  N   UNL     1      24.792  46.634  50.917  1.00  0.00    -0.242 N 
HETATM    3  O   UNL     1      25.876  48.245  49.663  1.00  0.00    -0.264 OA
HETATM    4  H   UNL     1      23.906  46.232  51.192  1.00  0.00     0.192 HD
ENDROOT
BRANCH   1   5
HETATM    5  C   UNL     1      23.554  48.124  49.532  1.00  0.00     0.121 A 
HETATM    6  N   UNL     1      22.581  47.221  49.209  1.00  0.00    -0.272 N 
HETATM    7  N   UNL     1      21.451  47.771  48.742  1.00  0.00    -0.174 NA
HETATM    8  H   UNL     1      22.645  46.208  49.280  1.00  0.00     0.189 HD
HETATM    9  C   UNL     1      21.673  49.093  48.782  1.00  0.00     0.089 A 
HETATM   10  C   UNL     1      22.986  49.355  49.272  1.00  0.00     0.071 A 
BRANCH   9  11
HETATM   11  C   UNL     1      20.659  50.059  48.349  1.00  0.00    -0.006 A 
HETATM   12  C   UNL     1      19.839  49.805  47.239  1.00  0.00     0.014 A 
HETATM   13  C   UNL     1      18.868  50.730  46.843  1.00  0.00     0.001 A 
HETATM   14  C   UNL     1      18.704  51.919  47.551  1.00  0.00     0.000 A 
HETATM   15  C   UNL     1      19.512  52.187  48.652  1.00  0.00     0.001 A 
HETATM   16  C   UNL     1      20.485  51.264  49.047  1.00  0.00     0.014 A 
ENDBRANCH   9  11
ENDBRANCH   1   5
BRANCH   2  17
HETATM   17  N   UNL     1      25.946  46.152  51.470  1.00  0.00    -0.182 NA
HETATM   18  C   UNL     1      25.874  45.805  52.714  1.00  0.00     0.168 C 
BRANCH  18  19
HETATM   19  C   UNL     1      27.040  45.293  53.377  1.00  0.00     0.052 A 
HETATM   20  N   UNL     1      27.584  45.870  54.506  1.00  0.00    -0.358 N 
HETATM   21  H   UNL     1      27.205  46.695  54.956  1.00  0.00     0.166 HD
HETATM   22  C   UNL     1      28.681  45.157  54.897  1.00  0.00     0.016 A 
HETATM   23  C   UNL     1      28.852  44.104  54.022  1.00  0.00    -0.033 A 
HETATM   24  C   UNL     1      29.518  45.455  56.089  1.00  0.00     0.057 C 
HETATM   25  C   UNL     1      29.972  43.128  54.150  1.00  0.00     0.040 C 
HETATM   26  C   UNL     1      27.818  44.193  53.059  1.00  0.00     0.040 A 
HETATM   27  C   UNL     1      30.615  43.207  55.550  1.00  0.00     0.005 C 
HETATM   28  C   UNL     1      30.835  44.662  56.009  1.00  0.00     0.006 C 
ENDBRANCH  18  19
ENDBRANCH   2  17
TORSDOF 4
ENDMDL
MODEL 2
REMARK VINA RESULT:      -9.6      1.573     10.976
REMARK  4 active torsions:
REMARK  status: ('A' for Active; 'I' for Inactive)
REMARK    1  A    between atoms: C_4  and  C_5 
REMARK    2  A    between atoms: C_9  and  C_10 
REMARK       I    between atoms: C_10  and  N_11 
REMARK    3  A    between atoms: N_11  and  N_12 
REMARK    4  A    between atoms: C_13  and  C_14 
ROOT
HETATM    1  C   UNL     1      25.965  45.574  52.765  1.00  0.00     0.289 C 
HETATM    2  N   UNL     1      26.046  46.865  52.267  1.00  0.00    -0.242 N 
HETATM    3  O   UNL     1      24.969  44.861  52.674  1.00  0.00    -0.264 OA
HETATM    4  H   UNL     1      26.888  47.412  52.391  1.00  0.00     0.192 HD
ENDROOT
BRANCH   1   5
HETATM    5  C   UNL     1      27.158  45.108  53.427  1.00  0.00     0.121 A 
HETATM    6  N   UNL     1      27.994  44.208  52.826  1.00  0.00    -0.272 N 
HETATM    7  N   UNL     1      29.046  43.848  53.574  1.00  0.00    -0.174 NA
HETATM    8  H   UNL     1      27.881  43.798  51.903  1.00  0.00     0.189 HD
HETATM    9  C   UNL     1      28.919  44.558  54.706  1.00  0.00     0.089 A 
HETATM   10  C   UNL     1      27.743  45.361  54.652  1.00  0.00     0.071 A 
BRANCH   9  11
HETATM   11  C   UNL     1      29.892  44.449  55.798  1.00  0.00    -0.006 A 
HETATM   12  C   UNL     1      29.911  45.377  56.850  1.00  0.00     0.014 A 
HETATM   13  C   UNL     1      30.837  45.256  57.891  1.00  0.00     0.001 A 
HETATM   14  C   UNL     1      31.754  44.207  57.893  1.00  0.00     0.000 A 
HETATM   15  C   UNL     1      31.750  43.281  56.854  1.00  0.00     0.001 A 
HETATM   16  C   UNL     1      30.827  43.402  55.812  1.00  0.00     0.014 A 
ENDBRANCH   9  11
ENDBRANCH   1   5
BRANCH   2  17
HETATM   17  N   UNL     1      24.969  47.427  51.640  1.00  0.00    -0.182 NA
HETATM   18  C   UNL     1      25.059  47.536  50.354  1.00  0.00     0.168 C 
BRANCH  18  19
HETATM   19  C   UNL     1      23.976  48.120  49.614  1.00  0.00     0.052 A 
HETATM   20  N   UNL     1      22.720  47.555  49.535  1.00  0.00    -0.358 N 
HETATM   21  H   UNL     1      22.462  46.688  49.992  1.00  0.00     0.166 HD
HETATM   22  C   UNL     1      21.916  48.344  48.763  1.00  0.00     0.016 A 
HETATM   23  C   UNL     1      22.648  49.433  48.340  1.00  0.00    -0.033 A 
HETATM   24  C   UNL     1      20.482  48.078  48.469  1.00  0.00     0.057 C 
HETATM   25  C   UNL     1      22.074  50.493  47.462  1.00  0.00     0.040 C 
HETATM   26  C   UNL     1      23.951  49.290  48.873  1.00  0.00     0.040 A 
HETATM   27  C   UNL     1      20.533  50.423  47.448  1.00  0.00     0.005 C 
HETATM   28  C   UNL     1      20.015  48.978  47.310  1.00  0.00     0.006 C 
ENDBRANCH  18  19
ENDBRANCH   2  17
TORSDOF 4
ENDMDL
MODEL 3
REMARK VINA RESULT:      -9.1      1.600     10.744
REMARK  4 active torsions:
REMARK  status: ('A' for Active; 'I' for Inactive)
REMARK    1  A    between atoms: C_4  and  C_5 
REMARK    2  A    between atoms: C_9  and  C_10 
REMARK       I    between atoms: C_10  and  N_11 
REMARK    3  A    between atoms: N_11  and  N_12 
REMARK    4  A    between atoms: C_13  and  C_14 
ROOT
HETATM    1  C   UNL     1      24.866  44.952  51.372  1.00  0.00     0.289 C 
HETATM    2  N   UNL     1      25.010  46.120  50.640  1.00  0.00    -0.242 N 
HETATM    3  O   UNL     1      23.823  44.309  51.446  1.00  0.00    -0.264 OA
HETATM    4  H   UNL     1      25.891  46.617  50.633  1.00  0.00     0.192 HD
ENDROOT
BRANCH   1   5
HETATM    5  C   UNL     1      26.054  44.530  52.073  1.00  0.00     0.121 A 
HETATM    6  N   UNL     1      26.692  43.366  51.745  1.00  0.00    -0.272 N 
HETATM    7  N   UNL     1      27.764  43.093  52.501  1.00  0.00    -0.174 NA
HETATM    8  H   UNL     1      26.424  42.712  51.014  1.00  0.00     0.189 HD
HETATM    9  C   UNL     1      27.859  44.131  53.347  1.00  0.00     0.089 A 
HETATM   10  C   UNL     1      26.800  45.055  53.109  1.00  0.00     0.071 A 
BRANCH   9  11
HETATM   11  C   UNL     1      28.924  44.213  54.351  1.00  0.00    -0.006 A 
HETATM   12  C   UNL     1      29.036  45.323  55.203  1.00  0.00     0.014 A 
HETATM   13  C   UNL     1      30.051  45.384  56.163  1.00  0.00     0.001 A 
HETATM   14  C   UNL     1      30.964  44.339  56.285  1.00  0.00     0.000 A 
HETATM   15  C   UNL     1      30.869  43.234  55.444  1.00  0.00     0.001 A 
HETATM   16  C   UNL     1      29.856  43.172  54.482  1.00  0.00     0.014 A 
ENDBRANCH   9  11
ENDBRANCH   1   5
BRANCH   2  17
HETATM   17  N   UNL     1      23.946  46.633  49.951  1.00  0.00    -0.182 NA
HETATM   18  C   UNL     1      23.836  47.922  49.961  1.00  0.00     0.168 C 
BRANCH  18  19
HETATM   19  C   UNL     1      22.744  48.547  49.270  1.00  0.00     0.052 A 
HETATM   20  N   UNL     1      22.343  49.846  49.504  1.00  0.00    -0.358 N 
HETATM   21  H   UNL     1      22.787  50.460  50.177  1.00  0.00     0.166 HD
HETATM   22  C   UNL     1      21.286  50.147  48.694  1.00  0.00     0.016 A 
HETATM   23  C   UNL     1      20.997  49.040  47.922  1.00  0.00    -0.033 A 
HETATM   24  C   UNL     1      20.596  51.463  48.639  1.00  0.00     0.057 C 
HETATM   25  C   UNL     1      19.881  49.021  46.933  1.00  0.00     0.040 C 
HETATM   26  C   UNL     1      21.916  48.028  48.289  1.00  0.00     0.040 A 
HETATM   27  C   UNL     1      19.404  50.452  46.612  1.00  0.00     0.005 C 
HETATM   28  C   UNL     1      19.263  51.318  47.880  1.00  0.00     0.006 C 
ENDBRANCH  18  19
ENDBRANCH   2  17
TORSDOF 4
ENDMDL
MODEL 4
REMARK VINA RESULT:      -9.0      1.464      1.912
REMARK  4 active torsions:
REMARK  status: ('A' for Active; 'I' for Inactive)
REMARK    1  A    between atoms: C_4  and  C_5 
REMARK    2  A    between atoms: C_9  and  C_10 
REMARK       I    between atoms: C_10  and  N_11 
REMARK    3  A    between atoms: N_11  and  N_12 
REMARK    4  A    between atoms: C_13  and  C_14 
ROOT
HETATM    1  C   UNL     1      25.476  48.641  49.332  1.00  0.00     0.289 C 
HETATM    2  N   UNL     1      25.180  47.772  50.370  1.00  0.00    -0.242 N 
HETATM    3  O   UNL     1      26.613  48.871  48.927  1.00  0.00    -0.264 OA
HETATM    4  H   UNL     1      24.224  47.640  50.673  1.00  0.00     0.192 HD
ENDROOT
BRANCH   1   5
HETATM    5  C   UNL     1      24.330  49.289  48.743  1.00  0.00     0.121 A 
HETATM    6  N   UNL     1      24.449  50.040  47.607  1.00  0.00    -0.272 N 
HETATM    7  N   UNL     1      23.303  50.601  47.194  1.00  0.00    -0.174 NA
HETATM    8  H   UNL     1      25.301  50.210  47.078  1.00  0.00     0.189 HD
HETATM    9  C   UNL     1      22.382  50.184  48.077  1.00  0.00     0.089 A 
HETATM   10  C   UNL     1      22.989  49.358  49.067  1.00  0.00     0.071 A 
BRANCH   9  11
HETATM   11  C   UNL     1      20.975  50.583  47.969  1.00  0.00    -0.006 A 
HETATM   12  C   UNL     1      20.069  49.851  47.186  1.00  0.00     0.014 A 
HETATM   13  C   UNL     1      18.728  50.236  47.101  1.00  0.00     0.001 A 
HETATM   14  C   UNL     1      18.275  51.356  47.795  1.00  0.00     0.000 A 
HETATM   15  C   UNL     1      19.163  52.095  48.572  1.00  0.00     0.001 A 
HETATM   16  C   UNL     1      20.504  51.712  48.656  1.00  0.00     0.014 A 
ENDBRANCH   9  11
ENDBRANCH   1   5
BRANCH   2  17
HETATM   17  N   UNL     1      26.187  47.117  51.023  1.00  0.00    -0.182 NA
HETATM   18  C   UNL     1      25.814  46.229  51.887  1.00  0.00     0.168 C 
BRANCH  18  19
HETATM   19  C   UNL     1      26.805  45.497  52.625  1.00  0.00     0.052 A 
HETATM   20  N   UNL     1      27.458  44.390  52.123  1.00  0.00    -0.358 N 
HETATM   21  H   UNL     1      27.293  44.009  51.198  1.00  0.00     0.166 HD
HETATM   22  C   UNL     1      28.336  43.919  53.057  1.00  0.00     0.016 A 
HETATM   23  C   UNL     1      28.260  44.725  54.174  1.00  0.00    -0.033 A 
HETATM   24  C   UNL     1      29.241  42.753  52.872  1.00  0.00     0.057 C 
HETATM   25  C   UNL     1      29.081  44.483  55.395  1.00  0.00     0.040 C 
HETATM   26  C   UNL     1      27.290  45.719  53.902  1.00  0.00     0.040 A 
HETATM   27  C   UNL     1      30.252  43.527  55.092  1.00  0.00     0.005 C 
HETATM   28  C   UNL     1      29.816  42.323  54.234  1.00  0.00     0.006 C 
ENDBRANCH  18  19
ENDBRANCH   2  17
TORSDOF 4
ENDMDL
MODEL 5
REMARK VINA RESULT:      -8.7      1.828     10.716
REMARK  4 active torsions:
REMARK  status: ('A' for Active; 'I' for Inactive)
REMARK    1  A    between atoms: C_4  and  C_5 
REMARK    2  A    between atoms: C_9  and  C_10 
REMARK       I    between atoms: C_10  and  N_11 
REMARK    3  A    between atoms: N_11  and  N_12 
REMARK    4  A    between atoms: C_13  and  C_14 
ROOT
HETATM    1  C   UNL     1      24.279  45.519  49.518  1.00  0.00     0.289 C 
HETATM    2  N   UNL     1      24.189  46.899  49.614  1.00  0.00    -0.242 N 
HETATM    3  O   UNL     1      23.429  44.807  48.989  1.00  0.00    -0.264 OA
HETATM    4  H   UNL     1      24.913  47.430  50.080  1.00  0.00     0.192 HD
ENDROOT
BRANCH   1   5
HETATM    5  C   UNL     1      25.467  44.950  50.106  1.00  0.00     0.121 A 
HETATM    6  N   UNL     1      26.347  44.221  49.356  1.00  0.00    -0.272 N 
HETATM    7  N   UNL     1      27.388  43.735  50.045  1.00  0.00    -0.174 NA
HETATM    8  H   UNL     1      26.273  44.016  48.362  1.00  0.00     0.189 HD
HETATM    9  C   UNL     1      27.207  44.182  51.297  1.00  0.00     0.089 A 
HETATM   10  C   UNL     1      26.009  44.949  51.376  1.00  0.00     0.071 A 
BRANCH   9  11
HETATM   11  C   UNL     1      28.151  43.865  52.374  1.00  0.00    -0.006 A 
HETATM   12  C   UNL     1      28.022  44.440  53.647  1.00  0.00     0.014 A 
HETATM   13  C   UNL     1      28.923  44.121  54.668  1.00  0.00     0.001 A 
HETATM   14  C   UNL     1      29.963  43.225  54.429  1.00  0.00     0.000 A 
HETATM   15  C   UNL     1      30.107  42.650  53.170  1.00  0.00     0.001 A 
HETATM   16  C   UNL     1      29.208  42.970  52.148  1.00  0.00     0.014 A 
ENDBRANCH   9  11
ENDBRANCH   1   5
BRANCH   2  17
HETATM   17  N   UNL     1      23.096  47.551  49.114  1.00  0.00    -0.182 NA
HETATM   18  C   UNL     1      22.857  48.718  49.617  1.00  0.00     0.168 C 
BRANCH  18  19
HETATM   19  C   UNL     1      21.725  49.471  49.155  1.00  0.00     0.052 A 
HETATM   20  N   UNL     1      20.995  50.316  49.966  1.00  0.00    -0.358 N 
HETATM   21  H   UNL     1      21.201  50.474  50.945  1.00  0.00     0.166 HD
HETATM   22  C   UNL     1      19.989  50.885  49.239  1.00  0.00     0.016 A 
HETATM   23  C   UNL     1      20.063  50.413  47.945  1.00  0.00    -0.033 A 
HETATM   24  C   UNL     1      19.007  51.873  49.761  1.00  0.00     0.057 C 
HETATM   25  C   UNL     1      19.098  50.823  46.886  1.00  0.00     0.040 C 
HETATM   26  C   UNL     1      21.157  49.517  47.893  1.00  0.00     0.040 A 
HETATM   27  C   UNL     1      18.321  52.088  47.306  1.00  0.00     0.005 C 
HETATM   28  C   UNL     1      17.840  52.018  48.768  1.00  0.00     0.006 C 
ENDBRANCH  18  19
ENDBRANCH   2  17
TORSDOF 4
ENDMDL
MODEL 6
REMARK VINA RESULT:      -8.7      3.549     10.692
REMARK  4 active torsions:
REMARK  status: ('A' for Active; 'I' for Inactive)
REMARK    1  A    between atoms: C_4  and  C_5 
REMARK    2  A    between atoms: C_9  and  C_10 
REMARK       I    between atoms: C_10  and  N_11 
REMARK    3  A    between atoms: N_11  and  N_12 
REMARK    4  A    between atoms: C_13  and  C_14 
ROOT
HETATM    1  C   UNL     1      25.818  46.213  52.947  1.00  0.00     0.289 C 
HETATM    2  N   UNL     1      25.235  44.991  52.651  1.00  0.00    -0.242 N 
HETATM    3  O   UNL     1      25.465  47.282  52.457  1.00  0.00    -0.264 OA
HETATM    4  H   UNL     1      25.583  44.140  53.072  1.00  0.00     0.192 HD
ENDROOT
BRANCH   1   5
HETATM    5  C   UNL     1      26.907  46.148  53.891  1.00  0.00     0.121 A 
HETATM    6  N   UNL     1      27.376  47.275  54.506  1.00  0.00    -0.272 N 
HETATM    7  N   UNL     1      28.407  47.061  55.336  1.00  0.00    -0.174 NA
HETATM    8  H   UNL     1      27.030  48.223  54.383  1.00  0.00     0.189 HD
HETATM    9  C   UNL     1      28.613  45.736  55.290  1.00  0.00     0.089 A 
HETATM   10  C   UNL     1      27.690  45.127  54.391  1.00  0.00     0.071 A 
BRANCH   9  11
HETATM   11  C   UNL     1      29.671  45.093  56.075  1.00  0.00    -0.006 A 
HETATM   12  C   UNL     1      30.034  45.578  57.341  1.00  0.00     0.014 A 
HETATM   13  C   UNL     1      31.037  44.948  58.085  1.00  0.00     0.001 A 
HETATM   14  C   UNL     1      31.689  43.827  57.574  1.00  0.00     0.000 A 
HETATM   15  C   UNL     1      31.343  43.337  56.317  1.00  0.00     0.001 A 
HETATM   16  C   UNL     1      30.342  43.967  55.573  1.00  0.00     0.014 A 
ENDBRANCH   9  11
ENDBRANCH   1   5
BRANCH   2  17
HETATM   17  N   UNL     1      24.208  44.921  51.751  1.00  0.00    -0.182 NA
HETATM   18  C   UNL     1      24.494  44.385  50.609  1.00  0.00     0.168 C 
BRANCH  18  19
HETATM   19  C   UNL     1      23.477  44.277  49.601  1.00  0.00     0.052 A 
HETATM   20  N   UNL     1      22.338  45.055  49.587  1.00  0.00    -0.358 N 
HETATM   21  H   UNL     1      22.131  45.763  50.282  1.00  0.00     0.166 HD
HETATM   22  C   UNL     1      21.571  44.718  48.509  1.00  0.00     0.016 A 
HETATM   23  C   UNL     1      22.215  43.717  47.811  1.00  0.00    -0.033 A 
HETATM   24  C   UNL     1      20.280  45.357  48.142  1.00  0.00     0.057 C 
HETATM   25  C   UNL     1      21.642  43.103  46.579  1.00  0.00     0.040 C 
HETATM   26  C   UNL     1      23.417  43.435  48.503  1.00  0.00     0.040 A 
HETATM   27  C   UNL     1      20.514  43.979  45.999  1.00  0.00     0.005 C 
HETATM   28  C   UNL     1      19.556  44.496  47.090  1.00  0.00     0.006 C 
ENDBRANCH  18  19
ENDBRANCH   2  17
TORSDOF 4
ENDMDL
MODEL 7
REMARK VINA RESULT:      -8.4      8.452      9.994
REMARK  4 active torsions:
REMARK  status: ('A' for Active; 'I' for Inactive)
REMARK    1  A    between atoms: C_4  and  C_5 
REMARK    2  A    between atoms: C_9  and  C_10 
REMARK       I    between atoms: C_10  and  N_11 
REMARK    3  A    between atoms: N_11  and  N_12 
REMARK    4  A    between atoms: C_13  and  C_14 
ROOT
HETATM    1  C   UNL     1      27.928  40.725  50.950  1.00  0.00     0.289 C 
HETATM    2  N   UNL     1      28.855  40.428  51.937  1.00  0.00    -0.242 N 
HETATM    3  O   UNL     1      27.138  41.664  51.006  1.00  0.00    -0.264 OA
HETATM    4  H   UNL     1      29.466  39.628  51.844  1.00  0.00     0.192 HD
ENDROOT
BRANCH   1   5
HETATM    5  C   UNL     1      27.943  39.829  49.820  1.00  0.00     0.121 A 
HETATM    6  N   UNL     1      27.479  38.547  49.929  1.00  0.00    -0.272 N 
HETATM    7  N   UNL     1      27.582  37.827  48.803  1.00  0.00    -0.174 NA
HETATM    8  H   UNL     1      27.091  38.111  50.761  1.00  0.00     0.189 HD
HETATM    9  C   UNL     1      28.109  38.672  47.904  1.00  0.00     0.089 A 
HETATM   10  C   UNL     1      28.351  39.941  48.506  1.00  0.00     0.071 A 
BRANCH   9  11
HETATM   11  C   UNL     1      28.377  38.259  46.523  1.00  0.00    -0.006 A 
HETATM   12  C   UNL     1      28.022  39.074  45.438  1.00  0.00     0.014 A 
HETATM   13  C   UNL     1      28.294  38.673  44.126  1.00  0.00     0.001 A 
HETATM   14  C   UNL     1      28.923  37.455  43.882  1.00  0.00     0.000 A 
HETATM   15  C   UNL     1      29.278  36.633  44.948  1.00  0.00     0.001 A 
HETATM   16  C   UNL     1      29.005  37.031  46.260  1.00  0.00     0.014 A 
ENDBRANCH   9  11
ENDBRANCH   1   5
BRANCH   2  17
HETATM   17  N   UNL     1      28.920  41.193  53.068  1.00  0.00    -0.182 NA
HETATM   18  C   UNL     1      29.718  42.210  53.017  1.00  0.00     0.168 C 
BRANCH  18  19
HETATM   19  C   UNL     1      29.854  43.064  54.162  1.00  0.00     0.052 A 
HETATM   20  N   UNL     1      30.783  42.852  55.160  1.00  0.00    -0.358 N 
HETATM   21  H   UNL     1      31.441  42.082  55.162  1.00  0.00     0.166 HD
HETATM   22  C   UNL     1      30.665  43.830  56.105  1.00  0.00     0.016 A 
HETATM   23  C   UNL     1      29.657  44.690  55.721  1.00  0.00    -0.033 A 
HETATM   24  C   UNL     1      31.514  43.954  57.320  1.00  0.00     0.057 C 
HETATM   25  C   UNL     1      29.254  45.869  56.540  1.00  0.00     0.040 C 
HETATM   26  C   UNL     1      29.142  44.204  54.496  1.00  0.00     0.040 A 
HETATM   27  C   UNL     1      30.334  46.209  57.587  1.00  0.00     0.005 C 
HETATM   28  C   UNL     1      30.871  44.953  58.301  1.00  0.00     0.006 C 
ENDBRANCH  18  19
ENDBRANCH   2  17
TORSDOF 4
ENDMDL
MODEL 8
REMARK VINA RESULT:      -8.2     18.744     21.319
REMARK  4 active torsions:
REMARK  status: ('A' for Active; 'I' for Inactive)
REMARK    1  A    between atoms: C_4  and  C_5 
REMARK    2  A    between atoms: C_9  and  C_10 
REMARK       I    between atoms: C_10  and  N_11 
REMARK    3  A    between atoms: N_11  and  N_12 
REMARK    4  A    between atoms: C_13  and  C_14 
ROOT
HETATM    1  C   UNL     1      36.975  45.998  64.317  1.00  0.00     0.289 C 
HETATM    2  N   UNL     1      37.257  46.585  65.540  1.00  0.00    -0.242 N 
HETATM    3  O   UNL     1      36.575  46.615  63.332  1.00  0.00    -0.264 OA
HETATM    4  H   UNL     1      37.564  46.021  66.322  1.00  0.00     0.192 HD
ENDROOT
BRANCH   1   5
HETATM    5  C   UNL     1      37.176  44.571  64.271  1.00  0.00     0.121 A 
HETATM    6  N   UNL     1      36.171  43.704  64.599  1.00  0.00    -0.272 N 
HETATM    7  N   UNL     1      36.515  42.411  64.535  1.00  0.00    -0.174 NA
HETATM    8  H   UNL     1      35.227  43.951  64.885  1.00  0.00     0.189 HD
HETATM    9  C   UNL     1      37.793  42.417  64.123  1.00  0.00     0.089 A 
HETATM   10  C   UNL     1      38.244  43.758  63.948  1.00  0.00     0.071 A 
BRANCH   9  11
HETATM   11  C   UNL     1      38.545  41.175  63.923  1.00  0.00    -0.006 A 
HETATM   12  C   UNL     1      38.857  40.332  65.000  1.00  0.00     0.014 A 
HETATM   13  C   UNL     1      39.566  39.144  64.793  1.00  0.00     0.001 A 
HETATM   14  C   UNL     1      39.971  38.785  63.510  1.00  0.00     0.000 A 
HETATM   15  C   UNL     1      39.673  39.613  62.432  1.00  0.00     0.001 A 
HETATM   16  C   UNL     1      38.966  40.801  62.637  1.00  0.00     0.014 A 
ENDBRANCH   9  11
ENDBRANCH   1   5
BRANCH   2  17
HETATM   17  N   UNL     1      37.081  47.929  65.713  1.00  0.00    -0.182 NA
HETATM   18  C   UNL     1      37.810  48.481  66.629  1.00  0.00     0.168 C 
BRANCH  18  19
HETATM   19  C   UNL     1      37.686  49.888  66.883  1.00  0.00     0.052 A 
HETATM   20  N   UNL     1      37.267  50.407  68.091  1.00  0.00    -0.358 N 
HETATM   21  H   UNL     1      37.017  49.838  68.891  1.00  0.00     0.166 HD
HETATM   22  C   UNL     1      37.254  51.770  68.019  1.00  0.00     0.016 A 
HETATM   23  C   UNL     1      37.671  52.146  66.760  1.00  0.00    -0.033 A 
HETATM   24  C   UNL     1      36.884  52.683  69.134  1.00  0.00     0.057 C 
HETATM   25  C   UNL     1      37.760  53.573  66.337  1.00  0.00     0.040 C 
HETATM   26  C   UNL     1      37.940  50.958  66.040  1.00  0.00     0.040 A 
HETATM   27  C   UNL     1      37.732  54.513  67.559  1.00  0.00     0.005 C 
HETATM   28  C   UNL     1      36.657  54.104  68.585  1.00  0.00     0.006 C 
ENDBRANCH  18  19
ENDBRANCH   2  17
TORSDOF 4
ENDMDL
MODEL 9
REMARK VINA RESULT:      -8.1      1.602      2.449
REMARK  4 active torsions:
REMARK  status: ('A' for Active; 'I' for Inactive)
REMARK    1  A    between atoms: C_4  and  C_5 
REMARK    2  A    between atoms: C_9  and  C_10 
REMARK       I    between atoms: C_10  and  N_11 
REMARK    3  A    between atoms: N_11  and  N_12 
REMARK    4  A    between atoms: C_13  and  C_14 
ROOT
HETATM    1  C   UNL     1      25.688  46.400  50.749  1.00  0.00     0.289 C 
HETATM    2  N   UNL     1      25.823  45.246  51.506  1.00  0.00    -0.242 N 
HETATM    3  O   UNL     1      26.498  47.324  50.751  1.00  0.00    -0.264 OA
HETATM    4  H   UNL     1      25.111  44.528  51.478  1.00  0.00     0.192 HD
ENDROOT
BRANCH   1   5
HETATM    5  C   UNL     1      24.495  46.455  49.941  1.00  0.00     0.121 A 
HETATM    6  N   UNL     1      23.960  45.323  49.392  1.00  0.00    -0.272 N 
HETATM    7  N   UNL     1      22.868  45.536  48.645  1.00  0.00    -0.174 NA
HETATM    8  H   UNL     1      24.315  44.375  49.490  1.00  0.00     0.189 HD
HETATM    9  C   UNL     1      22.653  46.859  48.722  1.00  0.00     0.089 A 
HETATM   10  C   UNL     1      23.657  47.472  49.528  1.00  0.00     0.071 A 
BRANCH   9  11
HETATM   11  C   UNL     1      21.530  47.499  48.032  1.00  0.00    -0.006 A 
HETATM   12  C   UNL     1      21.046  48.752  48.438  1.00  0.00     0.014 A 
HETATM   13  C   UNL     1      19.980  49.358  47.765  1.00  0.00     0.001 A 
HETATM   14  C   UNL     1      19.385  48.719  46.679  1.00  0.00     0.000 A 
HETATM   15  C   UNL     1      19.851  47.474  46.267  1.00  0.00     0.001 A 
HETATM   16  C   UNL     1      20.915  46.867  46.941  1.00  0.00     0.014 A 
ENDBRANCH   9  11
ENDBRANCH   1   5
BRANCH   2  17
HETATM   17  N   UNL     1      26.901  45.089  52.330  1.00  0.00    -0.182 NA
HETATM   18  C   UNL     1      26.693  45.331  53.584  1.00  0.00     0.168 C 
BRANCH  18  19
HETATM   19  C   UNL     1      27.772  45.197  54.522  1.00  0.00     0.052 A 
HETATM   20  N   UNL     1      27.835  45.896  55.710  1.00  0.00    -0.358 N 
HETATM   21  H   UNL     1      27.126  46.553  56.015  1.00  0.00     0.166 HD
HETATM   22  C   UNL     1      28.975  45.553  56.378  1.00  0.00     0.016 A 
HETATM   23  C   UNL     1      29.660  44.622  55.626  1.00  0.00    -0.033 A 
HETATM   24  C   UNL     1      29.378  46.077  57.711  1.00  0.00     0.057 C 
HETATM   25  C   UNL     1      30.963  44.042  56.059  1.00  0.00     0.040 C 
HETATM   26  C   UNL     1      28.902  44.400  54.451  1.00  0.00     0.040 A 
HETATM   27  C   UNL     1      31.207  44.294  57.561  1.00  0.00     0.005 C 
HETATM   28  C   UNL     1      30.856  45.736  57.976  1.00  0.00     0.006 C 
ENDBRANCH  18  19
ENDBRANCH   2  17
TORSDOF 4
ENDMDL
MODEL 10
REMARK VINA RESULT:      -8.0      8.351      9.083
REMARK  4 active torsions:
REMARK  status: ('A' for Active; 'I' for Inactive)
REMARK    1  A    between atoms: C_4  and  C_5 
REMARK    2  A    between atoms: C_9  and  C_10 
REMARK       I    between atoms: C_10  and  N_11 
REMARK    3  A    between atoms: N_11  and  N_12 
REMARK    4  A    between atoms: C_13  and  C_14 
ROOT
HETATM    1  C   UNL     1      28.806  39.981  50.805  1.00  0.00     0.289 C 
HETATM    2  N   UNL     1      28.489  41.269  51.206  1.00  0.00    -0.242 N 
HETATM    3  O   UNL     1      29.371  39.156  51.518  1.00  0.00    -0.264 OA
HETATM    4  H   UNL     1      28.040  41.911  50.566  1.00  0.00     0.192 HD
ENDROOT
BRANCH   1   5
HETATM    5  C   UNL     1      28.428  39.662  49.450  1.00  0.00     0.121 A 
HETATM    6  N   UNL     1      28.129  38.379  49.083  1.00  0.00    -0.272 N 
HETATM    7  N   UNL     1      27.822  38.234  47.787  1.00  0.00    -0.174 NA
HETATM    8  H   UNL     1      28.131  37.560  49.685  1.00  0.00     0.189 HD
HETATM    9  C   UNL     1      27.894  39.474  47.278  1.00  0.00     0.089 A 
HETATM   10  C   UNL     1      28.274  40.399  48.293  1.00  0.00     0.071 A 
BRANCH   9  11
HETATM   11  C   UNL     1      27.619  39.744  45.863  1.00  0.00    -0.006 A 
HETATM   12  C   UNL     1      26.760  38.920  45.119  1.00  0.00     0.014 A 
HETATM   13  C   UNL     1      26.497  39.196  43.773  1.00  0.00     0.001 A 
HETATM   14  C   UNL     1      27.089  40.295  43.155  1.00  0.00     0.000 A 
HETATM   15  C   UNL     1      27.947  41.118  43.879  1.00  0.00     0.001 A 
HETATM   16  C   UNL     1      28.212  40.843  45.223  1.00  0.00     0.014 A 
ENDBRANCH   9  11
ENDBRANCH   1   5
BRANCH   2  17
HETATM   17  N   UNL     1      28.819  41.696  52.462  1.00  0.00    -0.182 NA
HETATM   18  C   UNL     1      29.295  42.896  52.543  1.00  0.00     0.168 C 
BRANCH  18  19
HETATM   19  C   UNL     1      29.675  43.425  53.823  1.00  0.00     0.052 A 
HETATM   20  N   UNL     1      29.046  44.501  54.415  1.00  0.00    -0.358 N 
HETATM   21  H   UNL     1      28.269  44.999  53.997  1.00  0.00     0.166 HD
HETATM   22  C   UNL     1      29.632  44.761  55.621  1.00  0.00     0.016 A 
HETATM   23  C   UNL     1      30.646  43.848  55.821  1.00  0.00    -0.033 A 
HETATM   24  C   UNL     1      29.212  45.831  56.565  1.00  0.00     0.057 C 
HETATM   25  C   UNL     1      31.505  43.857  57.039  1.00  0.00     0.040 C 
HETATM   26  C   UNL     1      30.676  43.006  54.683  1.00  0.00     0.040 A 
HETATM   27  C   UNL     1      30.865  44.703  58.159  1.00  0.00     0.005 C 
HETATM   28  C   UNL     1      30.303  46.038  57.632  1.00  0.00     0.006 C 
ENDBRANCH  18  19
ENDBRANCH   2  17
TORSDOF 4
ENDMDL
