MODEL 1
REMARK VINA RESULT:     -10.9      0.000      0.000
REMARK  4 active torsions:
REMARK  status: ('A' for Active; 'I' for Inactive)
REMARK    1  A    between atoms: C_2  and  C_3 
REMARK    2  A    between atoms: C_11  and  N_12 
REMARK       I    between atoms: N_12  and  C_13 
REMARK    3  A    between atoms: C_13  and  C_14 
REMARK    4  A    between atoms: C_16  and  C_17 
ROOT
HETATM    1  C   UNL     1      24.156  47.329  49.953  1.00  0.00     0.032 A 
HETATM    2  C   UNL     1      25.077  47.091  50.986  1.00  0.00     0.029 A 
HETATM    3  C   UNL     1      25.401  45.784  51.395  1.00  0.00    -0.024 A 
HETATM    4  C   UNL     1      24.763  44.720  50.733  1.00  0.00     0.012 A 
HETATM    5  C   UNL     1      23.847  44.948  49.702  1.00  0.00     0.002 A 
HETATM    6  C   UNL     1      23.547  46.251  49.306  1.00  0.00     0.017 A 
ENDROOT
BRANCH   1   7
HETATM    7  C   UNL     1      23.908  48.740  49.544  1.00  0.00     0.252 C 
HETATM    8  N   UNL     1      22.634  49.229  49.755  1.00  0.00    -0.352 N 
HETATM    9  H   UNL     1      22.026  48.719  50.382  1.00  0.00     0.163 HD
HETATM   10  O   UNL     1      24.819  49.405  49.061  1.00  0.00    -0.268 OA
BRANCH   8  11
HETATM   11  C   UNL     1      22.292  50.614  49.447  1.00  0.00     0.084 C 
HETATM   12  C   UNL     1      21.829  50.750  47.998  1.00  0.00     0.026 C 
HETATM   13  C   UNL     1      20.447  50.142  47.747  1.00  0.00     0.016 C 
HETATM   14  C   UNL     1      19.324  50.640  48.707  1.00  0.00    -0.017 C 
HETATM   15  C   UNL     1      18.975  52.109  48.376  1.00  0.00     0.020 C 
HETATM   16  C   UNL     1      19.851  50.540  50.171  1.00  0.00     0.016 C 
HETATM   17  C   UNL     1      21.232  51.157  50.403  1.00  0.00     0.026 C 
BRANCH  14  18
HETATM   18  C   UNL     1      18.019  49.823  48.525  1.00  0.00    -0.050 A 
HETATM   19  C   UNL     1      17.977  48.435  48.760  1.00  0.00     0.008 A 
HETATM   20  C   UNL     1      16.803  47.696  48.573  1.00  0.00     0.001 A 
HETATM   21  C   UNL     1      15.644  48.323  48.132  1.00  0.00     0.000 A 
HETATM   22  C   UNL     1      15.662  49.688  47.869  1.00  0.00     0.001 A 
HETATM   23  C   UNL     1      16.836  50.425  48.055  1.00  0.00     0.008 A 
ENDBRANCH  14  18
ENDBRANCH   8  11
ENDBRANCH   1   7
BRANCH   3  24
HETATM   24  C   UNL     1      26.387  45.542  52.467  1.00  0.00    -0.006 A 
HETATM   25  C   UNL     1      26.479  46.391  53.596  1.00  0.00     0.131 A 
HETATM   26  N   UNL     1      27.343  46.247  54.639  1.00  0.00    -0.240 NA
HETATM   27  C   UNL     1      28.154  45.198  54.516  1.00  0.00     0.158 A 
HETATM   28  C   UNL     1      28.163  44.302  53.454  1.00  0.00     0.085 A 
HETATM   29  N   UNL     1      29.133  44.804  55.414  1.00  0.00    -0.291 N 
HETATM   30  N   UNL     1      29.161  43.353  53.695  1.00  0.00    -0.300 N 
HETATM   31  C   UNL     1      27.279  44.453  52.411  1.00  0.00     0.047 A 
HETATM   32  C   UNL     1      29.496  42.257  52.834  1.00  0.00     0.161 C 
HETATM   33  C   UNL     1      29.773  43.659  54.926  1.00  0.00     0.328 A 
HETATM   34  O   UNL     1      30.681  43.060  55.477  1.00  0.00    -0.247 OA
HETATM   35  H   UNL     1      29.346  45.270  56.277  1.00  0.00     0.172 HD
ENDBRANCH   3  24
TORSDOF 4
ENDMDL
MODEL 2
REMARK VINA RESULT:     -10.7      0.852      1.624
REMARK  4 active torsions:
REMARK  status: ('A' for Active; 'I' for Inactive)
REMARK    1  A    between atoms: C_2  and  C_3 
REMARK    2  A    between atoms: C_11  and  N_12 
REMARK       I    between atoms: N_12  and  C_13 
REMARK    3  A    between atoms: C_13  and  C_14 
REMARK    4  A    between atoms: C_16  and  C_17 
ROOT
HETATM    1  C   UNL     1      23.892  47.194  49.702  1.00  0.00     0.032 A 
HETATM    2  C   UNL     1      24.879  46.774  50.607  1.00  0.00     0.029 A 
HETATM    3  C   UNL     1      25.134  45.410  50.838  1.00  0.00    -0.024 A 
HETATM    4  C   UNL     1      24.358  44.476  50.128  1.00  0.00     0.012 A 
HETATM    5  C   UNL     1      23.374  44.886  49.222  1.00  0.00     0.002 A 
HETATM    6  C   UNL     1      23.144  46.243  49.003  1.00  0.00     0.017 A 
ENDROOT
BRANCH   1   7
HETATM    7  C   UNL     1      23.721  48.657  49.476  1.00  0.00     0.252 C 
HETATM    8  N   UNL     1      22.441  49.157  49.611  1.00  0.00    -0.352 N 
HETATM    9  H   UNL     1      21.754  48.586  50.086  1.00  0.00     0.163 HD
HETATM   10  O   UNL     1      24.695  49.349  49.200  1.00  0.00    -0.268 OA
BRANCH   8  11
HETATM   11  C   UNL     1      22.164  50.582  49.471  1.00  0.00     0.084 C 
HETATM   12  C   UNL     1      21.726  50.913  48.046  1.00  0.00     0.026 C 
HETATM   13  C   UNL     1      20.321  50.404  47.713  1.00  0.00     0.016 C 
HETATM   14  C   UNL     1      19.210  50.832  48.718  1.00  0.00    -0.017 C 
HETATM   15  C   UNL     1      18.930  52.345  48.565  1.00  0.00     0.020 C 
HETATM   16  C   UNL     1      19.713  50.533  50.163  1.00  0.00     0.016 C 
HETATM   17  C   UNL     1      21.117  51.054  50.478  1.00  0.00     0.026 C 
BRANCH  14  18
HETATM   18  C   UNL     1      17.872  50.103  48.430  1.00  0.00    -0.050 A 
HETATM   19  C   UNL     1      17.686  48.745  48.751  1.00  0.00     0.008 A 
HETATM   20  C   UNL     1      16.486  48.083  48.469  1.00  0.00     0.001 A 
HETATM   21  C   UNL     1      15.444  48.759  47.844  1.00  0.00     0.000 A 
HETATM   22  C   UNL     1      15.608  50.094  47.493  1.00  0.00     0.001 A 
HETATM   23  C   UNL     1      16.809  50.754  47.775  1.00  0.00     0.008 A 
ENDBRANCH  14  18
ENDBRANCH   8  11
ENDBRANCH   1   7
BRANCH   3  24
HETATM   24  C   UNL     1      26.189  44.977  51.775  1.00  0.00    -0.006 A 
HETATM   25  C   UNL     1      26.860  43.740  51.616  1.00  0.00     0.131 A 
HETATM   26  N   UNL     1      27.852  43.258  52.416  1.00  0.00    -0.240 NA
HETATM   27  C   UNL     1      28.161  44.068  53.427  1.00  0.00     0.158 A 
HETATM   28  C   UNL     1      27.568  45.297  53.689  1.00  0.00     0.085 A 
HETATM   29  N   UNL     1      29.122  43.843  54.399  1.00  0.00    -0.291 N 
HETATM   30  N   UNL     1      28.163  45.831  54.836  1.00  0.00    -0.300 N 
HETATM   31  C   UNL     1      26.574  45.778  52.867  1.00  0.00     0.047 A 
HETATM   32  C   UNL     1      27.830  47.087  55.442  1.00  0.00     0.161 C 
HETATM   33  C   UNL     1      29.142  44.925  55.287  1.00  0.00     0.328 A 
HETATM   34  O   UNL     1      29.874  45.039  56.255  1.00  0.00    -0.247 OA
HETATM   35  H   UNL     1      29.708  43.030  54.454  1.00  0.00     0.172 HD
ENDBRANCH   3  24
TORSDOF 4
ENDMDL
MODEL 3
REMARK VINA RESULT:     -10.6      2.773     11.033
REMARK  4 active torsions:
REMARK  status: ('A' for Active; 'I' for Inactive)
REMARK    1  A    between atoms: C_2  and  C_3 
REMARK    2  A    between atoms: C_11  and  N_12 
REMARK       I    between atoms: N_12  and  C_13 
REMARK    3  A    between atoms: C_13  and  C_14 
REMARK    4  A    between atoms: C_16  and  C_17 
ROOT
HETATM    1  C   UNL     1      25.947  46.722  49.596  1.00  0.00     0.032 A 
HETATM    2  C   UNL     1      24.719  47.390  49.457  1.00  0.00     0.029 A 
HETATM    3  C   UNL     1      24.659  48.763  49.154  1.00  0.00    -0.024 A 
HETATM    4  C   UNL     1      25.877  49.448  49.000  1.00  0.00     0.012 A 
HETATM    5  C   UNL     1      27.104  48.790  49.135  1.00  0.00     0.002 A 
HETATM    6  C   UNL     1      27.141  47.427  49.426  1.00  0.00     0.017 A 
ENDROOT
BRANCH   1   7
HETATM    7  C   UNL     1      25.924  45.257  49.865  1.00  0.00     0.252 C 
HETATM    8  N   UNL     1      26.901  44.769  50.709  1.00  0.00    -0.352 N 
HETATM    9  H   UNL     1      27.407  45.430  51.284  1.00  0.00     0.163 HD
HETATM   10  O   UNL     1      25.056  44.557  49.354  1.00  0.00    -0.268 OA
BRANCH   8  11
HETATM   11  C   UNL     1      26.942  43.361  51.090  1.00  0.00     0.084 C 
HETATM   12  C   UNL     1      28.380  42.849  51.123  1.00  0.00     0.026 C 
HETATM   13  C   UNL     1      29.188  43.397  52.302  1.00  0.00     0.016 C 
HETATM   14  C   UNL     1      28.527  43.203  53.701  1.00  0.00    -0.017 C 
HETATM   15  C   UNL     1      28.570  41.707  54.090  1.00  0.00     0.020 C 
HETATM   16  C   UNL     1      27.047  43.683  53.614  1.00  0.00     0.016 C 
HETATM   17  C   UNL     1      26.254  43.120  52.432  1.00  0.00     0.026 C 
BRANCH  14  18
HETATM   18  C   UNL     1      29.300  43.970  54.805  1.00  0.00    -0.050 A 
HETATM   19  C   UNL     1      30.442  43.423  55.423  1.00  0.00     0.008 A 
HETATM   20  C   UNL     1      31.125  44.107  56.435  1.00  0.00     0.001 A 
HETATM   21  C   UNL     1      30.675  45.350  56.866  1.00  0.00     0.000 A 
HETATM   22  C   UNL     1      29.537  45.903  56.291  1.00  0.00     0.001 A 
HETATM   23  C   UNL     1      28.855  45.218  55.280  1.00  0.00     0.008 A 
ENDBRANCH  14  18
ENDBRANCH   8  11
ENDBRANCH   1   7
BRANCH   3  24
HETATM   24  C   UNL     1      23.363  49.452  48.987  1.00  0.00    -0.006 A 
HETATM   25  C   UNL     1      23.292  50.817  48.618  1.00  0.00     0.131 A 
HETATM   26  N   UNL     1      22.151  51.537  48.428  1.00  0.00    -0.240 NA
HETATM   27  C   UNL     1      21.039  50.835  48.636  1.00  0.00     0.158 A 
HETATM   28  C   UNL     1      20.984  49.498  49.008  1.00  0.00     0.085 A 
HETATM   29  N   UNL     1      19.739  51.299  48.521  1.00  0.00    -0.291 N 
HETATM   30  N   UNL     1      19.639  49.136  49.132  1.00  0.00    -0.300 N 
HETATM   31  C   UNL     1      22.143  48.779  49.188  1.00  0.00     0.047 A 
HETATM   32  C   UNL     1      19.153  47.840  49.505  1.00  0.00     0.161 C 
HETATM   33  C   UNL     1      18.850  50.262  48.825  1.00  0.00     0.328 A 
HETATM   34  O   UNL     1      17.633  50.340  48.818  1.00  0.00    -0.247 OA
HETATM   35  H   UNL     1      19.480  52.234  48.262  1.00  0.00     0.172 HD
ENDBRANCH   3  24
TORSDOF 4
ENDMDL
MODEL 4
REMARK VINA RESULT:     -10.5      3.427     11.164
REMARK  4 active torsions:
REMARK  status: ('A' for Active; 'I' for Inactive)
REMARK    1  A    between atoms: C_2  and  C_3 
REMARK    2  A    between atoms: C_11  and  N_12 
REMARK       I    between atoms: N_12  and  C_13 
REMARK    3  A    between atoms: C_13  and  C_14 
REMARK    4  A    between atoms: C_16  and  C_17 
ROOT
HETATM    1  C   UNL     1      23.010  48.282  48.872  1.00  0.00     0.032 A 
HETATM    2  C   UNL     1      21.687  48.745  48.961  1.00  0.00     0.029 A 
HETATM    3  C   UNL     1      21.383  50.117  48.896  1.00  0.00    -0.024 A 
HETATM    4  C   UNL     1      22.456  51.014  48.744  1.00  0.00     0.012 A 
HETATM    5  C   UNL     1      23.776  50.560  48.653  1.00  0.00     0.002 A 
HETATM    6  C   UNL     1      24.054  49.196  48.711  1.00  0.00     0.017 A 
ENDROOT
BRANCH   1   7
HETATM    7  C   UNL     1      23.243  46.810  48.896  1.00  0.00     0.252 C 
HETATM    8  N   UNL     1      24.370  46.374  49.564  1.00  0.00    -0.352 N 
HETATM    9  H   UNL     1      24.828  47.018  50.196  1.00  0.00     0.163 HD
HETATM   10  O   UNL     1      22.443  46.057  48.350  1.00  0.00    -0.268 OA
BRANCH   8  11
HETATM   11  C   UNL     1      24.669  44.953  49.702  1.00  0.00     0.084 C 
HETATM   12  C   UNL     1      26.172  44.702  49.608  1.00  0.00     0.026 C 
HETATM   13  C   UNL     1      26.942  45.187  50.838  1.00  0.00     0.016 C 
HETATM   14  C   UNL     1      26.404  44.659  52.202  1.00  0.00    -0.017 C 
HETATM   15  C   UNL     1      26.721  43.151  52.334  1.00  0.00     0.020 C 
HETATM   16  C   UNL     1      24.862  44.879  52.240  1.00  0.00     0.016 C 
HETATM   17  C   UNL     1      24.109  44.383  51.003  1.00  0.00     0.026 C 
BRANCH  14  18
HETATM   18  C   UNL     1      27.099  45.362  53.397  1.00  0.00    -0.050 A 
HETATM   19  C   UNL     1      26.783  46.685  53.762  1.00  0.00     0.008 A 
HETATM   20  C   UNL     1      27.428  47.326  54.826  1.00  0.00     0.001 A 
HETATM   21  C   UNL     1      28.417  46.665  55.545  1.00  0.00     0.000 A 
HETATM   22  C   UNL     1      28.767  45.366  55.192  1.00  0.00     0.001 A 
HETATM   23  C   UNL     1      28.122  44.728  54.127  1.00  0.00     0.008 A 
ENDBRANCH  14  18
ENDBRANCH   8  11
ENDBRANCH   1   7
BRANCH   3  24
HETATM   24  C   UNL     1      19.987  50.594  48.967  1.00  0.00    -0.006 A 
HETATM   25  C   UNL     1      19.253  50.560  50.177  1.00  0.00     0.131 A 
HETATM   26  N   UNL     1      17.969  50.985  50.348  1.00  0.00    -0.240 NA
HETATM   27  C   UNL     1      17.412  51.453  49.233  1.00  0.00     0.158 A 
HETATM   28  C   UNL     1      18.028  51.528  47.990  1.00  0.00     0.085 A 
HETATM   29  N   UNL     1      16.125  51.949  49.100  1.00  0.00    -0.291 N 
HETATM   30  N   UNL     1      17.111  52.067  47.082  1.00  0.00    -0.300 N 
HETATM   31  C   UNL     1      19.327  51.104  47.833  1.00  0.00     0.047 A 
HETATM   32  C   UNL     1      17.356  52.304  45.690  1.00  0.00     0.161 C 
HETATM   33  C   UNL     1      15.914  52.337  47.773  1.00  0.00     0.328 A 
HETATM   34  O   UNL     1      14.886  52.815  47.324  1.00  0.00    -0.247 OA
HETATM   35  H   UNL     1      15.453  52.017  49.843  1.00  0.00     0.172 HD
ENDBRANCH   3  24
TORSDOF 4
ENDMDL
MODEL 5
REMARK VINA RESULT:     -10.3      4.091     10.048
REMARK  4 active torsions:
REMARK  status: ('A' for Active; 'I' for Inactive)
REMARK    1  A    between atoms: C_2  and  C_3 
REMARK    2  A    between atoms: C_11  and  N_12 
REMARK       I    between atoms: N_12  and  C_13 
REMARK    3  A    between atoms: C_13  and  C_14 
REMARK    4  A    between atoms: C_16  and  C_17 
ROOT
HETATM    1  C   UNL     1      26.632  40.713  49.463  1.00  0.00     0.032 A 
HETATM    2  C   UNL     1      25.979  41.955  49.509  1.00  0.00     0.029 A 
HETATM    3  C   UNL     1      24.920  42.264  48.635  1.00  0.00    -0.024 A 
HETATM    4  C   UNL     1      24.539  41.280  47.705  1.00  0.00     0.012 A 
HETATM    5  C   UNL     1      25.183  40.039  47.653  1.00  0.00     0.002 A 
HETATM    6  C   UNL     1      26.224  39.751  48.535  1.00  0.00     0.017 A 
ENDROOT
BRANCH   1   7
HETATM    7  C   UNL     1      27.708  40.446  50.458  1.00  0.00     0.252 C 
HETATM    8  N   UNL     1      27.753  41.281  51.557  1.00  0.00    -0.352 N 
HETATM    9  H   UNL     1      26.940  41.846  51.759  1.00  0.00     0.163 HD
HETATM   10  O   UNL     1      28.485  39.514  50.280  1.00  0.00    -0.268 OA
BRANCH   8  11
HETATM   11  C   UNL     1      28.727  41.079  52.624  1.00  0.00     0.084 C 
HETATM   12  C   UNL     1      29.869  42.087  52.516  1.00  0.00     0.026 C 
HETATM   13  C   UNL     1      29.453  43.511  52.894  1.00  0.00     0.016 C 
HETATM   14  C   UNL     1      28.759  43.648  54.282  1.00  0.00    -0.017 C 
HETATM   15  C   UNL     1      29.798  43.425  55.405  1.00  0.00     0.020 C 
HETATM   16  C   UNL     1      27.638  42.568  54.379  1.00  0.00     0.016 C 
HETATM   17  C   UNL     1      28.074  41.150  54.003  1.00  0.00     0.026 C 
BRANCH  14  18
HETATM   18  C   UNL     1      28.182  45.072  54.490  1.00  0.00    -0.050 A 
HETATM   19  C   UNL     1      28.702  45.945  55.465  1.00  0.00     0.008 A 
HETATM   20  C   UNL     1      28.166  47.222  55.666  1.00  0.00     0.001 A 
HETATM   21  C   UNL     1      27.085  47.655  54.907  1.00  0.00     0.000 A 
HETATM   22  C   UNL     1      26.536  46.805  53.953  1.00  0.00     0.001 A 
HETATM   23  C   UNL     1      27.072  45.529  53.754  1.00  0.00     0.008 A 
ENDBRANCH  14  18
ENDBRANCH   8  11
ENDBRANCH   1   7
BRANCH   3  24
HETATM   24  C   UNL     1      24.225  43.564  48.706  1.00  0.00    -0.006 A 
HETATM   25  C   UNL     1      22.883  43.711  48.277  1.00  0.00     0.131 A 
HETATM   26  N   UNL     1      22.153  44.861  48.312  1.00  0.00    -0.240 NA
HETATM   27  C   UNL     1      22.825  45.904  48.795  1.00  0.00     0.158 A 
HETATM   28  C   UNL     1      24.142  45.883  49.237  1.00  0.00     0.085 A 
HETATM   29  N   UNL     1      22.346  47.195  48.947  1.00  0.00    -0.291 N 
HETATM   30  N   UNL     1      24.480  47.173  49.658  1.00  0.00    -0.300 N 
HETATM   31  C   UNL     1      24.866  44.713  49.206  1.00  0.00     0.047 A 
HETATM   32  C   UNL     1      25.753  47.574  50.181  1.00  0.00     0.161 C 
HETATM   33  C   UNL     1      23.356  48.002  49.482  1.00  0.00     0.328 A 
HETATM   34  O   UNL     1      23.258  49.190  49.738  1.00  0.00    -0.247 OA
HETATM   35  H   UNL     1      21.419  47.498  48.709  1.00  0.00     0.172 HD
ENDBRANCH   3  24
TORSDOF 4
ENDMDL
MODEL 6
REMARK VINA RESULT:      -9.4      2.621      4.052
REMARK  4 active torsions:
REMARK  status: ('A' for Active; 'I' for Inactive)
REMARK    1  A    between atoms: C_2  and  C_3 
REMARK    2  A    between atoms: C_11  and  N_12 
REMARK       I    between atoms: N_12  and  C_13 
REMARK    3  A    between atoms: C_13  and  C_14 
REMARK    4  A    between atoms: C_16  and  C_17 
ROOT
HETATM    1  C   UNL     1      22.930  49.975  49.330  1.00  0.00     0.032 A 
HETATM    2  C   UNL     1      23.442  48.795  49.892  1.00  0.00     0.029 A 
HETATM    3  C   UNL     1      24.687  48.271  49.496  1.00  0.00    -0.024 A 
HETATM    4  C   UNL     1      25.401  48.973  48.509  1.00  0.00     0.012 A 
HETATM    5  C   UNL     1      24.899  50.150  47.945  1.00  0.00     0.002 A 
HETATM    6  C   UNL     1      23.667  50.656  48.358  1.00  0.00     0.017 A 
ENDROOT
BRANCH   1   7
HETATM    7  C   UNL     1      21.629  50.491  49.842  1.00  0.00     0.252 C 
HETATM    8  N   UNL     1      20.500  50.132  49.132  1.00  0.00    -0.352 N 
HETATM    9  H   UNL     1      20.572  49.363  48.479  1.00  0.00     0.163 HD
HETATM   10  O   UNL     1      21.604  51.184  50.853  1.00  0.00    -0.268 OA
BRANCH   8  11
HETATM   11  C   UNL     1      19.168  50.531  49.573  1.00  0.00     0.084 C 
HETATM   12  C   UNL     1      18.912  52.005  49.266  1.00  0.00     0.026 C 
HETATM   13  C   UNL     1      18.720  52.284  47.773  1.00  0.00     0.016 C 
HETATM   14  C   UNL     1      17.641  51.405  47.072  1.00  0.00    -0.017 C 
HETATM   15  C   UNL     1      16.234  51.832  47.551  1.00  0.00     0.020 C 
HETATM   16  C   UNL     1      17.898  49.916  47.452  1.00  0.00     0.016 C 
HETATM   17  C   UNL     1      18.083  49.655  48.949  1.00  0.00     0.026 C 
BRANCH  14  18
HETATM   18  C   UNL     1      17.662  51.601  45.534  1.00  0.00    -0.050 A 
HETATM   19  C   UNL     1      18.336  50.704  44.683  1.00  0.00     0.008 A 
HETATM   20  C   UNL     1      18.373  50.896  43.297  1.00  0.00     0.001 A 
HETATM   21  C   UNL     1      17.748  51.998  42.726  1.00  0.00     0.000 A 
HETATM   22  C   UNL     1      17.095  52.913  43.544  1.00  0.00     0.001 A 
HETATM   23  C   UNL     1      17.060  52.721  44.929  1.00  0.00     0.008 A 
ENDBRANCH  14  18
ENDBRANCH   8  11
ENDBRANCH   1   7
BRANCH   3  24
HETATM   24  C   UNL     1      25.229  47.043  50.110  1.00  0.00    -0.006 A 
HETATM   25  C   UNL     1      25.391  45.851  49.363  1.00  0.00     0.131 A 
HETATM   26  N   UNL     1      25.891  44.673  49.831  1.00  0.00    -0.240 NA
HETATM   27  C   UNL     1      26.227  44.713  51.120  1.00  0.00     0.158 A 
HETATM   28  C   UNL     1      26.105  45.818  51.953  1.00  0.00     0.085 A 
HETATM   29  N   UNL     1      26.755  43.673  51.866  1.00  0.00    -0.291 N 
HETATM   30  N   UNL     1      26.555  45.454  53.226  1.00  0.00    -0.300 N 
HETATM   31  C   UNL     1      25.608  47.005  51.465  1.00  0.00     0.047 A 
HETATM   32  C   UNL     1      26.590  46.309  54.376  1.00  0.00     0.161 C 
HETATM   33  C   UNL     1      26.968  44.108  53.179  1.00  0.00     0.328 A 
HETATM   34  O   UNL     1      27.425  43.436  54.088  1.00  0.00    -0.247 OA
HETATM   35  H   UNL     1      26.952  42.753  51.516  1.00  0.00     0.172 HD
ENDBRANCH   3  24
TORSDOF 4
ENDMDL
MODEL 7
REMARK VINA RESULT:      -9.3     13.721     17.653
REMARK  4 active torsions:
REMARK  status: ('A' for Active; 'I' for Inactive)
REMARK    1  A    between atoms: C_2  and  C_3 
REMARK    2  A    between atoms: C_11  and  N_12 
REMARK       I    between atoms: N_12  and  C_13 
REMARK    3  A    between atoms: C_13  and  C_14 
REMARK    4  A    between atoms: C_16  and  C_17 
ROOT
HETATM    1  C   UNL     1      34.033  51.476  42.897  1.00  0.00     0.032 A 
HETATM    2  C   UNL     1      32.934  51.398  42.028  1.00  0.00     0.029 A 
HETATM    3  C   UNL     1      31.625  51.667  42.470  1.00  0.00    -0.024 A 
HETATM    4  C   UNL     1      31.456  52.015  43.822  1.00  0.00     0.012 A 
HETATM    5  C   UNL     1      32.546  52.096  44.695  1.00  0.00     0.002 A 
HETATM    6  C   UNL     1      33.835  51.834  44.233  1.00  0.00     0.017 A 
ENDROOT
BRANCH   1   7
HETATM    7  C   UNL     1      35.391  51.227  42.338  1.00  0.00     0.252 C 
HETATM    8  N   UNL     1      36.371  52.144  42.663  1.00  0.00    -0.352 N 
HETATM    9  H   UNL     1      36.197  52.773  43.436  1.00  0.00     0.163 HD
HETATM   10  O   UNL     1      35.592  50.238  41.641  1.00  0.00    -0.268 OA
BRANCH   8  11
HETATM   11  C   UNL     1      37.750  51.972  42.220  1.00  0.00     0.084 C 
HETATM   12  C   UNL     1      38.510  53.295  42.283  1.00  0.00     0.026 C 
HETATM   13  C   UNL     1      38.816  53.747  43.713  1.00  0.00     0.016 C 
HETATM   14  C   UNL     1      39.533  52.686  44.600  1.00  0.00    -0.017 C 
HETATM   15  C   UNL     1      40.990  52.507  44.118  1.00  0.00     0.020 C 
HETATM   16  C   UNL     1      38.764  51.336  44.468  1.00  0.00     0.016 C 
HETATM   17  C   UNL     1      38.472  50.898  43.031  1.00  0.00     0.026 C 
BRANCH  14  18
HETATM   18  C   UNL     1      39.610  53.143  46.080  1.00  0.00    -0.050 A 
HETATM   19  C   UNL     1      38.457  53.256  46.880  1.00  0.00     0.008 A 
HETATM   20  C   UNL     1      38.526  53.691  48.209  1.00  0.00     0.001 A 
HETATM   21  C   UNL     1      39.750  54.037  48.768  1.00  0.00     0.000 A 
HETATM   22  C   UNL     1      40.903  53.958  47.995  1.00  0.00     0.001 A 
HETATM   23  C   UNL     1      40.831  53.525  46.667  1.00  0.00     0.008 A 
ENDBRANCH  14  18
ENDBRANCH   8  11
ENDBRANCH   1   7
BRANCH   3  24
HETATM   24  C   UNL     1      30.478  51.606  41.543  1.00  0.00    -0.006 A 
HETATM   25  C   UNL     1      29.529  52.654  41.468  1.00  0.00     0.131 A 
HETATM   26  N   UNL     1      28.447  52.698  40.641  1.00  0.00    -0.240 NA
HETATM   27  C   UNL     1      28.324  51.619  39.869  1.00  0.00     0.158 A 
HETATM   28  C   UNL     1      29.184  50.528  39.861  1.00  0.00     0.085 A 
HETATM   29  N   UNL     1      27.326  51.382  38.938  1.00  0.00    -0.291 N 
HETATM   30  N   UNL     1      28.708  49.607  38.923  1.00  0.00    -0.300 N 
HETATM   31  C   UNL     1      30.279  50.501  40.694  1.00  0.00     0.047 A 
HETATM   32  C   UNL     1      29.310  48.343  38.613  1.00  0.00     0.161 C 
HETATM   33  C   UNL     1      27.543  50.138  38.336  1.00  0.00     0.328 A 
HETATM   34  O   UNL     1      26.846  49.632  37.473  1.00  0.00    -0.247 OA
HETATM   35  H   UNL     1      26.569  52.008  38.731  1.00  0.00     0.172 HD
ENDBRANCH   3  24
TORSDOF 4
ENDMDL
MODEL 8
REMARK VINA RESULT:      -9.3      5.581      9.963
REMARK  4 active torsions:
REMARK  status: ('A' for Active; 'I' for Inactive)
REMARK    1  A    between atoms: C_2  and  C_3 
REMARK    2  A    between atoms: C_11  and  N_12 
REMARK       I    between atoms: N_12  and  C_13 
REMARK    3  A    between atoms: C_13  and  C_14 
REMARK    4  A    between atoms: C_16  and  C_17 
ROOT
HETATM    1  C   UNL     1      25.570  43.990  49.975  1.00  0.00     0.032 A 
HETATM    2  C   UNL     1      26.625  43.668  50.845  1.00  0.00     0.029 A 
HETATM    3  C   UNL     1      26.900  44.444  51.986  1.00  0.00    -0.024 A 
HETATM    4  C   UNL     1      26.079  45.561  52.224  1.00  0.00     0.012 A 
HETATM    5  C   UNL     1      25.025  45.887  51.365  1.00  0.00     0.002 A 
HETATM    6  C   UNL     1      24.765  45.100  50.244  1.00  0.00     0.017 A 
ENDROOT
BRANCH   1   7
HETATM    7  C   UNL     1      25.313  43.087  48.818  1.00  0.00     0.252 C 
HETATM    8  N   UNL     1      26.372  42.309  48.394  1.00  0.00    -0.352 N 
HETATM    9  H   UNL     1      27.162  42.201  49.016  1.00  0.00     0.163 HD
HETATM   10  O   UNL     1      24.199  43.055  48.306  1.00  0.00    -0.268 OA
BRANCH   8  11
HETATM   11  C   UNL     1      26.221  41.347  47.308  1.00  0.00     0.084 C 
HETATM   12  C   UNL     1      27.583  40.930  46.758  1.00  0.00     0.026 C 
HETATM   13  C   UNL     1      28.369  40.029  47.714  1.00  0.00     0.016 C 
HETATM   14  C   UNL     1      27.598  38.773  48.218  1.00  0.00    -0.017 C 
HETATM   15  C   UNL     1      27.438  37.764  47.058  1.00  0.00     0.020 C 
HETATM   16  C   UNL     1      26.193  39.227  48.720  1.00  0.00     0.016 C 
HETATM   17  C   UNL     1      25.421  40.123  47.748  1.00  0.00     0.026 C 
BRANCH  14  18
HETATM   18  C   UNL     1      28.381  38.038  49.338  1.00  0.00    -0.050 A 
HETATM   19  C   UNL     1      27.945  36.804  49.857  1.00  0.00     0.008 A 
HETATM   20  C   UNL     1      28.641  36.154  50.883  1.00  0.00     0.001 A 
HETATM   21  C   UNL     1      29.783  36.730  51.427  1.00  0.00     0.000 A 
HETATM   22  C   UNL     1      30.223  37.959  50.951  1.00  0.00     0.001 A 
HETATM   23  C   UNL     1      29.526  38.608  49.926  1.00  0.00     0.008 A 
ENDBRANCH  14  18
ENDBRANCH   8  11
ENDBRANCH   1   7
BRANCH   3  24
HETATM   24  C   UNL     1      27.996  44.086  52.908  1.00  0.00    -0.006 A 
HETATM   25  C   UNL     1      28.868  43.004  52.637  1.00  0.00     0.131 A 
HETATM   26  N   UNL     1      29.913  42.602  53.414  1.00  0.00    -0.240 NA
HETATM   27  C   UNL     1      30.063  43.330  54.520  1.00  0.00     0.158 A 
HETATM   28  C   UNL     1      29.267  44.405  54.895  1.00  0.00     0.085 A 
HETATM   29  N   UNL     1      31.030  43.155  55.495  1.00  0.00    -0.291 N 
HETATM   30  N   UNL     1      29.743  44.893  56.116  1.00  0.00    -0.300 N 
HETATM   31  C   UNL     1      28.222  44.807  54.096  1.00  0.00     0.047 A 
HETATM   32  C   UNL     1      29.193  45.998  56.845  1.00  0.00     0.161 C 
HETATM   33  C   UNL     1      30.853  44.115  56.498  1.00  0.00     0.328 A 
HETATM   34  O   UNL     1      31.539  44.235  57.499  1.00  0.00    -0.247 OA
HETATM   35  H   UNL     1      31.744  42.450  55.481  1.00  0.00     0.172 HD
ENDBRANCH   3  24
TORSDOF 4
ENDMDL
MODEL 9
REMARK VINA RESULT:      -9.3      1.799      2.215
REMARK  4 active torsions:
REMARK  status: ('A' for Active; 'I' for Inactive)
REMARK    1  A    between atoms: C_2  and  C_3 
REMARK    2  A    between atoms: C_11  and  N_12 
REMARK       I    between atoms: N_12  and  C_13 
REMARK    3  A    between atoms: C_13  and  C_14 
REMARK    4  A    between atoms: C_16  and  C_17 
ROOT
HETATM    1  C   UNL     1      23.129  46.776  49.189  1.00  0.00     0.032 A 
HETATM    2  C   UNL     1      24.059  46.162  50.043  1.00  0.00     0.029 A 
HETATM    3  C   UNL     1      24.161  44.761  50.133  1.00  0.00    -0.024 A 
HETATM    4  C   UNL     1      23.292  43.995  49.337  1.00  0.00     0.012 A 
HETATM    5  C   UNL     1      22.365  44.599  48.482  1.00  0.00     0.002 A 
HETATM    6  C   UNL     1      22.286  45.988  48.402  1.00  0.00     0.017 A 
ENDROOT
BRANCH   1   7
HETATM    7  C   UNL     1      23.120  48.264  49.114  1.00  0.00     0.252 C 
HETATM    8  N   UNL     1      21.965  48.897  49.528  1.00  0.00    -0.352 N 
HETATM    9  H   UNL     1      21.303  48.367  50.079  1.00  0.00     0.163 HD
HETATM   10  O   UNL     1      24.114  48.860  48.712  1.00  0.00    -0.268 OA
BRANCH   8  11
HETATM   11  C   UNL     1      21.863  50.352  49.553  1.00  0.00     0.084 C 
HETATM   12  C   UNL     1      21.694  50.909  48.141  1.00  0.00     0.026 C 
HETATM   13  C   UNL     1      20.315  50.623  47.541  1.00  0.00     0.016 C 
HETATM   14  C   UNL     1      19.108  51.058  48.427  1.00  0.00    -0.017 C 
HETATM   15  C   UNL     1      19.015  52.601  48.451  1.00  0.00     0.020 C 
HETATM   16  C   UNL     1      19.341  50.521  49.871  1.00  0.00     0.016 C 
HETATM   17  C   UNL     1      20.724  50.821  50.456  1.00  0.00     0.026 C 
BRANCH  14  18
HETATM   18  C   UNL     1      17.765  50.543  47.848  1.00  0.00    -0.050 A 
HETATM   19  C   UNL     1      16.562  50.642  48.572  1.00  0.00     0.008 A 
HETATM   20  C   UNL     1      15.355  50.155  48.057  1.00  0.00     0.001 A 
HETATM   21  C   UNL     1      15.322  49.543  46.810  1.00  0.00     0.000 A 
HETATM   22  C   UNL     1      16.499  49.409  46.083  1.00  0.00     0.001 A 
HETATM   23  C   UNL     1      17.705  49.895  46.599  1.00  0.00     0.008 A 
ENDBRANCH  14  18
ENDBRANCH   8  11
ENDBRANCH   1   7
BRANCH   3  24
HETATM   24  C   UNL     1      25.157  44.123  51.017  1.00  0.00    -0.006 A 
HETATM   25  C   UNL     1      25.468  44.657  52.291  1.00  0.00     0.131 A 
HETATM   26  N   UNL     1      26.359  44.139  53.182  1.00  0.00    -0.240 NA
HETATM   27  C   UNL     1      26.966  43.036  52.746  1.00  0.00     0.158 A 
HETATM   28  C   UNL     1      26.751  42.427  51.515  1.00  0.00     0.085 A 
HETATM   29  N   UNL     1      27.917  42.295  53.427  1.00  0.00    -0.291 N 
HETATM   30  N   UNL     1      27.582  41.305  51.435  1.00  0.00    -0.300 N 
HETATM   31  C   UNL     1      25.841  42.955  50.629  1.00  0.00     0.047 A 
HETATM   32  C   UNL     1      27.665  40.406  50.322  1.00  0.00     0.161 C 
HETATM   33  C   UNL     1      28.316  41.214  52.634  1.00  0.00     0.328 A 
HETATM   34  O   UNL     1      29.139  40.369  52.941  1.00  0.00    -0.247 OA
HETATM   35  H   UNL     1      28.263  42.505  54.346  1.00  0.00     0.172 HD
ENDBRANCH   3  24
TORSDOF 4
ENDMDL
MODEL 10
REMARK VINA RESULT:      -9.3      2.265      3.442
REMARK  4 active torsions:
REMARK  status: ('A' for Active; 'I' for Inactive)
REMARK    1  A    between atoms: C_2  and  C_3 
REMARK    2  A    between atoms: C_11  and  N_12 
REMARK       I    between atoms: N_12  and  C_13 
REMARK    3  A    between atoms: C_13  and  C_14 
REMARK    4  A    between atoms: C_16  and  C_17 
ROOT
HETATM    1  C   UNL     1      24.069  49.799  48.854  1.00  0.00     0.032 A 
HETATM    2  C   UNL     1      24.191  48.596  49.567  1.00  0.00     0.029 A 
HETATM    3  C   UNL     1      25.428  47.936  49.690  1.00  0.00    -0.024 A 
HETATM    4  C   UNL     1      26.542  48.524  49.065  1.00  0.00     0.012 A 
HETATM    5  C   UNL     1      26.430  49.723  48.355  1.00  0.00     0.002 A 
HETATM    6  C   UNL     1      25.196  50.365  48.253  1.00  0.00     0.017 A 
ENDROOT
BRANCH   1   7
HETATM    7  C   UNL     1      22.735  50.462  48.816  1.00  0.00     0.252 C 
HETATM    8  N   UNL     1      21.714  49.833  49.500  1.00  0.00    -0.352 N 
HETATM    9  H   UNL     1      21.960  49.123  50.177  1.00  0.00     0.163 HD
HETATM   10  O   UNL     1      22.596  51.519  48.209  1.00  0.00    -0.268 OA
BRANCH   8  11
HETATM   11  C   UNL     1      20.381  50.420  49.581  1.00  0.00     0.084 C 
HETATM   12  C   UNL     1      19.805  50.656  48.187  1.00  0.00     0.026 C 
HETATM   13  C   UNL     1      19.410  49.362  47.471  1.00  0.00     0.016 C 
HETATM   14  C   UNL     1      18.463  48.425  48.279  1.00  0.00    -0.017 C 
HETATM   15  C   UNL     1      17.056  49.059  48.364  1.00  0.00     0.020 C 
HETATM   16  C   UNL     1      19.051  48.251  49.712  1.00  0.00     0.016 C 
HETATM   17  C   UNL     1      19.435  49.556  50.414  1.00  0.00     0.026 C 
BRANCH  14  18
HETATM   18  C   UNL     1      18.288  47.053  47.577  1.00  0.00    -0.050 A 
HETATM   19  C   UNL     1      19.044  45.927  47.955  1.00  0.00     0.008 A 
HETATM   20  C   UNL     1      18.900  44.696  47.305  1.00  0.00     0.001 A 
HETATM   21  C   UNL     1      18.007  44.563  46.248  1.00  0.00     0.000 A 
HETATM   22  C   UNL     1      17.265  45.664  45.837  1.00  0.00     0.001 A 
HETATM   23  C   UNL     1      17.411  46.894  46.487  1.00  0.00     0.008 A 
ENDBRANCH  14  18
ENDBRANCH   8  11
ENDBRANCH   1   7
BRANCH   3  24
HETATM   24  C   UNL     1      25.552  46.683  50.461  1.00  0.00    -0.006 A 
HETATM   25  C   UNL     1      25.028  45.460  49.978  1.00  0.00     0.131 A 
HETATM   26  N   UNL     1      25.100  44.253  50.606  1.00  0.00    -0.240 NA
HETATM   27  C   UNL     1      25.724  44.302  51.781  1.00  0.00     0.158 A 
HETATM   28  C   UNL     1      26.270  45.441  52.360  1.00  0.00     0.085 A 
HETATM   29  N   UNL     1      25.946  43.239  52.641  1.00  0.00    -0.291 N 
HETATM   30  N   UNL     1      26.826  45.078  53.591  1.00  0.00    -0.300 N 
HETATM   31  C   UNL     1      26.199  46.652  51.711  1.00  0.00     0.047 A 
HETATM   32  C   UNL     1      27.485  45.966  54.504  1.00  0.00     0.161 C 
HETATM   33  C   UNL     1      26.629  43.696  53.774  1.00  0.00     0.328 A 
HETATM   34  O   UNL     1      26.977  43.012  54.721  1.00  0.00    -0.247 OA
HETATM   35  H   UNL     1      25.659  42.291  52.474  1.00  0.00     0.172 HD
ENDBRANCH   3  24
TORSDOF 4
ENDMDL
