MODEL 1
REMARK VINA RESULT:      -9.3      0.000      0.000
REMARK  3 active torsions:
REMARK  status: ('A' for Active; 'I' for Inactive)
REMARK    1  A    between atoms: O_2  and  C_3 
REMARK    2  A    between atoms: C_5  and  N_15 
REMARK    3  A    between atoms: C_8  and  C_9 
ROOT
HETATM    1  C   UNL     1      23.183  44.105  49.933  1.00  0.00     0.177 A 
HETATM    2  N   UNL     1      23.939  43.811  51.016  1.00  0.00    -0.206 NA
HETATM    3  C   UNL     1      24.761  44.739  51.532  1.00  0.00     0.135 A 
HETATM    4  C   UNL     1      24.850  46.000  50.953  1.00  0.00     0.052 A 
HETATM    5  C   UNL     1      24.060  46.305  49.840  1.00  0.00     0.020 A 
HETATM    6  C   UNL     1      23.192  45.350  49.303  1.00  0.00     0.030 A 
ENDROOT
BRANCH   3   7
HETATM    7  N   UNL     1      25.531  44.394  52.664  1.00  0.00    -0.302 N 
HETATM    8  C   UNL     1      25.011  44.333  54.005  1.00  0.00     0.135 C 
HETATM    9  C   UNL     1      26.085  43.589  54.779  1.00  0.00     0.040 C 
HETATM   10  C   UNL     1      27.382  43.990  54.068  1.00  0.00     0.051 C 
HETATM   11  C   UNL     1      27.926  45.361  54.552  1.00  0.00     0.058 C 
HETATM   12  C   UNL     1      28.509  42.949  54.221  1.00  0.00     0.058 C 
HETATM   13  C   UNL     1      26.910  44.135  52.627  1.00  0.00     0.234 C 
HETATM   14  C   UNL     1      29.161  44.981  55.303  1.00  0.00    -0.051 A 
HETATM   15  C   UNL     1      29.972  45.811  56.062  1.00  0.00     0.007 A 
HETATM   16  C   UNL     1      29.486  43.638  55.119  1.00  0.00    -0.051 A 
HETATM   17  C   UNL     1      31.122  45.272  56.643  1.00  0.00     0.001 A 
HETATM   18  C   UNL     1      31.448  43.921  56.457  1.00  0.00     0.001 A 
HETATM   19  C   UNL     1      30.628  43.094  55.687  1.00  0.00     0.007 A 
HETATM   20  O   UNL     1      27.662  44.087  51.667  1.00  0.00    -0.272 OA
ENDBRANCH   3   7
BRANCH   1  21
HETATM   21  O   UNL     1      22.346  43.119  49.447  1.00  0.00    -0.339 OA
HETATM   22  C   UNL     1      23.047  42.010  48.887  1.00  0.00     0.211 C 
ENDBRANCH   1  21
BRANCH   6  23
HETATM   23  C   UNL     1      22.370  45.661  48.143  1.00  0.00     0.015 A 
HETATM   24  C   UNL     1      21.215  46.468  48.006  1.00  0.00     0.152 A 
HETATM   25  N   UNL     1      20.748  46.499  46.754  1.00  0.00    -0.187 NA
HETATM   26  N   UNL     1      21.614  45.731  46.077  1.00  0.00    -0.289 N 
HETATM   27  H   UNL     1      21.473  45.615  45.079  1.00  0.00     0.188 HD
HETATM   28  C   UNL     1      22.597  45.199  46.861  1.00  0.00     0.123 A 
ENDBRANCH   6  23
TORSDOF 3
ENDMDL
MODEL 2
REMARK VINA RESULT:      -9.2      1.361      1.975
REMARK  3 active torsions:
REMARK  status: ('A' for Active; 'I' for Inactive)
REMARK    1  A    between atoms: O_2  and  C_3 
REMARK    2  A    between atoms: C_5  and  N_15 
REMARK    3  A    between atoms: C_8  and  C_9 
ROOT
HETATM    1  C   UNL     1      24.332  46.607  50.310  1.00  0.00     0.177 A 
HETATM    2  N   UNL     1      25.050  46.168  51.370  1.00  0.00    -0.206 NA
HETATM    3  C   UNL     1      24.965  44.884  51.753  1.00  0.00     0.135 A 
HETATM    4  C   UNL     1      24.132  44.001  51.073  1.00  0.00     0.052 A 
HETATM    5  C   UNL     1      23.398  44.454  49.972  1.00  0.00     0.020 A 
HETATM    6  C   UNL     1      23.490  45.786  49.559  1.00  0.00     0.030 A 
ENDROOT
BRANCH   3   7
HETATM    7  N   UNL     1      25.732  44.465  52.861  1.00  0.00    -0.302 N 
HETATM    8  C   UNL     1      25.206  44.305  54.191  1.00  0.00     0.135 C 
HETATM    9  C   UNL     1      26.282  43.515  54.917  1.00  0.00     0.040 C 
HETATM   10  C   UNL     1      27.580  43.976  54.242  1.00  0.00     0.051 C 
HETATM   11  C   UNL     1      28.111  45.312  54.826  1.00  0.00     0.058 C 
HETATM   12  C   UNL     1      28.714  42.935  54.327  1.00  0.00     0.058 C 
HETATM   13  C   UNL     1      27.113  44.220  52.813  1.00  0.00     0.234 C 
HETATM   14  C   UNL     1      29.345  44.889  55.555  1.00  0.00    -0.051 A 
HETATM   15  C   UNL     1      30.145  45.669  56.375  1.00  0.00     0.007 A 
HETATM   16  C   UNL     1      29.681  43.565  55.277  1.00  0.00    -0.051 A 
HETATM   17  C   UNL     1      31.297  45.098  56.922  1.00  0.00     0.001 A 
HETATM   18  C   UNL     1      31.635  43.767  56.642  1.00  0.00     0.001 A 
HETATM   19  C   UNL     1      30.825  42.991  55.811  1.00  0.00     0.007 A 
HETATM   20  O   UNL     1      27.871  44.247  51.856  1.00  0.00    -0.272 OA
ENDBRANCH   3   7
BRANCH   1  21
HETATM   21  O   UNL     1      24.462  47.934  49.951  1.00  0.00    -0.339 OA
HETATM   22  C   UNL     1      25.777  48.275  49.513  1.00  0.00     0.211 C 
ENDBRANCH   1  21
BRANCH   6  23
HETATM   23  C   UNL     1      22.726  46.264  48.415  1.00  0.00     0.015 A 
HETATM   24  C   UNL     1      22.222  47.549  48.099  1.00  0.00     0.152 A 
HETATM   25  N   UNL     1      21.563  47.577  46.938  1.00  0.00    -0.187 NA
HETATM   26  N   UNL     1      21.660  46.316  46.491  1.00  0.00    -0.289 N 
HETATM   27  H   UNL     1      21.240  46.091  45.595  1.00  0.00     0.188 HD
HETATM   28  C   UNL     1      22.337  45.489  47.339  1.00  0.00     0.123 A 
ENDBRANCH   6  23
TORSDOF 3
ENDMDL
MODEL 3
REMARK VINA RESULT:      -9.1      3.685      9.853
REMARK  3 active torsions:
REMARK  status: ('A' for Active; 'I' for Inactive)
REMARK    1  A    between atoms: O_2  and  C_3 
REMARK    2  A    between atoms: C_5  and  N_15 
REMARK    3  A    between atoms: C_8  and  C_9 
ROOT
HETATM    1  C   UNL     1      25.804  46.807  51.704  1.00  0.00     0.177 A 
HETATM    2  N   UNL     1      25.125  47.739  50.996  1.00  0.00    -0.206 NA
HETATM    3  C   UNL     1      24.370  47.368  49.950  1.00  0.00     0.135 A 
HETATM    4  C   UNL     1      24.290  46.030  49.579  1.00  0.00     0.052 A 
HETATM    5  C   UNL     1      24.985  45.066  50.319  1.00  0.00     0.020 A 
HETATM    6  C   UNL     1      25.764  45.442  51.417  1.00  0.00     0.030 A 
ENDROOT
BRANCH   3   7
HETATM    7  N   UNL     1      23.675  48.370  49.238  1.00  0.00    -0.302 N 
HETATM    8  C   UNL     1      24.254  49.627  48.843  1.00  0.00     0.135 C 
HETATM    9  C   UNL     1      23.269  50.179  47.827  1.00  0.00     0.040 C 
HETATM   10  C   UNL     1      21.917  49.637  48.308  1.00  0.00     0.051 C 
HETATM   11  C   UNL     1      21.299  50.503  49.438  1.00  0.00     0.058 C 
HETATM   12  C   UNL     1      20.875  49.511  47.179  1.00  0.00     0.058 C 
HETATM   13  C   UNL     1      22.317  48.289  48.892  1.00  0.00     0.234 C 
HETATM   14  C   UNL     1      20.126  51.140  48.764  1.00  0.00    -0.051 A 
HETATM   15  C   UNL     1      19.292  52.120  49.279  1.00  0.00     0.007 A 
HETATM   16  C   UNL     1      19.890  50.587  47.506  1.00  0.00    -0.051 A 
HETATM   17  C   UNL     1      18.208  52.546  48.507  1.00  0.00     0.001 A 
HETATM   18  C   UNL     1      17.971  51.989  47.242  1.00  0.00     0.001 A 
HETATM   19  C   UNL     1      18.815  51.000  46.735  1.00  0.00     0.007 A 
HETATM   20  O   UNL     1      21.530  47.370  49.057  1.00  0.00    -0.272 OA
ENDBRANCH   3   7
BRANCH   1  21
HETATM   21  O   UNL     1      26.559  47.239  52.777  1.00  0.00    -0.339 OA
HETATM   22  C   UNL     1      25.778  47.541  53.932  1.00  0.00     0.211 C 
ENDBRANCH   1  21
BRANCH   6  23
HETATM   23  C   UNL     1      26.491  44.444  52.188  1.00  0.00     0.015 A 
HETATM   24  C   UNL     1      27.774  43.875  52.004  1.00  0.00     0.152 A 
HETATM   25  N   UNL     1      28.085  42.978  52.944  1.00  0.00    -0.187 NA
HETATM   26  N   UNL     1      27.013  42.984  53.749  1.00  0.00    -0.289 N 
HETATM   27  H   UNL     1      27.022  42.381  54.565  1.00  0.00     0.188 HD
HETATM   28  C   UNL     1      26.028  43.836  53.338  1.00  0.00     0.123 A 
ENDBRANCH   6  23
TORSDOF 3
ENDMDL
MODEL 4
REMARK VINA RESULT:      -8.8      2.824      9.201
REMARK  3 active torsions:
REMARK  status: ('A' for Active; 'I' for Inactive)
REMARK    1  A    between atoms: O_2  and  C_3 
REMARK    2  A    between atoms: C_5  and  N_15 
REMARK    3  A    between atoms: C_8  and  C_9 
ROOT
HETATM    1  C   UNL     1      28.464  45.584  55.025  1.00  0.00     0.177 A 
HETATM    2  N   UNL     1      27.701  45.496  53.911  1.00  0.00    -0.206 NA
HETATM    3  C   UNL     1      27.831  44.443  53.090  1.00  0.00     0.135 A 
HETATM    4  C   UNL     1      28.755  43.442  53.370  1.00  0.00     0.052 A 
HETATM    5  C   UNL     1      29.537  43.529  54.527  1.00  0.00     0.020 A 
HETATM    6  C   UNL     1      29.400  44.617  55.394  1.00  0.00     0.030 A 
ENDROOT
BRANCH   3   7
HETATM    7  N   UNL     1      27.014  44.387  51.940  1.00  0.00    -0.302 N 
HETATM    8  C   UNL     1      27.518  44.375  50.592  1.00  0.00     0.135 C 
HETATM    9  C   UNL     1      26.322  43.951  49.758  1.00  0.00     0.040 C 
HETATM   10  C   UNL     1      25.127  44.521  50.531  1.00  0.00     0.051 C 
HETATM   11  C   UNL     1      24.871  46.017  50.211  1.00  0.00     0.058 C 
HETATM   12  C   UNL     1      23.816  43.749  50.282  1.00  0.00     0.058 C 
HETATM   13  C   UNL     1      25.610  44.407  51.971  1.00  0.00     0.234 C 
HETATM   14  C   UNL     1      23.589  45.978  49.443  1.00  0.00    -0.051 A 
HETATM   15  C   UNL     1      22.965  47.033  48.796  1.00  0.00     0.007 A 
HETATM   16  C   UNL     1      23.001  44.715  49.483  1.00  0.00    -0.051 A 
HETATM   17  C   UNL     1      21.733  46.802  48.178  1.00  0.00     0.001 A 
HETATM   18  C   UNL     1      21.143  45.531  48.218  1.00  0.00     0.001 A 
HETATM   19  C   UNL     1      21.777  44.477  48.877  1.00  0.00     0.007 A 
HETATM   20  O   UNL     1      24.858  44.402  52.933  1.00  0.00    -0.272 OA
ENDBRANCH   3   7
BRANCH   1  21
HETATM   21  O   UNL     1      28.286  46.683  55.842  1.00  0.00    -0.339 OA
HETATM   22  C   UNL     1      27.287  47.584  55.366  1.00  0.00     0.211 C 
ENDBRANCH   1  21
BRANCH   6  23
HETATM   23  C   UNL     1      30.213  44.714  56.598  1.00  0.00     0.015 A 
HETATM   24  C   UNL     1      31.320  43.951  57.041  1.00  0.00     0.152 A 
HETATM   25  N   UNL     1      31.796  44.362  58.220  1.00  0.00    -0.187 NA
HETATM   26  N   UNL     1      31.012  45.406  58.528  1.00  0.00    -0.289 N 
HETATM   27  H   UNL     1      31.196  45.906  59.391  1.00  0.00     0.188 HD
HETATM   28  C   UNL     1      30.044  45.653  57.597  1.00  0.00     0.123 A 
ENDBRANCH   6  23
TORSDOF 3
ENDMDL
MODEL 5
REMARK VINA RESULT:      -8.6      3.240      9.011
REMARK  3 active torsions:
REMARK  status: ('A' for Active; 'I' for Inactive)
REMARK    1  A    between atoms: O_2  and  C_3 
REMARK    2  A    between atoms: C_5  and  N_15 
REMARK    3  A    between atoms: C_8  and  C_9 
ROOT
HETATM    1  C   UNL     1      25.402  44.659  51.909  1.00  0.00     0.177 A 
HETATM    2  N   UNL     1      24.836  45.735  51.314  1.00  0.00    -0.206 NA
HETATM    3  C   UNL     1      25.354  46.221  50.176  1.00  0.00     0.135 A 
HETATM    4  C   UNL     1      26.477  45.633  49.606  1.00  0.00     0.052 A 
HETATM    5  C   UNL     1      27.055  44.514  50.216  1.00  0.00     0.020 A 
HETATM    6  C   UNL     1      26.516  43.994  51.396  1.00  0.00     0.030 A 
ENDROOT
BRANCH   3   7
HETATM    7  N   UNL     1      24.733  47.343  49.585  1.00  0.00    -0.302 N 
HETATM    8  C   UNL     1      25.367  48.625  49.426  1.00  0.00     0.135 C 
HETATM    9  C   UNL     1      24.467  49.359  48.447  1.00  0.00     0.040 C 
HETATM   10  C   UNL     1      23.073  48.798  48.752  1.00  0.00     0.051 C 
HETATM   11  C   UNL     1      22.401  49.502  49.960  1.00  0.00     0.058 C 
HETATM   12  C   UNL     1      22.108  48.880  47.553  1.00  0.00     0.058 C 
HETATM   13  C   UNL     1      23.400  47.363  49.144  1.00  0.00     0.234 C 
HETATM   14  C   UNL     1      21.292  50.274  49.319  1.00  0.00    -0.051 A 
HETATM   15  C   UNL     1      20.449  51.192  49.925  1.00  0.00     0.007 A 
HETATM   16  C   UNL     1      21.129  49.927  47.979  1.00  0.00    -0.051 A 
HETATM   17  C   UNL     1      19.430  51.768  49.161  1.00  0.00     0.001 A 
HETATM   18  C   UNL     1      19.267  51.419  47.813  1.00  0.00     0.001 A 
HETATM   19  C   UNL     1      20.119  50.490  47.214  1.00  0.00     0.007 A 
HETATM   20  O   UNL     1      22.582  46.457  49.116  1.00  0.00    -0.272 OA
ENDBRANCH   3   7
BRANCH   1  21
HETATM   21  O   UNL     1      24.825  44.192  53.074  1.00  0.00    -0.339 OA
HETATM   22  C   UNL     1      25.166  44.967  54.223  1.00  0.00     0.211 C 
ENDBRANCH   1  21
BRANCH   6  23
HETATM   23  C   UNL     1      27.114  42.832  52.037  1.00  0.00     0.015 A 
HETATM   24  C   UNL     1      28.010  42.726  53.129  1.00  0.00     0.152 A 
HETATM   25  N   UNL     1      28.329  41.461  53.418  1.00  0.00    -0.187 NA
HETATM   26  N   UNL     1      27.622  40.748  52.529  1.00  0.00    -0.289 N 
HETATM   27  H   UNL     1      27.688  39.736  52.564  1.00  0.00     0.188 HD
HETATM   28  C   UNL     1      26.886  41.519  51.675  1.00  0.00     0.123 A 
ENDBRANCH   6  23
TORSDOF 3
ENDMDL
MODEL 6
REMARK VINA RESULT:      -8.5      3.567      5.631
REMARK  3 active torsions:
REMARK  status: ('A' for Active; 'I' for Inactive)
REMARK    1  A    between atoms: O_2  and  C_3 
REMARK    2  A    between atoms: C_5  and  N_15 
REMARK    3  A    between atoms: C_8  and  C_9 
ROOT
HETATM    1  C   UNL     1      20.227  48.760  48.863  1.00  0.00     0.177 A 
HETATM    2  N   UNL     1      21.102  47.770  49.154  1.00  0.00    -0.206 NA
HETATM    3  C   UNL     1      22.386  47.878  48.778  1.00  0.00     0.135 A 
HETATM    4  C   UNL     1      22.824  48.999  48.081  1.00  0.00     0.052 A 
HETATM    5  C   UNL     1      21.920  50.026  47.790  1.00  0.00     0.020 A 
HETATM    6  C   UNL     1      20.583  49.928  48.187  1.00  0.00     0.030 A 
ENDROOT
BRANCH   3   7
HETATM    7  N   UNL     1      23.268  46.824  49.103  1.00  0.00    -0.302 N 
HETATM    8  C   UNL     1      23.026  45.442  48.784  1.00  0.00     0.135 C 
HETATM    9  C   UNL     1      24.374  44.776  48.998  1.00  0.00     0.040 C 
HETATM   10  C   UNL     1      25.005  45.600  50.127  1.00  0.00     0.051 C 
HETATM   11  C   UNL     1      24.517  45.156  51.531  1.00  0.00     0.058 C 
HETATM   12  C   UNL     1      26.546  45.559  50.122  1.00  0.00     0.058 C 
HETATM   13  C   UNL     1      24.454  46.990  49.837  1.00  0.00     0.234 C 
HETATM   14  C   UNL     1      25.736  44.524  52.122  1.00  0.00    -0.051 A 
HETATM   15  C   UNL     1      25.829  43.836  53.322  1.00  0.00     0.007 A 
HETATM   16  C   UNL     1      26.866  44.749  51.337  1.00  0.00    -0.051 A 
HETATM   17  C   UNL     1      27.081  43.368  53.728  1.00  0.00     0.001 A 
HETATM   18  C   UNL     1      28.217  43.595  52.938  1.00  0.00     0.001 A 
HETATM   19  C   UNL     1      28.114  44.293  51.734  1.00  0.00     0.007 A 
HETATM   20  O   UNL     1      24.968  48.016  50.253  1.00  0.00    -0.272 OA
ENDBRANCH   3   7
BRANCH   1  21
HETATM   21  O   UNL     1      18.919  48.605  49.279  1.00  0.00    -0.339 OA
HETATM   22  C   UNL     1      18.752  48.759  50.687  1.00  0.00     0.211 C 
ENDBRANCH   1  21
BRANCH   6  23
HETATM   23  C   UNL     1      19.638  50.992  47.884  1.00  0.00     0.015 A 
HETATM   24  C   UNL     1      18.658  51.110  46.869  1.00  0.00     0.152 A 
HETATM   25  N   UNL     1      17.982  52.261  46.931  1.00  0.00    -0.187 NA
HETATM   26  N   UNL     1      18.510  52.878  47.998  1.00  0.00    -0.289 N 
HETATM   27  H   UNL     1      18.137  53.785  48.261  1.00  0.00     0.188 HD
HETATM   28  C   UNL     1      19.509  52.168  48.598  1.00  0.00     0.123 A 
ENDBRANCH   6  23
TORSDOF 3
ENDMDL
MODEL 7
REMARK VINA RESULT:      -8.3      3.874      9.649
REMARK  3 active torsions:
REMARK  status: ('A' for Active; 'I' for Inactive)
REMARK    1  A    between atoms: O_2  and  C_3 
REMARK    2  A    between atoms: C_5  and  N_15 
REMARK    3  A    between atoms: C_8  and  C_9 
ROOT
HETATM    1  C   UNL     1      24.362  45.153  49.388  1.00  0.00     0.177 A 
HETATM    2  N   UNL     1      23.686  46.247  48.968  1.00  0.00    -0.206 NA
HETATM    3  C   UNL     1      23.935  47.443  49.522  1.00  0.00     0.135 A 
HETATM    4  C   UNL     1      24.878  47.566  50.538  1.00  0.00     0.052 A 
HETATM    5  C   UNL     1      25.583  46.435  50.965  1.00  0.00     0.020 A 
HETATM    6  C   UNL     1      25.338  45.187  50.385  1.00  0.00     0.030 A 
ENDROOT
BRANCH   3   7
HETATM    7  N   UNL     1      23.211  48.561  49.054  1.00  0.00    -0.302 N 
HETATM    8  C   UNL     1      23.759  49.887  48.942  1.00  0.00     0.135 C 
HETATM    9  C   UNL     1      22.751  50.627  48.078  1.00  0.00     0.040 C 
HETATM   10  C   UNL     1      21.417  49.961  48.436  1.00  0.00     0.051 C 
HETATM   11  C   UNL     1      20.792  50.542  49.731  1.00  0.00     0.058 C 
HETATM   12  C   UNL     1      20.366  50.062  47.312  1.00  0.00     0.058 C 
HETATM   13  C   UNL     1      21.852  48.527  48.705  1.00  0.00     0.234 C 
HETATM   14  C   UNL     1      19.599  51.284  49.221  1.00  0.00    -0.051 A 
HETATM   15  C   UNL     1      18.749  52.107  49.943  1.00  0.00     0.007 A 
HETATM   16  C   UNL     1      19.362  51.017  47.874  1.00  0.00    -0.051 A 
HETATM   17  C   UNL     1      17.648  52.667  49.290  1.00  0.00     0.001 A 
HETATM   18  C   UNL     1      17.410  52.397  47.935  1.00  0.00     0.001 A 
HETATM   19  C   UNL     1      18.270  51.564  47.218  1.00  0.00     0.007 A 
HETATM   20  O   UNL     1      21.087  47.576  48.668  1.00  0.00    -0.272 OA
ENDBRANCH   3   7
BRANCH   1  21
HETATM   21  O   UNL     1      24.075  43.946  48.779  1.00  0.00    -0.339 OA
HETATM   22  C   UNL     1      22.871  43.346  49.253  1.00  0.00     0.211 C 
ENDBRANCH   1  21
BRANCH   6  23
HETATM   23  C   UNL     1      26.067  44.007  50.827  1.00  0.00     0.015 A 
HETATM   24  C   UNL     1      27.140  43.296  50.237  1.00  0.00     0.152 A 
HETATM   25  N   UNL     1      27.535  42.250  50.969  1.00  0.00    -0.187 NA
HETATM   26  N   UNL     1      26.732  42.298  52.042  1.00  0.00    -0.289 N 
HETATM   27  H   UNL     1      26.857  41.597  52.766  1.00  0.00     0.188 HD
HETATM   28  C   UNL     1      25.832  43.322  52.004  1.00  0.00     0.123 A 
ENDBRANCH   6  23
TORSDOF 3
ENDMDL
MODEL 8
REMARK VINA RESULT:      -8.3      4.387     10.460
REMARK  3 active torsions:
REMARK  status: ('A' for Active; 'I' for Inactive)
REMARK    1  A    between atoms: O_2  and  C_3 
REMARK    2  A    between atoms: C_5  and  N_15 
REMARK    3  A    between atoms: C_8  and  C_9 
ROOT
HETATM    1  C   UNL     1      24.890  47.607  50.017  1.00  0.00     0.177 A 
HETATM    2  N   UNL     1      23.922  48.432  49.554  1.00  0.00    -0.206 NA
HETATM    3  C   UNL     1      22.798  47.919  49.032  1.00  0.00     0.135 A 
HETATM    4  C   UNL     1      22.623  46.542  48.952  1.00  0.00     0.052 A 
HETATM    5  C   UNL     1      23.620  45.691  49.441  1.00  0.00     0.020 A 
HETATM    6  C   UNL     1      24.789  46.216  49.997  1.00  0.00     0.030 A 
ENDROOT
BRANCH   3   7
HETATM    7  N   UNL     1      21.811  48.813  48.562  1.00  0.00    -0.302 N 
HETATM    8  C   UNL     1      22.095  49.995  47.790  1.00  0.00     0.135 C 
HETATM    9  C   UNL     1      20.741  50.402  47.234  1.00  0.00     0.040 C 
HETATM   10  C   UNL     1      19.758  49.948  48.319  1.00  0.00     0.051 C 
HETATM   11  C   UNL     1      19.635  50.973  49.476  1.00  0.00     0.058 C 
HETATM   12  C   UNL     1      18.342  49.667  47.777  1.00  0.00     0.058 C 
HETATM   13  C   UNL     1      20.442  48.695  48.848  1.00  0.00     0.234 C 
HETATM   14  C   UNL     1      18.253  51.515  49.294  1.00  0.00    -0.051 A 
HETATM   15  C   UNL     1      17.666  52.567  49.981  1.00  0.00     0.007 A 
HETATM   16  C   UNL     1      17.533  50.788  48.348  1.00  0.00    -0.051 A 
HETATM   17  C   UNL     1      16.335  52.885  49.702  1.00  0.00     0.001 A 
HETATM   18  C   UNL     1      15.611  52.153  48.751  1.00  0.00     0.001 A 
HETATM   19  C   UNL     1      16.210  51.093  48.068  1.00  0.00     0.007 A 
HETATM   20  O   UNL     1      19.853  47.816  49.459  1.00  0.00    -0.272 OA
ENDBRANCH   3   7
BRANCH   1  21
HETATM   21  O   UNL     1      26.025  48.185  50.553  1.00  0.00    -0.339 OA
HETATM   22  C   UNL     1      26.976  48.584  49.567  1.00  0.00     0.211 C 
ENDBRANCH   1  21
BRANCH   6  23
HETATM   23  C   UNL     1      25.831  45.335  50.505  1.00  0.00     0.015 A 
HETATM   24  C   UNL     1      26.066  44.816  51.800  1.00  0.00     0.152 A 
HETATM   25  N   UNL     1      27.145  44.030  51.858  1.00  0.00    -0.187 NA
HETATM   26  N   UNL     1      27.595  44.022  50.594  1.00  0.00    -0.289 N 
HETATM   27  H   UNL     1      28.417  43.466  50.381  1.00  0.00     0.188 HD
HETATM   28  C   UNL     1      26.852  44.793  49.747  1.00  0.00     0.123 A 
ENDBRANCH   6  23
TORSDOF 3
ENDMDL
MODEL 9
REMARK VINA RESULT:      -8.3      3.608      9.225
REMARK  3 active torsions:
REMARK  status: ('A' for Active; 'I' for Inactive)
REMARK    1  A    between atoms: O_2  and  C_3 
REMARK    2  A    between atoms: C_5  and  N_15 
REMARK    3  A    between atoms: C_8  and  C_9 
ROOT
HETATM    1  C   UNL     1      28.649  45.088  54.908  1.00  0.00     0.177 A 
HETATM    2  N   UNL     1      27.993  44.925  53.736  1.00  0.00    -0.206 NA
HETATM    3  C   UNL     1      28.404  43.993  52.862  1.00  0.00     0.135 A 
HETATM    4  C   UNL     1      29.509  43.199  53.148  1.00  0.00     0.052 A 
HETATM    5  C   UNL     1      30.180  43.362  54.365  1.00  0.00     0.020 A 
HETATM    6  C   UNL     1      29.752  44.322  55.286  1.00  0.00     0.030 A 
ENDROOT
BRANCH   3   7
HETATM    7  N   UNL     1      27.691  43.852  51.652  1.00  0.00    -0.302 N 
HETATM    8  C   UNL     1      27.125  44.952  50.916  1.00  0.00     0.135 C 
HETATM    9  C   UNL     1      26.798  44.354  49.558  1.00  0.00     0.040 C 
HETATM   10  C   UNL     1      26.460  42.894  49.883  1.00  0.00     0.051 C 
HETATM   11  C   UNL     1      24.994  42.715  50.359  1.00  0.00     0.058 C 
HETATM   12  C   UNL     1      26.697  41.936  48.698  1.00  0.00     0.058 C 
HETATM   13  C   UNL     1      27.390  42.616  51.056  1.00  0.00     0.234 C 
HETATM   14  C   UNL     1      24.362  41.982  49.219  1.00  0.00    -0.051 A 
HETATM   15  C   UNL     1      23.019  41.678  49.058  1.00  0.00     0.007 A 
HETATM   16  C   UNL     1      25.311  41.548  48.295  1.00  0.00    -0.051 A 
HETATM   17  C   UNL     1      22.634  40.929  47.943  1.00  0.00     0.001 A 
HETATM   18  C   UNL     1      23.589  40.493  47.013  1.00  0.00     0.001 A 
HETATM   19  C   UNL     1      24.939  40.800  47.188  1.00  0.00     0.007 A 
HETATM   20  O   UNL     1      27.721  41.492  51.398  1.00  0.00    -0.272 OA
ENDBRANCH   3   7
BRANCH   1  21
HETATM   21  O   UNL     1      28.180  46.054  55.777  1.00  0.00    -0.339 OA
HETATM   22  C   UNL     1      27.725  47.235  55.118  1.00  0.00     0.211 C 
ENDBRANCH   1  21
BRANCH   6  23
HETATM   23  C   UNL     1      30.448  44.499  56.552  1.00  0.00     0.015 A 
HETATM   24  C   UNL     1      31.462  43.732  57.175  1.00  0.00     0.152 A 
HETATM   25  N   UNL     1      31.844  44.234  58.353  1.00  0.00    -0.187 NA
HETATM   26  N   UNL     1      31.094  45.338  58.481  1.00  0.00    -0.289 N 
HETATM   27  H   UNL     1      31.221  45.912  59.309  1.00  0.00     0.188 HD
HETATM   28  C   UNL     1      30.237  45.538  57.438  1.00  0.00     0.123 A 
ENDBRANCH   6  23
TORSDOF 3
ENDMDL
MODEL 10
REMARK VINA RESULT:      -8.3     17.773     19.693
REMARK  3 active torsions:
REMARK  status: ('A' for Active; 'I' for Inactive)
REMARK    1  A    between atoms: O_2  and  C_3 
REMARK    2  A    between atoms: C_5  and  N_15 
REMARK    3  A    between atoms: C_8  and  C_9 
ROOT
HETATM    1  C   UNL     1      39.428  43.412  64.054  1.00  0.00     0.177 A 
HETATM    2  N   UNL     1      38.874  44.574  64.469  1.00  0.00    -0.206 NA
HETATM    3  C   UNL     1      37.737  44.558  65.183  1.00  0.00     0.135 A 
HETATM    4  C   UNL     1      37.117  43.352  65.491  1.00  0.00     0.052 A 
HETATM    5  C   UNL     1      37.697  42.150  65.069  1.00  0.00     0.020 A 
HETATM    6  C   UNL     1      38.887  42.157  64.336  1.00  0.00     0.030 A 
ENDROOT
BRANCH   3   7
HETATM    7  N   UNL     1      37.192  45.792  65.599  1.00  0.00    -0.302 N 
HETATM    8  C   UNL     1      36.010  46.383  65.031  1.00  0.00     0.135 C 
HETATM    9  C   UNL     1      35.634  47.472  66.022  1.00  0.00     0.040 C 
HETATM   10  C   UNL     1      36.987  47.924  66.586  1.00  0.00     0.051 C 
HETATM   11  C   UNL     1      37.701  48.950  65.667  1.00  0.00     0.058 C 
HETATM   12  C   UNL     1      36.883  48.537  67.997  1.00  0.00     0.058 C 
HETATM   13  C   UNL     1      37.776  46.622  66.569  1.00  0.00     0.234 C 
HETATM   14  C   UNL     1      37.625  50.215  66.460  1.00  0.00    -0.051 A 
HETATM   15  C   UNL     1      37.996  51.486  66.051  1.00  0.00     0.007 A 
HETATM   16  C   UNL     1      37.170  49.985  67.758  1.00  0.00    -0.051 A 
HETATM   17  C   UNL     1      37.900  52.537  66.968  1.00  0.00     0.001 A 
HETATM   18  C   UNL     1      37.443  52.304  68.273  1.00  0.00     0.001 A 
HETATM   19  C   UNL     1      37.076  51.020  68.676  1.00  0.00     0.007 A 
HETATM   20  O   UNL     1      38.767  46.429  67.256  1.00  0.00    -0.272 OA
ENDBRANCH   3   7
BRANCH   1  21
HETATM   21  O   UNL     1      40.603  43.482  63.330  1.00  0.00    -0.339 OA
HETATM   22  C   UNL     1      41.496  44.492  63.799  1.00  0.00     0.211 C 
ENDBRANCH   1  21
BRANCH   6  23
HETATM   23  C   UNL     1      39.493  40.910  63.893  1.00  0.00     0.015 A 
HETATM   24  C   UNL     1      40.377  40.018  64.545  1.00  0.00     0.152 A 
HETATM   25  N   UNL     1      40.709  38.968  63.788  1.00  0.00    -0.187 NA
HETATM   26  N   UNL     1      40.022  39.169  62.654  1.00  0.00    -0.289 N 
HETATM   27  H   UNL     1      40.101  38.478  61.916  1.00  0.00     0.188 HD
HETATM   28  C   UNL     1      39.286  40.319  62.661  1.00  0.00     0.123 A 
ENDBRANCH   6  23
TORSDOF 3
ENDMDL
