MODEL 1
REMARK VINA RESULT:      -9.0      0.000      0.000
REMARK  7 active torsions:
REMARK  status: ('A' for Active; 'I' for Inactive)
REMARK    1  A    between atoms: C_3  and  N_4 
REMARK       I    between atoms: N_4  and  C_5 
REMARK    2  A    between atoms: C_5  and  C_6 
REMARK    3  A    between atoms: C_7  and  C_8 
REMARK    4  A    between atoms: C_20  and  C_21 
REMARK    5  A    between atoms: C_21  and  C_22 
REMARK    6  A    between atoms: C_22  and  C_23 
REMARK    7  A    between atoms: C_23  and  O_24 
ROOT
HETATM    1  C   UNL     1      24.949  43.681  51.362  1.00  0.00     0.062 C 
HETATM    2  C   UNL     1      24.010  44.671  50.662  1.00  0.00     0.202 C 
HETATM    3  N   UNL     1      23.350  44.044  49.510  1.00  0.00    -0.083 N 
HETATM    4  C   UNL     1      23.740  42.853  48.965  1.00  0.00     0.726 A 
HETATM    5  N   UNL     1      24.706  42.138  49.568  1.00  0.00    -0.192 N 
HETATM    6  N   UNL     1      22.366  44.617  48.786  1.00  0.00    -0.140 NA
HETATM    7  C   UNL     1      22.262  43.746  47.773  1.00  0.00     0.166 A 
HETATM    8  N   UNL     1      23.069  42.635  47.865  1.00  0.00    -0.046 NA
HETATM    9  C   UNL     1      25.300  42.510  50.768  1.00  0.00     0.037 C 
HETATM   10  C   UNL     1      26.351  41.557  51.284  1.00  0.00     0.070 C 
HETATM   11  H   UNL     1      24.996  41.261  49.142  1.00  0.00     0.184 HD
ENDROOT
BRANCH   1  12
HETATM   12  C   UNL     1      25.440  44.132  52.701  1.00  0.00     0.256 C 
HETATM   13  N   UNL     1      26.791  44.387  52.743  1.00  0.00    -0.323 N 
HETATM   14  H   UNL     1      27.341  43.976  51.999  1.00  0.00     0.169 HD
HETATM   15  O   UNL     1      24.684  44.110  53.662  1.00  0.00    -0.267 OA
BRANCH  13  16
HETATM   16  C   UNL     1      27.538  45.026  53.760  1.00  0.00     0.041 A 
HETATM   17  C   UNL     1      27.369  46.346  54.221  1.00  0.00    -0.035 A 
HETATM   18  C   UNL     1      26.380  47.336  53.671  1.00  0.00     0.050 C 
HETATM   19  C   UNL     1      28.209  46.815  55.254  1.00  0.00     0.009 A 
HETATM   20  C   UNL     1      29.230  46.028  55.782  1.00  0.00     0.001 A 
HETATM   21  C   UNL     1      29.432  44.750  55.287  1.00  0.00     0.002 A 
HETATM   22  C   UNL     1      28.595  44.257  54.284  1.00  0.00     0.030 A 
ENDBRANCH  13  16
ENDBRANCH   1  12
BRANCH   2  23
HETATM   23  C   UNL     1      24.712  45.946  50.186  1.00  0.00    -0.026 A 
HETATM   24  C   UNL     1      23.994  47.123  49.907  1.00  0.00     0.035 A 
HETATM   25  C   UNL     1      24.651  48.280  49.474  1.00  0.00     0.056 A 
HETATM   26 CL   UNL     1      23.685  49.675  49.144  1.00  0.00    -0.083 Cl
HETATM   27  C   UNL     1      26.041  48.278  49.321  1.00  0.00     0.055 A 
HETATM   28 CL   UNL     1      26.919  49.667  48.789  1.00  0.00    -0.083 Cl
HETATM   29  C   UNL     1      26.766  47.118  49.603  1.00  0.00     0.026 A 
HETATM   30  C   UNL     1      26.108  45.961  50.033  1.00  0.00     0.011 A 
ENDBRANCH   2  23
BRANCH   7  31
HETATM   31  C   UNL     1      21.418  43.999  46.578  1.00  0.00     0.085 C 
BRANCH  31  32
HETATM   32  C   UNL     1      20.470  45.185  46.766  1.00  0.00     0.034 C 
BRANCH  32  33
HETATM   33  C   UNL     1      19.078  44.772  47.234  1.00  0.00     0.164 C 
BRANCH  33  34
HETATM   34  O   UNL     1      19.048  44.717  48.656  1.00  0.00    -0.401 OA
HETATM   35  H   UNL     1      19.965  44.759  48.975  1.00  0.00     0.209 HD
ENDBRANCH  33  34
ENDBRANCH  32  33
ENDBRANCH  31  32
ENDBRANCH   7  31
TORSDOF 7
ENDMDL
MODEL 2
REMARK VINA RESULT:      -8.7      3.383      7.819
REMARK  7 active torsions:
REMARK  status: ('A' for Active; 'I' for Inactive)
REMARK    1  A    between atoms: C_3  and  N_4 
REMARK       I    between atoms: N_4  and  C_5 
REMARK    2  A    between atoms: C_5  and  C_6 
REMARK    3  A    between atoms: C_7  and  C_8 
REMARK    4  A    between atoms: C_20  and  C_21 
REMARK    5  A    between atoms: C_21  and  C_22 
REMARK    6  A    between atoms: C_22  and  C_23 
REMARK    7  A    between atoms: C_23  and  O_24 
ROOT
HETATM    1  C   UNL     1      24.399  46.563  50.081  1.00  0.00     0.062 C 
HETATM    2  C   UNL     1      24.116  45.287  50.883  1.00  0.00     0.202 C 
HETATM    3  N   UNL     1      25.070  45.139  51.988  1.00  0.00    -0.083 N 
HETATM    4  C   UNL     1      26.220  45.868  52.105  1.00  0.00     0.726 A 
HETATM    5  N   UNL     1      26.459  46.863  51.232  1.00  0.00    -0.192 N 
HETATM    6  N   UNL     1      24.987  44.194  52.949  1.00  0.00    -0.140 NA
HETATM    7  C   UNL     1      26.164  44.367  53.569  1.00  0.00     0.166 A 
HETATM    8  N   UNL     1      26.933  45.405  53.097  1.00  0.00    -0.046 NA
HETATM    9  C   UNL     1      25.562  47.247  50.242  1.00  0.00     0.037 C 
HETATM   10  C   UNL     1      26.016  48.400  49.380  1.00  0.00     0.070 C 
HETATM   11  H   UNL     1      27.325  47.388  51.322  1.00  0.00     0.184 HD
ENDROOT
BRANCH   1  12
HETATM   12  C   UNL     1      23.316  46.947  49.124  1.00  0.00     0.256 C 
HETATM   13  N   UNL     1      22.520  47.979  49.565  1.00  0.00    -0.323 N 
HETATM   14  H   UNL     1      22.545  48.161  50.560  1.00  0.00     0.169 HD
HETATM   15  O   UNL     1      23.120  46.266  48.126  1.00  0.00    -0.267 OA
BRANCH  13  16
HETATM   16  C   UNL     1      21.563  48.728  48.841  1.00  0.00     0.041 A 
HETATM   17  C   UNL     1      21.765  49.982  48.234  1.00  0.00    -0.035 A 
HETATM   18  C   UNL     1      23.040  50.777  48.290  1.00  0.00     0.050 C 
HETATM   19  C   UNL     1      20.689  50.583  47.545  1.00  0.00     0.009 A 
HETATM   20  C   UNL     1      19.428  49.994  47.503  1.00  0.00     0.001 A 
HETATM   21  C   UNL     1      19.215  48.787  48.151  1.00  0.00     0.002 A 
HETATM   22  C   UNL     1      20.273  48.164  48.815  1.00  0.00     0.030 A 
ENDBRANCH  13  16
ENDBRANCH   1  12
BRANCH   2  23
HETATM   23  C   UNL     1      24.153  44.012  50.034  1.00  0.00    -0.026 A 
HETATM   24  C   UNL     1      25.364  43.483  49.551  1.00  0.00     0.035 A 
HETATM   25  C   UNL     1      25.381  42.316  48.778  1.00  0.00     0.056 A 
HETATM   26 CL   UNL     1      26.914  41.747  48.218  1.00  0.00    -0.083 Cl
HETATM   27  C   UNL     1      24.184  41.658  48.482  1.00  0.00     0.055 A 
HETATM   28 CL   UNL     1      24.126  40.217  47.532  1.00  0.00    -0.083 Cl
HETATM   29  C   UNL     1      22.976  42.169  48.963  1.00  0.00     0.026 A 
HETATM   30  C   UNL     1      22.960  43.336  49.733  1.00  0.00     0.011 A 
ENDBRANCH   2  23
BRANCH   7  31
HETATM   31  C   UNL     1      26.660  43.444  54.622  1.00  0.00     0.085 C 
BRANCH  31  32
HETATM   32  C   UNL     1      28.064  42.914  54.328  1.00  0.00     0.034 C 
BRANCH  32  33
HETATM   33  C   UNL     1      28.095  41.897  53.192  1.00  0.00     0.164 C 
BRANCH  33  34
HETATM   34  O   UNL     1      27.324  40.756  53.551  1.00  0.00    -0.401 OA
HETATM   35  H   UNL     1      26.425  40.883  53.205  1.00  0.00     0.209 HD
ENDBRANCH  33  34
ENDBRANCH  32  33
ENDBRANCH  31  32
ENDBRANCH   7  31
TORSDOF 7
ENDMDL
MODEL 3
REMARK VINA RESULT:      -8.6      3.664      7.019
REMARK  7 active torsions:
REMARK  status: ('A' for Active; 'I' for Inactive)
REMARK    1  A    between atoms: C_3  and  N_4 
REMARK       I    between atoms: N_4  and  C_5 
REMARK    2  A    between atoms: C_5  and  C_6 
REMARK    3  A    between atoms: C_7  and  C_8 
REMARK    4  A    between atoms: C_20  and  C_21 
REMARK    5  A    between atoms: C_21  and  C_22 
REMARK    6  A    between atoms: C_22  and  C_23 
REMARK    7  A    between atoms: C_23  and  O_24 
ROOT
HETATM    1  C   UNL     1      26.080  44.195  50.953  1.00  0.00     0.062 C 
HETATM    2  C   UNL     1      27.421  43.454  50.879  1.00  0.00     0.202 C 
HETATM    3  N   UNL     1      27.222  42.038  50.549  1.00  0.00    -0.083 N 
HETATM    4  C   UNL     1      26.010  41.409  50.596  1.00  0.00     0.726 A 
HETATM    5  N   UNL     1      24.903  42.130  50.846  1.00  0.00    -0.192 N 
HETATM    6  N   UNL     1      28.217  41.168  50.276  1.00  0.00    -0.140 NA
HETATM    7  C   UNL     1      27.536  40.014  50.242  1.00  0.00     0.166 A 
HETATM    8  N   UNL     1      26.175  40.127  50.405  1.00  0.00    -0.046 NA
HETATM    9  C   UNL     1      24.906  43.512  50.997  1.00  0.00     0.037 C 
HETATM   10  C   UNL     1      23.553  44.131  51.253  1.00  0.00     0.070 C 
HETATM   11  H   UNL     1      24.010  41.646  50.893  1.00  0.00     0.184 HD
ENDROOT
BRANCH   1  12
HETATM   12  C   UNL     1      26.196  45.685  50.998  1.00  0.00     0.256 C 
HETATM   13  N   UNL     1      26.463  46.262  49.778  1.00  0.00    -0.323 N 
HETATM   14  H   UNL     1      26.838  45.642  49.070  1.00  0.00     0.169 HD
HETATM   15  O   UNL     1      26.192  46.261  52.077  1.00  0.00    -0.267 OA
BRANCH  13  16
HETATM   16  C   UNL     1      26.419  47.629  49.418  1.00  0.00     0.041 A 
HETATM   17  C   UNL     1      25.263  48.396  49.178  1.00  0.00    -0.035 A 
HETATM   18  C   UNL     1      23.853  47.875  49.217  1.00  0.00     0.050 C 
HETATM   19  C   UNL     1      25.412  49.756  48.831  1.00  0.00     0.009 A 
HETATM   20  C   UNL     1      26.668  50.335  48.666  1.00  0.00     0.001 A 
HETATM   21  C   UNL     1      27.805  49.564  48.847  1.00  0.00     0.002 A 
HETATM   22  C   UNL     1      27.679  48.224  49.216  1.00  0.00     0.030 A 
ENDBRANCH  13  16
ENDBRANCH   1  12
BRANCH   2  23
HETATM   23  C   UNL     1      28.239  43.543  52.172  1.00  0.00    -0.026 A 
HETATM   24  C   UNL     1      27.814  44.326  53.261  1.00  0.00     0.035 A 
HETATM   25  C   UNL     1      28.573  44.394  54.435  1.00  0.00     0.056 A 
HETATM   26 CL   UNL     1      27.979  45.391  55.716  1.00  0.00    -0.083 Cl
HETATM   27  C   UNL     1      29.766  43.672  54.539  1.00  0.00     0.055 A 
HETATM   28 CL   UNL     1      30.755  43.711  55.954  1.00  0.00    -0.083 Cl
HETATM   29  C   UNL     1      30.193  42.885  53.467  1.00  0.00     0.026 A 
HETATM   30  C   UNL     1      29.436  42.819  52.293  1.00  0.00     0.011 A 
ENDBRANCH   2  23
BRANCH   7  31
HETATM   31  C   UNL     1      28.203  38.691  50.143  1.00  0.00     0.085 C 
BRANCH  31  32
HETATM   32  C   UNL     1      29.455  38.594  51.015  1.00  0.00     0.034 C 
BRANCH  32  33
HETATM   33  C   UNL     1      30.523  37.674  50.431  1.00  0.00     0.164 C 
BRANCH  33  34
HETATM   34  O   UNL     1      31.324  38.398  49.504  1.00  0.00    -0.401 OA
HETATM   35  H   UNL     1      32.232  38.418  49.848  1.00  0.00     0.209 HD
ENDBRANCH  33  34
ENDBRANCH  32  33
ENDBRANCH  31  32
ENDBRANCH   7  31
TORSDOF 7
ENDMDL
MODEL 4
REMARK VINA RESULT:      -8.5      4.013      7.962
REMARK  7 active torsions:
REMARK  status: ('A' for Active; 'I' for Inactive)
REMARK    1  A    between atoms: C_3  and  N_4 
REMARK       I    between atoms: N_4  and  C_5 
REMARK    2  A    between atoms: C_5  and  C_6 
REMARK    3  A    between atoms: C_7  and  C_8 
REMARK    4  A    between atoms: C_20  and  C_21 
REMARK    5  A    between atoms: C_21  and  C_22 
REMARK    6  A    between atoms: C_22  and  C_23 
REMARK    7  A    between atoms: C_23  and  O_24 
ROOT
HETATM    1  C   UNL     1      23.564  48.328  49.050  1.00  0.00     0.062 C 
HETATM    2  C   UNL     1      23.368  46.987  49.767  1.00  0.00     0.202 C 
HETATM    3  N   UNL     1      24.603  46.564  50.437  1.00  0.00    -0.083 N 
HETATM    4  C   UNL     1      25.826  47.129  50.208  1.00  0.00     0.726 A 
HETATM    5  N   UNL     1      25.912  48.210  49.413  1.00  0.00    -0.192 N 
HETATM    6  N   UNL     1      24.700  45.502  51.265  1.00  0.00    -0.140 NA
HETATM    7  C   UNL     1      26.028  45.441  51.436  1.00  0.00     0.166 A 
HETATM    8  N   UNL     1      26.749  46.442  50.827  1.00  0.00    -0.046 NA
HETATM    9  C   UNL     1      24.807  48.840  48.852  1.00  0.00     0.037 C 
HETATM   10  C   UNL     1      25.122  50.050  48.005  1.00  0.00     0.070 C 
HETATM   11  H   UNL     1      26.830  48.611  49.239  1.00  0.00     0.184 HD
ENDROOT
BRANCH   1  12
HETATM   12  C   UNL     1      22.298  48.975  48.587  1.00  0.00     0.256 C 
HETATM   13  N   UNL     1      21.511  49.457  49.607  1.00  0.00    -0.323 N 
HETATM   14  H   UNL     1      21.700  49.079  50.527  1.00  0.00     0.169 HD
HETATM   15  O   UNL     1      21.983  48.913  47.406  1.00  0.00    -0.267 OA
BRANCH  13  16
HETATM   16  C   UNL     1      20.380  50.302  49.526  1.00  0.00     0.041 A 
HETATM   17  C   UNL     1      19.132  50.094  50.145  1.00  0.00    -0.035 A 
HETATM   18  C   UNL     1      18.765  48.894  50.974  1.00  0.00     0.050 C 
HETATM   19  C   UNL     1      18.113  51.053  49.955  1.00  0.00     0.009 A 
HETATM   20  C   UNL     1      18.295  52.159  49.130  1.00  0.00     0.001 A 
HETATM   21  C   UNL     1      19.504  52.333  48.475  1.00  0.00     0.002 A 
HETATM   22  C   UNL     1      20.534  51.411  48.671  1.00  0.00     0.030 A 
ENDBRANCH  13  16
ENDBRANCH   1  12
BRANCH   2  23
HETATM   23  C   UNL     1      22.908  45.860  48.837  1.00  0.00    -0.026 A 
HETATM   24  C   UNL     1      21.552  45.686  48.505  1.00  0.00     0.035 A 
HETATM   25  C   UNL     1      21.148  44.652  47.652  1.00  0.00     0.056 A 
HETATM   26 CL   UNL     1      19.460  44.508  47.310  1.00  0.00    -0.083 Cl
HETATM   27  C   UNL     1      22.099  43.779  47.114  1.00  0.00     0.055 A 
HETATM   28 CL   UNL     1      21.675  42.479  46.059  1.00  0.00    -0.083 Cl
HETATM   29  C   UNL     1      23.449  43.947  47.431  1.00  0.00     0.026 A 
HETATM   30  C   UNL     1      23.851  44.979  48.284  1.00  0.00     0.011 A 
ENDBRANCH   2  23
BRANCH   7  31
HETATM   31  C   UNL     1      26.696  44.319  52.144  1.00  0.00     0.085 C 
BRANCH  31  32
HETATM   32  C   UNL     1      26.957  44.624  53.620  1.00  0.00     0.034 C 
BRANCH  32  33
HETATM   33  C   UNL     1      26.054  43.834  54.563  1.00  0.00     0.164 C 
BRANCH  33  34
HETATM   34  O   UNL     1      24.709  43.898  54.104  1.00  0.00    -0.401 OA
HETATM   35  H   UNL     1      24.640  44.647  53.489  1.00  0.00     0.209 HD
ENDBRANCH  33  34
ENDBRANCH  32  33
ENDBRANCH  31  32
ENDBRANCH   7  31
TORSDOF 7
ENDMDL
MODEL 5
REMARK VINA RESULT:      -8.4      3.393      7.877
REMARK  7 active torsions:
REMARK  status: ('A' for Active; 'I' for Inactive)
REMARK    1  A    between atoms: C_3  and  N_4 
REMARK       I    between atoms: N_4  and  C_5 
REMARK    2  A    between atoms: C_5  and  C_6 
REMARK    3  A    between atoms: C_7  and  C_8 
REMARK    4  A    between atoms: C_20  and  C_21 
REMARK    5  A    between atoms: C_21  and  C_22 
REMARK    6  A    between atoms: C_22  and  C_23 
REMARK    7  A    between atoms: C_23  and  O_24 
ROOT
HETATM    1  C   UNL     1      24.342  46.779  50.005  1.00  0.00     0.062 C 
HETATM    2  C   UNL     1      24.014  45.513  50.806  1.00  0.00     0.202 C 
HETATM    3  N   UNL     1      24.950  45.341  51.924  1.00  0.00    -0.083 N 
HETATM    4  C   UNL     1      26.118  46.037  52.052  1.00  0.00     0.726 A 
HETATM    5  N   UNL     1      26.396  47.023  51.180  1.00  0.00    -0.192 N 
HETATM    6  N   UNL     1      24.828  44.402  52.886  1.00  0.00    -0.140 NA
HETATM    7  C   UNL     1      26.002  44.542  53.519  1.00  0.00     0.166 A 
HETATM    8  N   UNL     1      26.807  45.556  53.054  1.00  0.00    -0.046 NA
HETATM    9  C   UNL     1      25.523  47.429  50.178  1.00  0.00     0.037 C 
HETATM   10  C   UNL     1      26.020  48.567  49.319  1.00  0.00     0.070 C 
HETATM   11  H   UNL     1      27.276  47.522  51.279  1.00  0.00     0.184 HD
ENDROOT
BRANCH   1  12
HETATM   12  C   UNL     1      23.283  47.191  49.034  1.00  0.00     0.256 C 
HETATM   13  N   UNL     1      22.319  48.011  49.573  1.00  0.00    -0.323 N 
HETATM   14  H   UNL     1      22.251  48.007  50.583  1.00  0.00     0.169 HD
HETATM   15  O   UNL     1      23.254  46.688  47.919  1.00  0.00    -0.267 OA
BRANCH  13  16
HETATM   16  C   UNL     1      21.315  48.752  48.906  1.00  0.00     0.041 A 
HETATM   17  C   UNL     1      20.108  48.248  48.385  1.00  0.00    -0.035 A 
HETATM   18  C   UNL     1      19.691  46.803  48.406  1.00  0.00     0.050 C 
HETATM   19  C   UNL     1      19.218  49.142  47.751  1.00  0.00     0.009 A 
HETATM   20  C   UNL     1      19.531  50.488  47.580  1.00  0.00     0.001 A 
HETATM   21  C   UNL     1      20.745  50.971  48.043  1.00  0.00     0.002 A 
HETATM   22  C   UNL     1      21.628  50.109  48.696  1.00  0.00     0.030 A 
ENDBRANCH  13  16
ENDBRANCH   1  12
BRANCH   2  23
HETATM   23  C   UNL     1      24.024  44.236  49.961  1.00  0.00    -0.026 A 
HETATM   24  C   UNL     1      25.228  43.626  49.561  1.00  0.00     0.035 A 
HETATM   25  C   UNL     1      25.219  42.458  48.790  1.00  0.00     0.056 A 
HETATM   26 CL   UNL     1      26.746  41.787  48.336  1.00  0.00    -0.083 Cl
HETATM   27  C   UNL     1      24.004  41.879  48.413  1.00  0.00     0.055 A 
HETATM   28 CL   UNL     1      23.917  40.441  47.460  1.00  0.00    -0.083 Cl
HETATM   29  C   UNL     1      22.803  42.471  48.810  1.00  0.00     0.026 A 
HETATM   30  C   UNL     1      22.812  43.639  49.579  1.00  0.00     0.011 A 
ENDBRANCH   2  23
BRANCH   7  31
HETATM   31  C   UNL     1      26.459  43.609  54.580  1.00  0.00     0.085 C 
BRANCH  31  32
HETATM   32  C   UNL     1      27.850  43.036  54.304  1.00  0.00     0.034 C 
BRANCH  32  33
HETATM   33  C   UNL     1      27.873  42.057  53.134  1.00  0.00     0.164 C 
BRANCH  33  34
HETATM   34  O   UNL     1      27.388  40.789  53.562  1.00  0.00    -0.401 OA
HETATM   35  H   UNL     1      26.446  40.888  53.778  1.00  0.00     0.209 HD
ENDBRANCH  33  34
ENDBRANCH  32  33
ENDBRANCH  31  32
ENDBRANCH   7  31
TORSDOF 7
ENDMDL
MODEL 6
REMARK VINA RESULT:      -8.4     19.335     21.113
REMARK  7 active torsions:
REMARK  status: ('A' for Active; 'I' for Inactive)
REMARK    1  A    between atoms: C_3  and  N_4 
REMARK       I    between atoms: N_4  and  C_5 
REMARK    2  A    between atoms: C_5  and  C_6 
REMARK    3  A    between atoms: C_7  and  C_8 
REMARK    4  A    between atoms: C_20  and  C_21 
REMARK    5  A    between atoms: C_21  and  C_22 
REMARK    6  A    between atoms: C_22  and  C_23 
REMARK    7  A    between atoms: C_23  and  O_24 
ROOT
HETATM    1  C   UNL     1      37.576  44.484  64.668  1.00  0.00     0.062 C 
HETATM    2  C   UNL     1      38.808  43.909  63.959  1.00  0.00     0.202 C 
HETATM    3  N   UNL     1      38.723  42.448  63.858  1.00  0.00    -0.083 N 
HETATM    4  C   UNL     1      37.826  41.688  64.555  1.00  0.00     0.726 A 
HETATM    5  N   UNL     1      36.883  42.296  65.296  1.00  0.00    -0.192 N 
HETATM    6  N   UNL     1      39.585  41.677  63.162  1.00  0.00    -0.140 NA
HETATM    7  C   UNL     1      39.192  40.454  63.548  1.00  0.00     0.166 A 
HETATM    8  N   UNL     1      38.096  40.421  64.379  1.00  0.00    -0.046 NA
HETATM    9  C   UNL     1      36.719  43.676  65.346  1.00  0.00     0.037 C 
HETATM   10  C   UNL     1      35.588  44.154  66.223  1.00  0.00     0.070 C 
HETATM   11  H   UNL     1      36.233  41.718  65.821  1.00  0.00     0.184 HD
ENDROOT
BRANCH   1  12
HETATM   12  C   UNL     1      37.435  45.969  64.563  1.00  0.00     0.256 C 
HETATM   13  N   UNL     1      37.928  46.655  65.648  1.00  0.00    -0.323 N 
HETATM   14  H   UNL     1      38.049  46.113  66.494  1.00  0.00     0.169 HD
HETATM   15  O   UNL     1      36.795  46.453  63.639  1.00  0.00    -0.267 OA
BRANCH  13  16
HETATM   16  C   UNL     1      38.155  48.044  65.786  1.00  0.00     0.041 A 
HETATM   17  C   UNL     1      39.265  48.764  65.305  1.00  0.00    -0.035 A 
HETATM   18  C   UNL     1      40.444  48.164  64.590  1.00  0.00     0.050 C 
HETATM   19  C   UNL     1      39.322  50.156  65.534  1.00  0.00     0.009 A 
HETATM   20  C   UNL     1      38.340  50.817  66.269  1.00  0.00     0.001 A 
HETATM   21  C   UNL     1      37.277  50.097  66.791  1.00  0.00     0.002 A 
HETATM   22  C   UNL     1      37.189  48.724  66.553  1.00  0.00     0.030 A 
ENDBRANCH  13  16
ENDBRANCH   1  12
BRANCH   2  23
HETATM   23  C   UNL     1      40.130  44.274  64.641  1.00  0.00    -0.026 A 
HETATM   24  C   UNL     1      41.204  44.828  63.920  1.00  0.00     0.035 A 
HETATM   25  C   UNL     1      42.404  45.158  64.559  1.00  0.00     0.056 A 
HETATM   26 CL   UNL     1      43.672  45.822  63.590  1.00  0.00    -0.083 Cl
HETATM   27  C   UNL     1      42.545  44.943  65.934  1.00  0.00     0.055 A 
HETATM   28 CL   UNL     1      43.997  45.321  66.789  1.00  0.00    -0.083 Cl
HETATM   29  C   UNL     1      41.484  44.400  66.661  1.00  0.00     0.026 A 
HETATM   30  C   UNL     1      40.285  44.070  66.022  1.00  0.00     0.011 A 
ENDBRANCH   2  23
BRANCH   7  31
HETATM   31  C   UNL     1      39.941  39.221  63.195  1.00  0.00     0.085 C 
BRANCH  31  32
HETATM   32  C   UNL     1      40.621  38.578  64.404  1.00  0.00     0.034 C 
BRANCH  32  33
HETATM   33  C   UNL     1      41.785  39.402  64.945  1.00  0.00     0.164 C 
BRANCH  33  34
HETATM   34  O   UNL     1      43.016  38.836  64.508  1.00  0.00    -0.401 OA
HETATM   35  H   UNL     1      43.629  38.839  65.262  1.00  0.00     0.209 HD
ENDBRANCH  33  34
ENDBRANCH  32  33
ENDBRANCH  31  32
ENDBRANCH   7  31
TORSDOF 7
ENDMDL
MODEL 7
REMARK VINA RESULT:      -8.4      3.970      7.825
REMARK  7 active torsions:
REMARK  status: ('A' for Active; 'I' for Inactive)
REMARK    1  A    between atoms: C_3  and  N_4 
REMARK       I    between atoms: N_4  and  C_5 
REMARK    2  A    between atoms: C_5  and  C_6 
REMARK    3  A    between atoms: C_7  and  C_8 
REMARK    4  A    between atoms: C_20  and  C_21 
REMARK    5  A    between atoms: C_21  and  C_22 
REMARK    6  A    between atoms: C_22  and  C_23 
REMARK    7  A    between atoms: C_23  and  O_24 
ROOT
HETATM    1  C   UNL     1      23.637  48.037  49.186  1.00  0.00     0.062 C 
HETATM    2  C   UNL     1      23.314  46.673  49.808  1.00  0.00     0.202 C 
HETATM    3  N   UNL     1      24.473  46.140  50.535  1.00  0.00    -0.083 N 
HETATM    4  C   UNL     1      25.739  46.642  50.422  1.00  0.00     0.726 A 
HETATM    5  N   UNL     1      25.943  47.758  49.700  1.00  0.00    -0.192 N 
HETATM    6  N   UNL     1      24.450  45.030  51.303  1.00  0.00    -0.140 NA
HETATM    7  C   UNL     1      25.757  44.880  51.561  1.00  0.00     0.166 A 
HETATM    8  N   UNL     1      26.575  45.867  51.061  1.00  0.00    -0.046 NA
HETATM    9  C   UNL     1      24.918  48.483  49.103  1.00  0.00     0.037 C 
HETATM   10  C   UNL     1      25.360  49.716  48.353  1.00  0.00     0.070 C 
HETATM   11  H   UNL     1      26.892  48.111  49.613  1.00  0.00     0.184 HD
ENDROOT
BRANCH   1  12
HETATM   12  C   UNL     1      22.446  48.784  48.677  1.00  0.00     0.256 C 
HETATM   13  N   UNL     1      21.593  49.218  49.665  1.00  0.00    -0.323 N 
HETATM   14  H   UNL     1      21.684  48.754  50.561  1.00  0.00     0.169 HD
HETATM   15  O   UNL     1      22.234  48.838  47.473  1.00  0.00    -0.267 OA
BRANCH  13  16
HETATM   16  C   UNL     1      20.510  50.122  49.564  1.00  0.00     0.041 A 
HETATM   17  C   UNL     1      19.235  49.971  50.142  1.00  0.00    -0.035 A 
HETATM   18  C   UNL     1      18.780  48.781  50.940  1.00  0.00     0.050 C 
HETATM   19  C   UNL     1      18.274  50.985  49.937  1.00  0.00     0.009 A 
HETATM   20  C   UNL     1      18.539  52.093  49.136  1.00  0.00     0.001 A 
HETATM   21  C   UNL     1      19.775  52.211  48.521  1.00  0.00     0.002 A 
HETATM   22  C   UNL     1      20.749  51.233  48.732  1.00  0.00     0.030 A 
ENDBRANCH  13  16
ENDBRANCH   1  12
BRANCH   2  23
HETATM   23  C   UNL     1      22.859  45.628  48.785  1.00  0.00    -0.026 A 
HETATM   24  C   UNL     1      21.509  45.507  48.406  1.00  0.00     0.035 A 
HETATM   25  C   UNL     1      21.110  44.548  47.468  1.00  0.00     0.056 A 
HETATM   26 CL   UNL     1      19.429  44.464  47.074  1.00  0.00    -0.083 Cl
HETATM   27  C   UNL     1      22.058  43.700  46.890  1.00  0.00     0.055 A 
HETATM   28 CL   UNL     1      21.639  42.491  45.729  1.00  0.00    -0.083 Cl
HETATM   29  C   UNL     1      23.402  43.816  47.252  1.00  0.00     0.026 A 
HETATM   30  C   UNL     1      23.801  44.773  48.190  1.00  0.00     0.011 A 
ENDBRANCH   2  23
BRANCH   7  31
HETATM   31  C   UNL     1      26.309  43.683  52.245  1.00  0.00     0.085 C 
BRANCH  31  32
HETATM   32  C   UNL     1      27.159  42.813  51.318  1.00  0.00     0.034 C 
BRANCH  32  33
HETATM   33  C   UNL     1      27.484  41.445  51.911  1.00  0.00     0.164 C 
BRANCH  33  34
HETATM   34  O   UNL     1      26.398  40.555  51.683  1.00  0.00    -0.401 OA
HETATM   35  H   UNL     1      25.575  41.037  51.867  1.00  0.00     0.209 HD
ENDBRANCH  33  34
ENDBRANCH  32  33
ENDBRANCH  31  32
ENDBRANCH   7  31
TORSDOF 7
ENDMDL
MODEL 8
REMARK VINA RESULT:      -8.0      3.690      6.534
REMARK  7 active torsions:
REMARK  status: ('A' for Active; 'I' for Inactive)
REMARK    1  A    between atoms: C_3  and  N_4 
REMARK       I    between atoms: N_4  and  C_5 
REMARK    2  A    between atoms: C_5  and  C_6 
REMARK    3  A    between atoms: C_7  and  C_8 
REMARK    4  A    between atoms: C_20  and  C_21 
REMARK    5  A    between atoms: C_21  and  C_22 
REMARK    6  A    between atoms: C_22  and  C_23 
REMARK    7  A    between atoms: C_23  and  O_24 
ROOT
HETATM    1  C   UNL     1      21.164  46.624  47.889  1.00  0.00     0.062 C 
HETATM    2  C   UNL     1      21.389  47.840  48.796  1.00  0.00     0.202 C 
HETATM    3  N   UNL     1      20.524  48.958  48.400  1.00  0.00    -0.083 N 
HETATM    4  C   UNL     1      19.841  49.009  47.217  1.00  0.00     0.726 A 
HETATM    5  N   UNL     1      19.853  47.939  46.403  1.00  0.00    -0.192 N 
HETATM    6  N   UNL     1      20.393  50.108  49.094  1.00  0.00    -0.140 NA
HETATM    7  C   UNL     1      19.673  50.838  48.231  1.00  0.00     0.166 A 
HETATM    8  N   UNL     1      19.290  50.187  47.081  1.00  0.00    -0.046 NA
HETATM    9  C   UNL     1      20.475  46.738  46.724  1.00  0.00     0.037 C 
HETATM   10  C   UNL     1      20.355  45.656  45.678  1.00  0.00     0.070 C 
HETATM   11  H   UNL     1      19.353  47.998  45.520  1.00  0.00     0.184 HD
ENDROOT
BRANCH   1  12
HETATM   12  C   UNL     1      21.782  45.356  48.387  1.00  0.00     0.256 C 
HETATM   13  N   UNL     1      22.961  45.026  47.762  1.00  0.00    -0.323 N 
HETATM   14  H   UNL     1      23.129  45.476  46.871  1.00  0.00     0.169 HD
HETATM   15  O   UNL     1      21.165  44.650  49.173  1.00  0.00    -0.267 OA
BRANCH  13  16
HETATM   16  C   UNL     1      23.906  44.037  48.123  1.00  0.00     0.041 A 
HETATM   17  C   UNL     1      23.918  42.694  47.698  1.00  0.00    -0.035 A 
HETATM   18  C   UNL     1      22.885  42.056  46.810  1.00  0.00     0.050 C 
HETATM   19  C   UNL     1      24.948  41.846  48.161  1.00  0.00     0.009 A 
HETATM   20  C   UNL     1      25.909  42.289  49.065  1.00  0.00     0.001 A 
HETATM   21  C   UNL     1      25.862  43.596  49.527  1.00  0.00     0.002 A 
HETATM   22  C   UNL     1      24.868  44.458  49.062  1.00  0.00     0.030 A 
ENDBRANCH  13  16
ENDBRANCH   1  12
BRANCH   2  23
HETATM   23  C   UNL     1      22.840  48.330  48.813  1.00  0.00    -0.026 A 
HETATM   24  C   UNL     1      23.796  47.772  49.682  1.00  0.00     0.035 A 
HETATM   25  C   UNL     1      25.119  48.229  49.683  1.00  0.00     0.056 A 
HETATM   26 CL   UNL     1      26.220  47.493  50.793  1.00  0.00    -0.083 Cl
HETATM   27  C   UNL     1      25.506  49.249  48.809  1.00  0.00     0.055 A 
HETATM   28 CL   UNL     1      27.118  49.866  48.757  1.00  0.00    -0.083 Cl
HETATM   29  C   UNL     1      24.567  49.805  47.936  1.00  0.00     0.026 A 
HETATM   30  C   UNL     1      23.245  49.349  47.936  1.00  0.00     0.011 A 
ENDBRANCH   2  23
BRANCH   7  31
HETATM   31  C   UNL     1      19.390  52.281  48.440  1.00  0.00     0.085 C 
BRANCH  31  32
HETATM   32  C   UNL     1      18.275  52.522  49.459  1.00  0.00     0.034 C 
BRANCH  32  33
HETATM   33  C   UNL     1      17.341  51.327  49.618  1.00  0.00     0.164 C 
BRANCH  33  34
HETATM   34  O   UNL     1      17.875  50.427  50.582  1.00  0.00    -0.401 OA
HETATM   35  H   UNL     1      18.221  50.954  51.322  1.00  0.00     0.209 HD
ENDBRANCH  33  34
ENDBRANCH  32  33
ENDBRANCH  31  32
ENDBRANCH   7  31
TORSDOF 7
ENDMDL
MODEL 9
REMARK VINA RESULT:      -7.9      3.660      8.736
REMARK  7 active torsions:
REMARK  status: ('A' for Active; 'I' for Inactive)
REMARK    1  A    between atoms: C_3  and  N_4 
REMARK       I    between atoms: N_4  and  C_5 
REMARK    2  A    between atoms: C_5  and  C_6 
REMARK    3  A    between atoms: C_7  and  C_8 
REMARK    4  A    between atoms: C_20  and  C_21 
REMARK    5  A    between atoms: C_21  and  C_22 
REMARK    6  A    between atoms: C_22  and  C_23 
REMARK    7  A    between atoms: C_23  and  O_24 
ROOT
HETATM    1  C   UNL     1      24.930  43.726  50.884  1.00  0.00     0.062 C 
HETATM    2  C   UNL     1      25.682  42.522  51.464  1.00  0.00     0.202 C 
HETATM    3  N   UNL     1      26.744  42.957  52.379  1.00  0.00    -0.083 N 
HETATM    4  C   UNL     1      27.191  44.245  52.469  1.00  0.00     0.726 A 
HETATM    5  N   UNL     1      26.563  45.210  51.774  1.00  0.00    -0.192 N 
HETATM    6  N   UNL     1      27.478  42.126  53.149  1.00  0.00    -0.140 NA
HETATM    7  C   UNL     1      28.402  42.976  53.621  1.00  0.00     0.166 A 
HETATM    8  N   UNL     1      28.239  44.291  53.249  1.00  0.00    -0.046 NA
HETATM    9  C   UNL     1      25.426  44.986  51.006  1.00  0.00     0.037 C 
HETATM   10  C   UNL     1      24.866  46.208  50.321  1.00  0.00     0.070 C 
HETATM   11  H   UNL     1      26.916  46.161  51.839  1.00  0.00     0.184 HD
ENDROOT
BRANCH   1  12
HETATM   12  C   UNL     1      23.660  43.382  50.174  1.00  0.00     0.256 C 
HETATM   13  N   UNL     1      23.756  43.427  48.803  1.00  0.00    -0.323 N 
HETATM   14  H   UNL     1      24.537  43.955  48.432  1.00  0.00     0.169 HD
HETATM   15  O   UNL     1      22.629  43.230  50.816  1.00  0.00    -0.267 OA
BRANCH  13  16
HETATM   16  C   UNL     1      22.835  42.958  47.837  1.00  0.00     0.041 A 
HETATM   17  C   UNL     1      22.820  41.681  47.244  1.00  0.00    -0.035 A 
HETATM   18  C   UNL     1      23.823  40.592  47.505  1.00  0.00     0.050 C 
HETATM   19  C   UNL     1      21.817  41.386  46.295  1.00  0.00     0.009 A 
HETATM   20  C   UNL     1      20.886  42.341  45.894  1.00  0.00     0.001 A 
HETATM   21  C   UNL     1      20.939  43.616  46.435  1.00  0.00     0.002 A 
HETATM   22  C   UNL     1      21.906  43.920  47.395  1.00  0.00     0.030 A 
ENDBRANCH  13  16
ENDBRANCH   1  12
BRANCH   2  23
HETATM   23  C   UNL     1      26.302  41.616  50.395  1.00  0.00    -0.026 A 
HETATM   24  C   UNL     1      26.208  40.215  50.472  1.00  0.00     0.035 A 
HETATM   25  C   UNL     1      26.778  39.401  49.486  1.00  0.00     0.056 A 
HETATM   26 CL   UNL     1      26.624  37.690  49.671  1.00  0.00    -0.083 Cl
HETATM   27  C   UNL     1      27.445  39.981  48.403  1.00  0.00     0.055 A 
HETATM   28 CL   UNL     1      28.176  39.042  47.151  1.00  0.00    -0.083 Cl
HETATM   29  C   UNL     1      27.538  41.372  48.311  1.00  0.00     0.026 A 
HETATM   30  C   UNL     1      26.970  42.184  49.298  1.00  0.00     0.011 A 
ENDBRANCH   2  23
BRANCH   7  31
HETATM   31  C   UNL     1      29.581  42.528  54.404  1.00  0.00     0.085 C 
BRANCH  31  32
HETATM   32  C   UNL     1      30.591  43.651  54.645  1.00  0.00     0.034 C 
BRANCH  32  33
HETATM   33  C   UNL     1      30.673  44.079  56.107  1.00  0.00     0.164 C 
BRANCH  33  34
HETATM   34  O   UNL     1      31.718  43.364  56.757  1.00  0.00    -0.401 OA
HETATM   35  H   UNL     1      31.963  42.614  56.190  1.00  0.00     0.209 HD
ENDBRANCH  33  34
ENDBRANCH  32  33
ENDBRANCH  31  32
ENDBRANCH   7  31
TORSDOF 7
ENDMDL
MODEL 10
REMARK VINA RESULT:      -7.9      3.277      6.703
REMARK  7 active torsions:
REMARK  status: ('A' for Active; 'I' for Inactive)
REMARK    1  A    between atoms: C_3  and  N_4 
REMARK       I    between atoms: N_4  and  C_5 
REMARK    2  A    between atoms: C_5  and  C_6 
REMARK    3  A    between atoms: C_7  and  C_8 
REMARK    4  A    between atoms: C_20  and  C_21 
REMARK    5  A    between atoms: C_21  and  C_22 
REMARK    6  A    between atoms: C_22  and  C_23 
REMARK    7  A    between atoms: C_23  and  O_24 
ROOT
HETATM    1  C   UNL     1      24.267  44.868  49.540  1.00  0.00     0.062 C 
HETATM    2  C   UNL     1      25.695  44.312  49.588  1.00  0.00     0.202 C 
HETATM    3  N   UNL     1      25.750  42.954  49.036  1.00  0.00    -0.083 N 
HETATM    4  C   UNL     1      24.645  42.186  48.793  1.00  0.00     0.726 A 
HETATM    5  N   UNL     1      23.423  42.723  48.953  1.00  0.00    -0.192 N 
HETATM    6  N   UNL     1      26.888  42.262  48.814  1.00  0.00    -0.140 NA
HETATM    7  C   UNL     1      26.390  41.056  48.509  1.00  0.00     0.166 A 
HETATM    8  N   UNL     1      25.017  40.979  48.457  1.00  0.00    -0.046 NA
HETATM    9  C   UNL     1      23.207  44.053  49.293  1.00  0.00     0.037 C 
HETATM   10  C   UNL     1      21.758  44.459  49.403  1.00  0.00     0.070 C 
HETATM   11  H   UNL     1      22.611  42.135  48.783  1.00  0.00     0.184 HD
ENDROOT
BRANCH   1  12
HETATM   12  C   UNL     1      24.162  46.335  49.809  1.00  0.00     0.256 C 
HETATM   13  N   UNL     1      23.698  47.068  48.741  1.00  0.00    -0.323 N 
HETATM   14  H   UNL     1      23.762  46.617  47.836  1.00  0.00     0.169 HD
HETATM   15  O   UNL     1      24.606  46.793  50.853  1.00  0.00    -0.267 OA
BRANCH  13  16
HETATM   16  C   UNL     1      23.276  48.417  48.712  1.00  0.00     0.041 A 
HETATM   17  C   UNL     1      24.101  49.551  48.582  1.00  0.00    -0.035 A 
HETATM   18  C   UNL     1      25.602  49.526  48.497  1.00  0.00     0.050 C 
HETATM   19  C   UNL     1      23.499  50.828  48.568  1.00  0.00     0.009 A 
HETATM   20  C   UNL     1      22.127  50.992  48.737  1.00  0.00     0.001 A 
HETATM   21  C   UNL     1      21.323  49.878  48.923  1.00  0.00     0.002 A 
HETATM   22  C   UNL     1      21.895  48.605  48.913  1.00  0.00     0.030 A 
ENDBRANCH  13  16
ENDBRANCH   1  12
BRANCH   2  23
HETATM   23  C   UNL     1      26.294  44.290  50.998  1.00  0.00    -0.026 A 
HETATM   24  C   UNL     1      25.481  44.198  52.143  1.00  0.00     0.035 A 
HETATM   25  C   UNL     1      26.045  44.177  53.424  1.00  0.00     0.056 A 
HETATM   26 CL   UNL     1      24.967  44.074  54.772  1.00  0.00    -0.083 Cl
HETATM   27  C   UNL     1      27.433  44.240  53.577  1.00  0.00     0.055 A 
HETATM   28 CL   UNL     1      28.198  44.222  55.125  1.00  0.00    -0.083 Cl
HETATM   29  C   UNL     1      28.250  44.323  52.448  1.00  0.00     0.026 A 
HETATM   30  C   UNL     1      27.687  44.347  51.168  1.00  0.00     0.011 A 
ENDBRANCH   2  23
BRANCH   7  31
HETATM   31  C   UNL     1      27.245  39.853  48.339  1.00  0.00     0.085 C 
BRANCH  31  32
HETATM   32  C   UNL     1      28.605  39.995  49.024  1.00  0.00     0.034 C 
BRANCH  32  33
HETATM   33  C   UNL     1      28.906  38.860  49.997  1.00  0.00     0.164 C 
BRANCH  33  34
HETATM   34  O   UNL     1      29.167  39.395  51.290  1.00  0.00    -0.401 OA
HETATM   35  H   UNL     1      30.061  39.117  51.551  1.00  0.00     0.209 HD
ENDBRANCH  33  34
ENDBRANCH  32  33
ENDBRANCH  31  32
ENDBRANCH   7  31
TORSDOF 7
ENDMDL
