MODEL 1
REMARK VINA RESULT:      -9.0      0.000      0.000
REMARK  4 active torsions:
REMARK  status: ('A' for Active; 'I' for Inactive)
REMARK    1  A    between atoms: O_2  and  C_3 
REMARK    2  A    between atoms: C_4  and  N_5 
REMARK    3  A    between atoms: N_8  and  C_9 
REMARK    4  A    between atoms: C_9  and  C_10 
ROOT
HETATM    1  N   UNL     1      27.286  45.193  53.922  1.00  0.00    -0.375 N 
HETATM    2  C   UNL     1      26.516  44.243  53.099  1.00  0.00     0.153 C 
HETATM    3  C   UNL     1      25.136  44.846  52.733  1.00  0.00     0.292 C 
HETATM    4  N   UNL     1      25.171  46.178  52.073  1.00  0.00     0.095 N 
HETATM    5  C   UNL     1      26.014  47.075  52.908  1.00  0.00     0.292 C 
HETATM    6  C   UNL     1      27.411  46.528  53.294  1.00  0.00     0.153 C 
ENDROOT
BRANCH   4   7
HETATM    7  C   UNL     1      25.686  46.067  50.693  1.00  0.00     0.313 C 
BRANCH   7   8
HETATM    8  C   UNL     1      25.675  47.380  49.939  1.00  0.00    -0.001 A 
HETATM    9  C   UNL     1      24.507  48.041  49.521  1.00  0.00     0.070 A 
HETATM   10  C   UNL     1      24.497  49.227  48.801  1.00  0.00     0.012 A 
HETATM   11  N   UNL     1      23.184  47.729  49.717  1.00  0.00    -0.277 N 
HETATM   12  C   UNL     1      23.126  49.520  48.619  1.00  0.00     0.152 A 
HETATM   13  C   UNL     1      25.718  49.823  48.444  1.00  0.00     0.015 A 
HETATM   14  N   UNL     1      22.322  48.610  49.174  1.00  0.00    -0.186 NA
HETATM   15  C   UNL     1      26.907  49.190  48.827  1.00  0.00     0.002 A 
HETATM   16  C   UNL     1      26.883  47.994  49.551  1.00  0.00     0.011 A 
HETATM   17  H   UNL     1      22.829  46.937  50.244  1.00  0.00     0.189 HD
ENDBRANCH   7   8
ENDBRANCH   4   7
BRANCH   1  18
HETATM   18  C   UNL     1      28.454  44.762  54.580  1.00  0.00     0.064 A 
HETATM   19  C   UNL     1      29.017  45.340  55.745  1.00  0.00     0.097 A 
HETATM   20  C   UNL     1      30.175  44.797  56.324  1.00  0.00     0.081 A 
HETATM   21  C   UNL     1      30.811  43.717  55.728  1.00  0.00     0.119 A 
HETATM   22  C   UNL     1      30.317  43.156  54.566  1.00  0.00     0.044 A 
HETATM   23  F   UNL     1      31.918  43.213  56.289  1.00  0.00    -0.206 F 
HETATM   24  C   UNL     1      29.151  43.676  54.003  1.00  0.00     0.035 A 
BRANCH  19  25
HETATM   25  O   UNL     1      28.367  46.379  56.368  1.00  0.00    -0.354 OA
HETATM   26  C   UNL     1      28.505  46.380  57.788  1.00  0.00     0.210 C 
ENDBRANCH  19  25
ENDBRANCH   1  18
TORSDOF 4
ENDMDL
MODEL 2
REMARK VINA RESULT:      -9.0      4.467      6.690
REMARK  4 active torsions:
REMARK  status: ('A' for Active; 'I' for Inactive)
REMARK    1  A    between atoms: O_2  and  C_3 
REMARK    2  A    between atoms: C_4  and  N_5 
REMARK    3  A    between atoms: N_8  and  C_9 
REMARK    4  A    between atoms: C_9  and  C_10 
ROOT
HETATM    1  N   UNL     1      28.691  43.936  54.046  1.00  0.00    -0.375 N 
HETATM    2  C   UNL     1      27.383  43.270  54.164  1.00  0.00     0.153 C 
HETATM    3  C   UNL     1      26.641  43.299  52.803  1.00  0.00     0.292 C 
HETATM    4  N   UNL     1      27.394  42.739  51.649  1.00  0.00     0.095 N 
HETATM    5  C   UNL     1      28.728  43.395  51.619  1.00  0.00     0.292 C 
HETATM    6  C   UNL     1      29.520  43.385  52.949  1.00  0.00     0.153 C 
ENDROOT
BRANCH   4   7
HETATM    7  C   UNL     1      27.505  41.270  51.758  1.00  0.00     0.313 C 
BRANCH   7   8
HETATM    8  C   UNL     1      27.804  40.590  50.438  1.00  0.00    -0.001 A 
HETATM    9  C   UNL     1      28.728  39.542  50.282  1.00  0.00     0.070 A 
HETATM   10  C   UNL     1      29.027  38.940  49.069  1.00  0.00     0.012 A 
HETATM   11  N   UNL     1      29.493  38.878  51.210  1.00  0.00    -0.277 N 
HETATM   12  C   UNL     1      29.980  37.947  49.390  1.00  0.00     0.152 A 
HETATM   13  C   UNL     1      28.389  39.393  47.903  1.00  0.00     0.015 A 
HETATM   14  N   UNL     1      30.269  37.907  50.694  1.00  0.00    -0.186 NA
HETATM   15  C   UNL     1      27.472  40.446  48.010  1.00  0.00     0.002 A 
HETATM   16  C   UNL     1      27.193  41.032  49.248  1.00  0.00     0.011 A 
HETATM   17  H   UNL     1      29.491  39.041  52.213  1.00  0.00     0.189 HD
ENDBRANCH   7   8
ENDBRANCH   4   7
BRANCH   1  18
HETATM   18  C   UNL     1      29.422  44.253  55.207  1.00  0.00     0.064 A 
HETATM   19  C   UNL     1      29.179  45.347  56.074  1.00  0.00     0.097 A 
HETATM   20  C   UNL     1      29.965  45.540  57.221  1.00  0.00     0.081 A 
HETATM   21  C   UNL     1      31.026  44.687  57.489  1.00  0.00     0.119 A 
HETATM   22  C   UNL     1      31.322  43.636  56.642  1.00  0.00     0.044 A 
HETATM   23  F   UNL     1      31.771  44.885  58.585  1.00  0.00    -0.206 F 
HETATM   24  C   UNL     1      30.527  43.426  55.515  1.00  0.00     0.035 A 
BRANCH  19  25
HETATM   25  O   UNL     1      28.101  46.168  55.842  1.00  0.00    -0.354 OA
HETATM   26  C   UNL     1      28.369  47.236  54.935  1.00  0.00     0.210 C 
ENDBRANCH  19  25
ENDBRANCH   1  18
TORSDOF 4
ENDMDL
MODEL 3
REMARK VINA RESULT:      -8.3      3.915      8.573
REMARK  4 active torsions:
REMARK  status: ('A' for Active; 'I' for Inactive)
REMARK    1  A    between atoms: O_2  and  C_3 
REMARK    2  A    between atoms: C_4  and  N_5 
REMARK    3  A    between atoms: N_8  and  C_9 
REMARK    4  A    between atoms: C_9  and  C_10 
ROOT
HETATM    1  N   UNL     1      25.032  45.403  50.454  1.00  0.00    -0.375 N 
HETATM    2  C   UNL     1      24.643  44.986  51.813  1.00  0.00     0.153 C 
HETATM    3  C   UNL     1      25.484  43.764  52.261  1.00  0.00     0.292 C 
HETATM    4  N   UNL     1      26.958  43.936  52.186  1.00  0.00     0.095 N 
HETATM    5  C   UNL     1      27.288  44.421  50.819  1.00  0.00     0.292 C 
HETATM    6  C   UNL     1      26.487  45.650  50.323  1.00  0.00     0.153 C 
ENDROOT
BRANCH   4   7
HETATM    7  C   UNL     1      27.432  44.867  53.229  1.00  0.00     0.313 C 
BRANCH   7   8
HETATM    8  C   UNL     1      28.632  44.351  53.998  1.00  0.00    -0.001 A 
HETATM    9  C   UNL     1      29.086  44.897  55.210  1.00  0.00     0.070 A 
HETATM   10  C   UNL     1      30.204  44.447  55.898  1.00  0.00     0.012 A 
HETATM   11  N   UNL     1      28.577  45.914  55.981  1.00  0.00    -0.277 N 
HETATM   12  C   UNL     1      30.268  45.267  57.048  1.00  0.00     0.152 A 
HETATM   13  C   UNL     1      30.954  43.385  55.367  1.00  0.00     0.015 A 
HETATM   14  N   UNL     1      29.279  46.164  57.102  1.00  0.00    -0.186 NA
HETATM   15  C   UNL     1      30.546  42.821  54.152  1.00  0.00     0.002 A 
HETATM   16  C   UNL     1      29.415  43.299  53.483  1.00  0.00     0.011 A 
HETATM   17  H   UNL     1      27.731  46.443  55.788  1.00  0.00     0.189 HD
ENDBRANCH   7   8
ENDBRANCH   4   7
BRANCH   1  18
HETATM   18  C   UNL     1      24.233  46.323  49.748  1.00  0.00     0.064 A 
HETATM   19  C   UNL     1      23.142  46.004  48.903  1.00  0.00     0.097 A 
HETATM   20  C   UNL     1      22.403  47.020  48.275  1.00  0.00     0.081 A 
HETATM   21  C   UNL     1      22.769  48.348  48.435  1.00  0.00     0.119 A 
HETATM   22  C   UNL     1      23.857  48.695  49.215  1.00  0.00     0.044 A 
HETATM   23  F   UNL     1      22.059  49.306  47.826  1.00  0.00    -0.206 F 
HETATM   24  C   UNL     1      24.577  47.689  49.862  1.00  0.00     0.035 A 
BRANCH  19  25
HETATM   25  O   UNL     1      22.742  44.694  48.778  1.00  0.00    -0.354 OA
HETATM   26  C   UNL     1      21.523  44.527  48.056  1.00  0.00     0.210 C 
ENDBRANCH  19  25
ENDBRANCH   1  18
TORSDOF 4
ENDMDL
MODEL 4
REMARK VINA RESULT:      -8.3      4.141      8.291
REMARK  4 active torsions:
REMARK  status: ('A' for Active; 'I' for Inactive)
REMARK    1  A    between atoms: O_2  and  C_3 
REMARK    2  A    between atoms: C_4  and  N_5 
REMARK    3  A    between atoms: N_8  and  C_9 
REMARK    4  A    between atoms: C_9  and  C_10 
ROOT
HETATM    1  N   UNL     1      24.269  47.547  49.107  1.00  0.00    -0.375 N 
HETATM    2  C   UNL     1      23.599  46.241  49.237  1.00  0.00     0.153 C 
HETATM    3  C   UNL     1      24.644  45.096  49.200  1.00  0.00     0.292 C 
HETATM    4  N   UNL     1      25.747  45.202  50.191  1.00  0.00     0.095 N 
HETATM    5  C   UNL     1      26.341  46.560  50.062  1.00  0.00     0.292 C 
HETATM    6  C   UNL     1      25.345  47.743  50.105  1.00  0.00     0.153 C 
ENDROOT
BRANCH   4   7
HETATM    7  C   UNL     1      25.252  44.945  51.558  1.00  0.00     0.313 C 
BRANCH   7   8
HETATM    8  C   UNL     1      26.332  45.037  52.617  1.00  0.00    -0.001 A 
HETATM    9  C   UNL     1      26.426  46.075  53.559  1.00  0.00     0.070 A 
HETATM   10  C   UNL     1      27.433  46.178  54.508  1.00  0.00     0.012 A 
HETATM   11  N   UNL     1      25.606  47.153  53.788  1.00  0.00    -0.277 N 
HETATM   12  C   UNL     1      27.119  47.350  55.234  1.00  0.00     0.152 A 
HETATM   13  C   UNL     1      28.442  45.203  54.546  1.00  0.00     0.015 A 
HETATM   14  N   UNL     1      26.007  47.949  54.798  1.00  0.00    -0.186 NA
HETATM   15  C   UNL     1      28.396  44.159  53.614  1.00  0.00     0.002 A 
HETATM   16  C   UNL     1      27.368  44.084  52.670  1.00  0.00     0.011 A 
HETATM   17  H   UNL     1      24.744  47.364  53.293  1.00  0.00     0.189 HD
ENDBRANCH   7   8
ENDBRANCH   4   7
BRANCH   1  18
HETATM   18  C   UNL     1      23.505  48.704  48.858  1.00  0.00     0.064 A 
HETATM   19  C   UNL     1      23.902  49.813  48.071  1.00  0.00     0.097 A 
HETATM   20  C   UNL     1      23.033  50.899  47.875  1.00  0.00     0.081 A 
HETATM   21  C   UNL     1      21.793  50.919  48.497  1.00  0.00     0.119 A 
HETATM   22  C   UNL     1      21.390  49.876  49.309  1.00  0.00     0.044 A 
HETATM   23  F   UNL     1      20.976  51.963  48.306  1.00  0.00    -0.206 F 
HETATM   24  C   UNL     1      22.240  48.783  49.484  1.00  0.00     0.035 A 
BRANCH  19  25
HETATM   25  O   UNL     1      25.108  49.780  47.413  1.00  0.00    -0.354 OA
HETATM   26  C   UNL     1      26.174  50.407  48.124  1.00  0.00     0.210 C 
ENDBRANCH  19  25
ENDBRANCH   1  18
TORSDOF 4
ENDMDL
MODEL 5
REMARK VINA RESULT:      -8.2      3.685      8.258
REMARK  4 active torsions:
REMARK  status: ('A' for Active; 'I' for Inactive)
REMARK    1  A    between atoms: O_2  and  C_3 
REMARK    2  A    between atoms: C_4  and  N_5 
REMARK    3  A    between atoms: N_8  and  C_9 
REMARK    4  A    between atoms: C_9  and  C_10 
ROOT
HETATM    1  N   UNL     1      24.437  46.334  50.198  1.00  0.00    -0.375 N 
HETATM    2  C   UNL     1      25.036  46.548  51.527  1.00  0.00     0.153 C 
HETATM    3  C   UNL     1      25.217  45.194  52.259  1.00  0.00     0.292 C 
HETATM    4  N   UNL     1      25.985  44.160  51.516  1.00  0.00     0.095 N 
HETATM    5  C   UNL     1      25.382  44.034  50.162  1.00  0.00     0.292 C 
HETATM    6  C   UNL     1      25.189  45.356  49.379  1.00  0.00     0.153 C 
ENDROOT
BRANCH   4   7
HETATM    7  C   UNL     1      27.417  44.517  51.450  1.00  0.00     0.313 C 
BRANCH   7   8
HETATM    8  C   UNL     1      28.227  43.976  52.610  1.00  0.00    -0.001 A 
HETATM    9  C   UNL     1      28.452  44.674  53.809  1.00  0.00     0.070 A 
HETATM   10  C   UNL     1      29.221  44.193  54.858  1.00  0.00     0.012 A 
HETATM   11  N   UNL     1      27.992  45.897  54.232  1.00  0.00    -0.277 N 
HETATM   12  C   UNL     1      29.156  45.208  55.840  1.00  0.00     0.152 A 
HETATM   13  C   UNL     1      29.834  42.936  54.740  1.00  0.00     0.015 A 
HETATM   14  N   UNL     1      28.409  46.250  55.462  1.00  0.00    -0.186 NA
HETATM   15  C   UNL     1      29.649  42.212  53.556  1.00  0.00     0.002 A 
HETATM   16  C   UNL     1      28.869  42.725  52.515  1.00  0.00     0.011 A 
HETATM   17  H   UNL     1      27.364  46.510  53.719  1.00  0.00     0.189 HD
ENDBRANCH   7   8
ENDBRANCH   4   7
BRANCH   1  18
HETATM   18  C   UNL     1      23.948  47.433  49.465  1.00  0.00     0.064 A 
HETATM   19  C   UNL     1      24.649  48.635  49.195  1.00  0.00     0.097 A 
HETATM   20  C   UNL     1      24.059  49.649  48.424  1.00  0.00     0.081 A 
HETATM   21  C   UNL     1      22.759  49.505  47.961  1.00  0.00     0.119 A 
HETATM   22  C   UNL     1      22.028  48.366  48.243  1.00  0.00     0.044 A 
HETATM   23  F   UNL     1      22.206  50.482  47.231  1.00  0.00    -0.206 F 
HETATM   24  C   UNL     1      22.621  47.345  48.987  1.00  0.00     0.035 A 
BRANCH  19  25
HETATM   25  O   UNL     1      25.954  48.765  49.608  1.00  0.00    -0.354 OA
HETATM   26  C   UNL     1      26.807  49.382  48.646  1.00  0.00     0.210 C 
ENDBRANCH  19  25
ENDBRANCH   1  18
TORSDOF 4
ENDMDL
MODEL 6
REMARK VINA RESULT:      -8.2      3.760      8.159
REMARK  4 active torsions:
REMARK  status: ('A' for Active; 'I' for Inactive)
REMARK    1  A    between atoms: O_2  and  C_3 
REMARK    2  A    between atoms: C_4  and  N_5 
REMARK    3  A    between atoms: N_8  and  C_9 
REMARK    4  A    between atoms: C_9  and  C_10 
ROOT
HETATM    1  N   UNL     1      25.966  43.558  52.119  1.00  0.00    -0.375 N 
HETATM    2  C   UNL     1      26.089  44.176  53.450  1.00  0.00     0.153 C 
HETATM    3  C   UNL     1      26.857  43.233  54.411  1.00  0.00     0.292 C 
HETATM    4  N   UNL     1      28.191  42.781  53.936  1.00  0.00     0.095 N 
HETATM    5  C   UNL     1      28.021  42.230  52.564  1.00  0.00     0.292 C 
HETATM    6  C   UNL     1      27.270  43.136  51.558  1.00  0.00     0.153 C 
ENDROOT
BRANCH   4   7
HETATM    7  C   UNL     1      29.164  43.892  53.965  1.00  0.00     0.313 C 
BRANCH   7   8
HETATM    8  C   UNL     1      29.892  44.020  55.287  1.00  0.00    -0.001 A 
HETATM    9  C   UNL     1      29.569  44.964  56.277  1.00  0.00     0.070 A 
HETATM   10  C   UNL     1      30.256  45.105  57.474  1.00  0.00     0.012 A 
HETATM   11  N   UNL     1      28.563  45.898  56.330  1.00  0.00    -0.277 N 
HETATM   12  C   UNL     1      29.583  46.148  58.150  1.00  0.00     0.152 A 
HETATM   13  C   UNL     1      31.355  44.271  57.736  1.00  0.00     0.015 A 
HETATM   14  N   UNL     1      28.551  46.635  57.456  1.00  0.00    -0.186 NA
HETATM   15  C   UNL     1      31.722  43.327  56.770  1.00  0.00     0.002 A 
HETATM   16  C   UNL     1      31.010  43.211  55.573  1.00  0.00     0.011 A 
HETATM   17  H   UNL     1      27.844  46.041  55.627  1.00  0.00     0.189 HD
ENDBRANCH   7   8
ENDBRANCH   4   7
BRANCH   1  18
HETATM   18  C   UNL     1      25.091  44.116  51.166  1.00  0.00     0.064 A 
HETATM   19  C   UNL     1      25.168  45.424  50.626  1.00  0.00     0.097 A 
HETATM   20  C   UNL     1      24.247  45.853  49.657  1.00  0.00     0.081 A 
HETATM   21  C   UNL     1      23.218  45.014  49.255  1.00  0.00     0.119 A 
HETATM   22  C   UNL     1      23.084  43.748  49.793  1.00  0.00     0.044 A 
HETATM   23  F   UNL     1      22.344  45.438  48.333  1.00  0.00    -0.206 F 
HETATM   24  C   UNL     1      24.012  43.309  50.737  1.00  0.00     0.035 A 
BRANCH  19  25
HETATM   25  O   UNL     1      26.213  46.243  50.983  1.00  0.00    -0.354 OA
HETATM   26  C   UNL     1      26.104  47.574  50.480  1.00  0.00     0.210 C 
ENDBRANCH  19  25
ENDBRANCH   1  18
TORSDOF 4
ENDMDL
MODEL 7
REMARK VINA RESULT:      -8.1      4.014      6.010
REMARK  4 active torsions:
REMARK  status: ('A' for Active; 'I' for Inactive)
REMARK    1  A    between atoms: O_2  and  C_3 
REMARK    2  A    between atoms: C_4  and  N_5 
REMARK    3  A    between atoms: N_8  and  C_9 
REMARK    4  A    between atoms: C_9  and  C_10 
ROOT
HETATM    1  N   UNL     1      27.719  44.222  53.086  1.00  0.00    -0.375 N 
HETATM    2  C   UNL     1      26.355  43.730  53.343  1.00  0.00     0.153 C 
HETATM    3  C   UNL     1      25.470  43.920  52.084  1.00  0.00     0.292 C 
HETATM    4  N   UNL     1      25.999  43.319  50.831  1.00  0.00     0.095 N 
HETATM    5  C   UNL     1      27.398  43.793  50.657  1.00  0.00     0.292 C 
HETATM    6  C   UNL     1      28.331  43.617  51.880  1.00  0.00     0.153 C 
ENDROOT
BRANCH   4   7
HETATM    7  C   UNL     1      25.920  41.845  50.881  1.00  0.00     0.313 C 
BRANCH   7   8
HETATM    8  C   UNL     1      26.553  41.167  49.683  1.00  0.00    -0.001 A 
HETATM    9  C   UNL     1      27.606  40.240  49.767  1.00  0.00     0.070 A 
HETATM   10  C   UNL     1      28.208  39.643  48.669  1.00  0.00     0.012 A 
HETATM   11  N   UNL     1      28.244  39.707  50.860  1.00  0.00    -0.277 N 
HETATM   12  C   UNL     1      29.188  38.788  49.223  1.00  0.00     0.152 A 
HETATM   13  C   UNL     1      27.765  39.975  47.379  1.00  0.00     0.015 A 
HETATM   14  N   UNL     1      29.215  38.825  50.558  1.00  0.00    -0.186 NA
HETATM   15  C   UNL     1      26.729  40.907  47.248  1.00  0.00     0.002 A 
HETATM   16  C   UNL     1      26.143  41.492  48.375  1.00  0.00     0.011 A 
HETATM   17  H   UNL     1      28.023  39.899  51.833  1.00  0.00     0.189 HD
ENDBRANCH   7   8
ENDBRANCH   4   7
BRANCH   1  18
HETATM   18  C   UNL     1      28.618  44.386  54.158  1.00  0.00     0.064 A 
HETATM   19  C   UNL     1      28.577  45.415  55.131  1.00  0.00     0.097 A 
HETATM   20  C   UNL     1      29.518  45.452  56.172  1.00  0.00     0.081 A 
HETATM   21  C   UNL     1      30.533  44.507  56.228  1.00  0.00     0.119 A 
HETATM   22  C   UNL     1      30.632  43.515  55.270  1.00  0.00     0.044 A 
HETATM   23  F   UNL     1      31.427  44.558  57.224  1.00  0.00    -0.206 F 
HETATM   24  C   UNL     1      29.682  43.460  54.249  1.00  0.00     0.035 A 
BRANCH  19  25
HETATM   25  O   UNL     1      27.548  46.326  55.111  1.00  0.00    -0.354 OA
HETATM   26  C   UNL     1      27.955  47.654  54.791  1.00  0.00     0.210 C 
ENDBRANCH  19  25
ENDBRANCH   1  18
TORSDOF 4
ENDMDL
MODEL 8
REMARK VINA RESULT:      -8.1      4.198      8.662
REMARK  4 active torsions:
REMARK  status: ('A' for Active; 'I' for Inactive)
REMARK    1  A    between atoms: O_2  and  C_3 
REMARK    2  A    between atoms: C_4  and  N_5 
REMARK    3  A    between atoms: N_8  and  C_9 
REMARK    4  A    between atoms: C_9  and  C_10 
ROOT
HETATM    1  N   UNL     1      24.242  47.503  49.099  1.00  0.00    -0.375 N 
HETATM    2  C   UNL     1      23.565  46.199  49.219  1.00  0.00     0.153 C 
HETATM    3  C   UNL     1      24.604  45.050  49.180  1.00  0.00     0.292 C 
HETATM    4  N   UNL     1      25.705  45.144  50.175  1.00  0.00     0.095 N 
HETATM    5  C   UNL     1      26.306  46.500  50.057  1.00  0.00     0.292 C 
HETATM    6  C   UNL     1      25.314  47.688  50.103  1.00  0.00     0.153 C 
ENDROOT
BRANCH   4   7
HETATM    7  C   UNL     1      25.203  44.881  51.539  1.00  0.00     0.313 C 
BRANCH   7   8
HETATM    8  C   UNL     1      26.304  44.600  52.541  1.00  0.00    -0.001 A 
HETATM    9  C   UNL     1      26.950  43.358  52.675  1.00  0.00     0.070 A 
HETATM   10  C   UNL     1      27.934  43.090  53.615  1.00  0.00     0.012 A 
HETATM   11  N   UNL     1      26.809  42.194  51.960  1.00  0.00    -0.277 N 
HETATM   12  C   UNL     1      28.297  41.745  53.374  1.00  0.00     0.152 A 
HETATM   13  C   UNL     1      28.323  44.100  54.509  1.00  0.00     0.015 A 
HETATM   14  N   UNL     1      27.613  41.194  52.367  1.00  0.00    -0.186 NA
HETATM   15  C   UNL     1      27.694  45.347  54.422  1.00  0.00     0.002 A 
HETATM   16  C   UNL     1      26.704  45.587  53.464  1.00  0.00     0.011 A 
HETATM   17  H   UNL     1      26.194  42.053  51.164  1.00  0.00     0.189 HD
ENDBRANCH   7   8
ENDBRANCH   4   7
BRANCH   1  18
HETATM   18  C   UNL     1      23.484  48.664  48.854  1.00  0.00     0.064 A 
HETATM   19  C   UNL     1      23.888  49.775  48.072  1.00  0.00     0.097 A 
HETATM   20  C   UNL     1      23.025  50.866  47.880  1.00  0.00     0.081 A 
HETATM   21  C   UNL     1      21.784  50.890  48.501  1.00  0.00     0.119 A 
HETATM   22  C   UNL     1      21.375  49.846  49.308  1.00  0.00     0.044 A 
HETATM   23  F   UNL     1      20.973  51.940  48.313  1.00  0.00    -0.206 F 
HETATM   24  C   UNL     1      22.219  48.748  49.480  1.00  0.00     0.035 A 
BRANCH  19  25
HETATM   25  O   UNL     1      25.095  49.738  47.415  1.00  0.00    -0.354 OA
HETATM   26  C   UNL     1      26.172  50.318  48.149  1.00  0.00     0.210 C 
ENDBRANCH  19  25
ENDBRANCH   1  18
TORSDOF 4
ENDMDL
MODEL 9
REMARK VINA RESULT:      -8.0      3.062      4.126
REMARK  4 active torsions:
REMARK  status: ('A' for Active; 'I' for Inactive)
REMARK    1  A    between atoms: O_2  and  C_3 
REMARK    2  A    between atoms: C_4  and  N_5 
REMARK    3  A    between atoms: N_8  and  C_9 
REMARK    4  A    between atoms: C_9  and  C_10 
ROOT
HETATM    1  N   UNL     1      26.924  45.009  51.370  1.00  0.00    -0.375 N 
HETATM    2  C   UNL     1      25.745  45.524  52.089  1.00  0.00     0.153 C 
HETATM    3  C   UNL     1      25.587  47.046  51.839  1.00  0.00     0.292 C 
HETATM    4  N   UNL     1      25.533  47.460  50.412  1.00  0.00     0.095 N 
HETATM    5  C   UNL     1      26.705  46.858  49.722  1.00  0.00     0.292 C 
HETATM    6  C   UNL     1      26.905  45.337  49.926  1.00  0.00     0.153 C 
ENDROOT
BRANCH   4   7
HETATM    7  C   UNL     1      24.258  47.047  49.793  1.00  0.00     0.313 C 
BRANCH   7   8
HETATM    8  C   UNL     1      23.526  48.182  49.106  1.00  0.00    -0.001 A 
HETATM    9  C   UNL     1      22.152  48.169  48.809  1.00  0.00     0.070 A 
HETATM   10  C   UNL     1      21.487  49.193  48.151  1.00  0.00     0.012 A 
HETATM   11  N   UNL     1      21.184  47.234  49.089  1.00  0.00    -0.277 N 
HETATM   12  C   UNL     1      20.142  48.760  48.087  1.00  0.00     0.152 A 
HETATM   13  C   UNL     1      22.209  50.322  47.734  1.00  0.00     0.015 A 
HETATM   14  N   UNL     1      19.954  47.566  48.656  1.00  0.00    -0.186 NA
HETATM   15  C   UNL     1      23.584  50.370  47.995  1.00  0.00     0.002 A 
HETATM   16  C   UNL     1      24.225  49.321  48.659  1.00  0.00     0.011 A 
HETATM   17  H   UNL     1      21.321  46.368  49.602  1.00  0.00     0.189 HD
ENDBRANCH   7   8
ENDBRANCH   4   7
BRANCH   1  18
HETATM   18  C   UNL     1      27.408  43.718  51.655  1.00  0.00     0.064 A 
HETATM   19  C   UNL     1      26.723  42.499  51.420  1.00  0.00     0.097 A 
HETATM   20  C   UNL     1      27.329  41.269  51.723  1.00  0.00     0.081 A 
HETATM   21  C   UNL     1      28.587  41.237  52.306  1.00  0.00     0.119 A 
HETATM   22  C   UNL     1      29.266  42.407  52.591  1.00  0.00     0.044 A 
HETATM   23  F   UNL     1      29.151  40.057  52.594  1.00  0.00    -0.206 F 
HETATM   24  C   UNL     1      28.678  43.630  52.268  1.00  0.00     0.035 A 
BRANCH  19  25
HETATM   25  O   UNL     1      25.497  42.520  50.799  1.00  0.00    -0.354 OA
HETATM   26  C   UNL     1      25.338  41.517  49.797  1.00  0.00     0.210 C 
ENDBRANCH  19  25
ENDBRANCH   1  18
TORSDOF 4
ENDMDL
MODEL 10
REMARK VINA RESULT:      -8.0      4.714      7.366
REMARK  4 active torsions:
REMARK  status: ('A' for Active; 'I' for Inactive)
REMARK    1  A    between atoms: O_2  and  C_3 
REMARK    2  A    between atoms: C_4  and  N_5 
REMARK    3  A    between atoms: N_8  and  C_9 
REMARK    4  A    between atoms: C_9  and  C_10 
ROOT
HETATM    1  N   UNL     1      27.988  44.203  53.698  1.00  0.00    -0.375 N 
HETATM    2  C   UNL     1      28.351  44.007  52.284  1.00  0.00     0.153 C 
HETATM    3  C   UNL     1      29.168  42.700  52.117  1.00  0.00     0.292 C 
HETATM    4  N   UNL     1      28.530  41.469  52.653  1.00  0.00     0.095 N 
HETATM    5  C   UNL     1      28.123  41.746  54.057  1.00  0.00     0.292 C 
HETATM    6  C   UNL     1      27.293  43.033  54.282  1.00  0.00     0.153 C 
ENDROOT
BRANCH   4   7
HETATM    7  C   UNL     1      27.382  41.066  51.816  1.00  0.00     0.313 C 
BRANCH   7   8
HETATM    8  C   UNL     1      27.780  40.600  50.431  1.00  0.00    -0.001 A 
HETATM    9  C   UNL     1      28.693  39.562  50.180  1.00  0.00     0.070 A 
HETATM   10  C   UNL     1      29.084  39.156  48.912  1.00  0.00     0.012 A 
HETATM   11  N   UNL     1      29.363  38.731  51.045  1.00  0.00    -0.277 N 
HETATM   12  C   UNL     1      29.986  38.092  49.142  1.00  0.00     0.152 A 
HETATM   13  C   UNL     1      28.557  39.814  47.789  1.00  0.00     0.015 A 
HETATM   14  N   UNL     1      30.160  37.831  50.440  1.00  0.00    -0.186 NA
HETATM   15  C   UNL     1      27.655  40.866  47.993  1.00  0.00     0.002 A 
HETATM   16  C   UNL     1      27.282  41.251  49.284  1.00  0.00     0.011 A 
HETATM   17  H   UNL     1      29.277  38.728  52.057  1.00  0.00     0.189 HD
ENDBRANCH   7   8
ENDBRANCH   4   7
BRANCH   1  18
HETATM   18  C   UNL     1      27.469  45.442  54.123  1.00  0.00     0.064 A 
HETATM   19  C   UNL     1      26.341  46.105  53.580  1.00  0.00     0.097 A 
HETATM   20  C   UNL     1      25.906  47.329  54.113  1.00  0.00     0.081 A 
HETATM   21  C   UNL     1      26.611  47.929  55.146  1.00  0.00     0.119 A 
HETATM   22  C   UNL     1      27.742  47.334  55.671  1.00  0.00     0.044 A 
HETATM   23  F   UNL     1      26.187  49.099  55.641  1.00  0.00    -0.206 F 
HETATM   24  C   UNL     1      28.163  46.105  55.161  1.00  0.00     0.035 A 
BRANCH  19  25
HETATM   25  O   UNL     1      25.609  45.495  52.588  1.00  0.00    -0.354 OA
HETATM   26  C   UNL     1      25.176  46.382  51.559  1.00  0.00     0.210 C 
ENDBRANCH  19  25
ENDBRANCH   1  18
TORSDOF 4
ENDMDL
