MODEL 1
REMARK VINA RESULT:      -8.9      0.000      0.000
REMARK  7 active torsions:
REMARK  status: ('A' for Active; 'I' for Inactive)
REMARK    1  A    between atoms: C_2  and  C_3 
REMARK    2  A    between atoms: C_7  and  C_8 
REMARK       I    between atoms: C_8  and  N_9 
REMARK    3  A    between atoms: N_9  and  C_10 
REMARK    4  A    between atoms: C_10  and  C_11 
REMARK    5  A    between atoms: C_13  and  N_14 
REMARK       I    between atoms: N_14  and  C_15 
REMARK    6  A    between atoms: C_15  and  C_16 
REMARK    7  A    between atoms: C_20  and  C_21 
ROOT
HETATM    1  C   UNL     1      20.117  50.869  48.988  1.00  0.00    -0.035 A 
HETATM    2  C   UNL     1      19.303  51.958  49.329  1.00  0.00     0.059 A 
HETATM    3  C   UNL     1      18.039  51.729  49.871  1.00  0.00     0.130 A 
HETATM    4  N   UNL     1      17.557  50.488  50.044  1.00  0.00    -0.243 NA
HETATM    5  C   UNL     1      18.335  49.447  49.683  1.00  0.00     0.119 A 
HETATM    6  C   UNL     1      19.608  49.582  49.162  1.00  0.00     0.028 A 
ENDROOT
BRANCH   1   7
HETATM    7  C   UNL     1      21.507  51.086  48.461  1.00  0.00     0.161 C 
BRANCH   7   8
HETATM    8  N   UNL     1      22.436  50.112  48.978  1.00  0.00    -0.351 N 
HETATM    9  C   UNL     1      23.580  49.762  48.305  1.00  0.00     0.270 C 
HETATM   10  O   UNL     1      23.868  50.220  47.204  1.00  0.00    -0.266 OA
HETATM   11  H   UNL     1      22.204  49.642  49.839  1.00  0.00     0.163 HD
BRANCH   9  12
HETATM   12  C   UNL     1      24.431  48.829  48.995  1.00  0.00     0.119 A 
HETATM   13  N   UNL     1      25.791  48.982  49.020  1.00  0.00    -0.273 N 
HETATM   14  N   UNL     1      26.437  48.047  49.733  1.00  0.00    -0.178 NA
HETATM   15  H   UNL     1      26.328  49.719  48.574  1.00  0.00     0.189 HD
HETATM   16  C   UNL     1      25.467  47.244  50.189  1.00  0.00     0.064 A 
HETATM   17  C   UNL     1      24.194  47.694  49.746  1.00  0.00     0.066 A 
BRANCH  16  18
HETATM   18  C   UNL     1      25.772  46.044  51.074  1.00  0.00    -0.005 C 
HETATM   19  C   UNL     1      24.547  45.124  51.256  1.00  0.00     0.021 C 
HETATM   20  C   UNL     1      26.220  46.520  52.472  1.00  0.00     0.021 C 
HETATM   21  C   UNL     1      26.907  45.209  50.445  1.00  0.00     0.021 C 
ENDBRANCH  16  18
ENDBRANCH   9  12
ENDBRANCH   7   8
ENDBRANCH   1   7
BRANCH   3  22
HETATM   22  N   UNL     1      17.295  52.850  50.262  1.00  0.00    -0.306 N 
HETATM   23  C   UNL     1      15.967  53.069  49.968  1.00  0.00     0.275 C 
HETATM   24  O   UNL     1      15.241  52.345  49.297  1.00  0.00    -0.266 OA
HETATM   25  H   UNL     1      17.762  53.513  50.856  1.00  0.00     0.170 HD
BRANCH  23  26
HETATM   26  C   UNL     1      15.423  54.269  50.568  1.00  0.00     0.120 A 
HETATM   27  N   UNL     1      14.948  54.255  51.852  1.00  0.00    -0.273 N 
HETATM   28  H   UNL     1      14.921  53.455  52.477  1.00  0.00     0.189 HD
HETATM   29  N   UNL     1      14.509  55.445  52.288  1.00  0.00    -0.178 NA
HETATM   30  C   UNL     1      14.664  56.263  51.240  1.00  0.00     0.064 A 
HETATM   31  C   UNL     1      15.241  55.570  50.141  1.00  0.00     0.066 A 
BRANCH  30  32
HETATM   32  C   UNL     1      14.279  57.732  51.349  1.00  0.00    -0.005 C 
HETATM   33  C   UNL     1      14.453  58.413  49.977  1.00  0.00     0.021 C 
HETATM   34  C   UNL     1      12.811  57.900  51.793  1.00  0.00     0.021 C 
HETATM   35  C   UNL     1      15.163  58.462  52.383  1.00  0.00     0.021 C 
ENDBRANCH  30  32
ENDBRANCH  23  26
ENDBRANCH   3  22
TORSDOF 7
ENDMDL
MODEL 2
REMARK VINA RESULT:      -8.9      3.661      7.310
REMARK  7 active torsions:
REMARK  status: ('A' for Active; 'I' for Inactive)
REMARK    1  A    between atoms: C_2  and  C_3 
REMARK    2  A    between atoms: C_7  and  C_8 
REMARK       I    between atoms: C_8  and  N_9 
REMARK    3  A    between atoms: N_9  and  C_10 
REMARK    4  A    between atoms: C_10  and  C_11 
REMARK    5  A    between atoms: C_13  and  N_14 
REMARK       I    between atoms: N_14  and  C_15 
REMARK    6  A    between atoms: C_15  and  C_16 
REMARK    7  A    between atoms: C_20  and  C_21 
ROOT
HETATM    1  C   UNL     1      25.523  46.549  50.049  1.00  0.00    -0.035 A 
HETATM    2  C   UNL     1      24.237  47.107  50.080  1.00  0.00     0.059 A 
HETATM    3  C   UNL     1      24.040  48.408  49.622  1.00  0.00     0.130 A 
HETATM    4  N   UNL     1      25.059  49.166  49.184  1.00  0.00    -0.243 NA
HETATM    5  C   UNL     1      26.297  48.633  49.187  1.00  0.00     0.119 A 
HETATM    6  C   UNL     1      26.579  47.344  49.601  1.00  0.00     0.028 A 
ENDROOT
BRANCH   1   7
HETATM    7  C   UNL     1      25.753  45.128  50.477  1.00  0.00     0.161 C 
BRANCH   7   8
HETATM    8  N   UNL     1      26.696  45.041  51.564  1.00  0.00    -0.351 N 
HETATM    9  C   UNL     1      26.339  44.586  52.810  1.00  0.00     0.270 C 
HETATM   10  O   UNL     1      25.189  44.265  53.092  1.00  0.00    -0.266 OA
HETATM   11  H   UNL     1      27.635  45.373  51.409  1.00  0.00     0.163 HD
BRANCH   9  12
HETATM   12  C   UNL     1      27.417  44.495  53.758  1.00  0.00     0.119 A 
HETATM   13  N   UNL     1      28.192  43.372  53.858  1.00  0.00    -0.273 N 
HETATM   14  N   UNL     1      29.175  43.460  54.766  1.00  0.00    -0.178 NA
HETATM   15  H   UNL     1      28.098  42.518  53.316  1.00  0.00     0.189 HD
HETATM   16  C   UNL     1      29.038  44.685  55.289  1.00  0.00     0.064 A 
HETATM   17  C   UNL     1      27.946  45.367  54.690  1.00  0.00     0.066 A 
BRANCH  16  18
HETATM   18  C   UNL     1      29.982  45.205  56.364  1.00  0.00    -0.005 C 
HETATM   19  C   UNL     1      29.226  45.755  57.592  1.00  0.00     0.021 C 
HETATM   20  C   UNL     1      30.853  46.345  55.794  1.00  0.00     0.021 C 
HETATM   21  C   UNL     1      30.905  44.065  56.843  1.00  0.00     0.021 C 
ENDBRANCH  16  18
ENDBRANCH   9  12
ENDBRANCH   7   8
ENDBRANCH   1   7
BRANCH   3  22
HETATM   22  N   UNL     1      22.726  48.892  49.606  1.00  0.00    -0.306 N 
HETATM   23  C   UNL     1      22.359  50.214  49.736  1.00  0.00     0.275 C 
HETATM   24  O   UNL     1      23.112  51.163  49.919  1.00  0.00    -0.266 OA
HETATM   25  H   UNL     1      22.002  48.218  49.423  1.00  0.00     0.170 HD
BRANCH  23  26
HETATM   26  C   UNL     1      20.937  50.446  49.598  1.00  0.00     0.120 A 
HETATM   27  N   UNL     1      20.043  49.811  50.417  1.00  0.00    -0.273 N 
HETATM   28  H   UNL     1      20.264  49.150  51.156  1.00  0.00     0.189 HD
HETATM   29  N   UNL     1      18.763  50.150  50.201  1.00  0.00    -0.178 NA
HETATM   30  C   UNL     1      18.814  51.008  49.174  1.00  0.00     0.064 A 
HETATM   31  C   UNL     1      20.159  51.229  48.769  1.00  0.00     0.066 A 
BRANCH  30  32
HETATM   32  C   UNL     1      17.536  51.633  48.632  1.00  0.00    -0.005 C 
HETATM   33  C   UNL     1      17.102  52.794  49.549  1.00  0.00     0.021 C 
HETATM   34  C   UNL     1      17.738  52.188  47.207  1.00  0.00     0.021 C 
HETATM   35  C   UNL     1      16.394  50.595  48.569  1.00  0.00     0.021 C 
ENDBRANCH  30  32
ENDBRANCH  23  26
ENDBRANCH   3  22
TORSDOF 7
ENDMDL
MODEL 3
REMARK VINA RESULT:      -8.7      4.606     14.042
REMARK  7 active torsions:
REMARK  status: ('A' for Active; 'I' for Inactive)
REMARK    1  A    between atoms: C_2  and  C_3 
REMARK    2  A    between atoms: C_7  and  C_8 
REMARK       I    between atoms: C_8  and  N_9 
REMARK    3  A    between atoms: N_9  and  C_10 
REMARK    4  A    between atoms: C_10  and  C_11 
REMARK    5  A    between atoms: C_13  and  N_14 
REMARK       I    between atoms: N_14  and  C_15 
REMARK    6  A    between atoms: C_15  and  C_16 
REMARK    7  A    between atoms: C_20  and  C_21 
ROOT
HETATM    1  C   UNL     1      25.986  47.077  50.432  1.00  0.00    -0.035 A 
HETATM    2  C   UNL     1      26.466  45.828  50.015  1.00  0.00     0.059 A 
HETATM    3  C   UNL     1      26.695  44.828  50.958  1.00  0.00     0.130 A 
HETATM    4  N   UNL     1      26.504  45.037  52.271  1.00  0.00    -0.243 NA
HETATM    5  C   UNL     1      26.073  46.252  52.667  1.00  0.00     0.119 A 
HETATM    6  C   UNL     1      25.799  47.291  51.798  1.00  0.00     0.028 A 
ENDROOT
BRANCH   1   7
HETATM    7  C   UNL     1      25.672  48.152  49.430  1.00  0.00     0.161 C 
BRANCH   7   8
HETATM    8  N   UNL     1      24.285  48.540  49.477  1.00  0.00    -0.351 N 
HETATM    9  C   UNL     1      23.711  49.326  48.509  1.00  0.00     0.270 C 
HETATM   10  O   UNL     1      24.347  49.785  47.565  1.00  0.00    -0.266 OA
HETATM   11  H   UNL     1      23.737  48.260  50.276  1.00  0.00     0.163 HD
BRANCH   9  12
HETATM   12  C   UNL     1      22.300  49.560  48.669  1.00  0.00     0.119 A 
HETATM   13  N   UNL     1      21.530  48.769  49.478  1.00  0.00    -0.273 N 
HETATM   14  N   UNL     1      20.242  49.139  49.546  1.00  0.00    -0.178 NA
HETATM   15  H   UNL     1      21.840  47.967  50.018  1.00  0.00     0.189 HD
HETATM   16  C   UNL     1      20.160  50.210  48.746  1.00  0.00     0.064 A 
HETATM   17  C   UNL     1      21.426  50.506  48.172  1.00  0.00     0.066 A 
BRANCH  16  18
HETATM   18  C   UNL     1      18.852  50.963  48.549  1.00  0.00    -0.005 C 
HETATM   19  C   UNL     1      18.106  50.518  47.273  1.00  0.00     0.021 C 
HETATM   20  C   UNL     1      19.126  52.476  48.434  1.00  0.00     0.021 C 
HETATM   21  C   UNL     1      17.923  50.716  49.756  1.00  0.00     0.021 C 
ENDBRANCH  16  18
ENDBRANCH   9  12
ENDBRANCH   7   8
ENDBRANCH   1   7
BRANCH   3  22
HETATM   22  N   UNL     1      27.104  43.576  50.482  1.00  0.00    -0.306 N 
HETATM   23  C   UNL     1      26.310  42.452  50.406  1.00  0.00     0.275 C 
HETATM   24  O   UNL     1      25.144  42.358  50.770  1.00  0.00    -0.266 OA
HETATM   25  H   UNL     1      28.037  43.520  50.111  1.00  0.00     0.170 HD
BRANCH  23  26
HETATM   26  C   UNL     1      26.962  41.313  49.794  1.00  0.00     0.120 A 
HETATM   27  N   UNL     1      27.562  41.425  48.569  1.00  0.00    -0.273 N 
HETATM   28  H   UNL     1      27.606  42.260  47.993  1.00  0.00     0.189 HD
HETATM   29  N   UNL     1      28.158  40.302  48.144  1.00  0.00    -0.178 NA
HETATM   30  C   UNL     1      27.906  39.405  49.106  1.00  0.00     0.064 A 
HETATM   31  C   UNL     1      27.165  39.998  50.165  1.00  0.00     0.066 A 
BRANCH  30  32
HETATM   32  C   UNL     1      28.436  37.983  48.988  1.00  0.00    -0.005 C 
HETATM   33  C   UNL     1      29.731  37.847  49.813  1.00  0.00     0.021 C 
HETATM   34  C   UNL     1      27.414  36.953  49.513  1.00  0.00     0.021 C 
HETATM   35  C   UNL     1      28.743  37.625  47.518  1.00  0.00     0.021 C 
ENDBRANCH  30  32
ENDBRANCH  23  26
ENDBRANCH   3  22
TORSDOF 7
ENDMDL
MODEL 4
REMARK VINA RESULT:      -8.6      4.297     13.317
REMARK  7 active torsions:
REMARK  status: ('A' for Active; 'I' for Inactive)
REMARK    1  A    between atoms: C_2  and  C_3 
REMARK    2  A    between atoms: C_7  and  C_8 
REMARK       I    between atoms: C_8  and  N_9 
REMARK    3  A    between atoms: N_9  and  C_10 
REMARK    4  A    between atoms: C_10  and  C_11 
REMARK    5  A    between atoms: C_13  and  N_14 
REMARK       I    between atoms: N_14  and  C_15 
REMARK    6  A    between atoms: C_15  and  C_16 
REMARK    7  A    between atoms: C_20  and  C_21 
ROOT
HETATM    1  C   UNL     1      24.640  46.388  50.378  1.00  0.00    -0.035 A 
HETATM    2  C   UNL     1      25.542  46.273  51.445  1.00  0.00     0.059 A 
HETATM    3  C   UNL     1      25.656  45.061  52.123  1.00  0.00     0.130 A 
HETATM    4  N   UNL     1      24.894  44.000  51.808  1.00  0.00    -0.243 NA
HETATM    5  C   UNL     1      24.007  44.129  50.801  1.00  0.00     0.119 A 
HETATM    6  C   UNL     1      23.846  45.286  50.061  1.00  0.00     0.028 A 
ENDROOT
BRANCH   1   7
HETATM    7  C   UNL     1      24.543  47.664  49.591  1.00  0.00     0.161 C 
BRANCH   7   8
HETATM    8  N   UNL     1      23.224  48.241  49.665  1.00  0.00    -0.351 N 
HETATM    9  C   UNL     1      22.718  49.044  48.672  1.00  0.00     0.270 C 
HETATM   10  O   UNL     1      23.367  49.357  47.679  1.00  0.00    -0.266 OA
HETATM   11  H   UNL     1      22.681  48.085  50.500  1.00  0.00     0.163 HD
BRANCH   9  12
HETATM   12  C   UNL     1      21.361  49.478  48.871  1.00  0.00     0.119 A 
HETATM   13  N   UNL     1      20.578  48.953  49.863  1.00  0.00    -0.273 N 
HETATM   14  N   UNL     1      19.350  49.488  49.937  1.00  0.00    -0.178 NA
HETATM   15  H   UNL     1      20.841  48.232  50.529  1.00  0.00     0.189 HD
HETATM   16  C   UNL     1      19.320  50.394  48.952  1.00  0.00     0.064 A 
HETATM   17  C   UNL     1      20.558  50.418  48.255  1.00  0.00     0.066 A 
BRANCH  16  18
HETATM   18  C   UNL     1      18.092  51.255  48.694  1.00  0.00    -0.005 C 
HETATM   19  C   UNL     1      16.792  50.424  48.652  1.00  0.00     0.021 C 
HETATM   20  C   UNL     1      18.232  51.983  47.341  1.00  0.00     0.021 C 
HETATM   21  C   UNL     1      17.950  52.307  49.813  1.00  0.00     0.021 C 
ENDBRANCH  16  18
ENDBRANCH   9  12
ENDBRANCH   7   8
ENDBRANCH   1   7
BRANCH   3  22
HETATM   22  N   UNL     1      26.623  44.977  53.133  1.00  0.00    -0.306 N 
HETATM   23  C   UNL     1      27.842  44.344  53.021  1.00  0.00     0.275 C 
HETATM   24  O   UNL     1      28.256  43.730  52.045  1.00  0.00    -0.266 OA
HETATM   25  H   UNL     1      26.427  45.475  53.984  1.00  0.00     0.170 HD
BRANCH  23  26
HETATM   26  C   UNL     1      28.685  44.482  54.190  1.00  0.00     0.120 A 
HETATM   27  N   UNL     1      28.587  45.584  54.996  1.00  0.00    -0.273 N 
HETATM   28  H   UNL     1      27.961  46.373  54.867  1.00  0.00     0.189 HD
HETATM   29  N   UNL     1      29.402  45.559  56.061  1.00  0.00    -0.178 NA
HETATM   30  C   UNL     1      30.090  44.418  55.929  1.00  0.00     0.064 A 
HETATM   31  C   UNL     1      29.667  43.706  54.773  1.00  0.00     0.066 A 
BRANCH  30  32
HETATM   32  C   UNL     1      31.128  44.023  56.970  1.00  0.00    -0.005 C 
HETATM   33  C   UNL     1      30.954  42.534  57.331  1.00  0.00     0.021 C 
HETATM   34  C   UNL     1      32.564  44.233  56.446  1.00  0.00     0.021 C 
HETATM   35  C   UNL     1      30.975  44.867  58.254  1.00  0.00     0.021 C 
ENDBRANCH  30  32
ENDBRANCH  23  26
ENDBRANCH   3  22
TORSDOF 7
ENDMDL
MODEL 5
REMARK VINA RESULT:      -8.6      6.636     10.561
REMARK  7 active torsions:
REMARK  status: ('A' for Active; 'I' for Inactive)
REMARK    1  A    between atoms: C_2  and  C_3 
REMARK    2  A    between atoms: C_7  and  C_8 
REMARK       I    between atoms: C_8  and  N_9 
REMARK    3  A    between atoms: N_9  and  C_10 
REMARK    4  A    between atoms: C_10  and  C_11 
REMARK    5  A    between atoms: C_13  and  N_14 
REMARK       I    between atoms: N_14  and  C_15 
REMARK    6  A    between atoms: C_15  and  C_16 
REMARK    7  A    between atoms: C_20  and  C_21 
ROOT
HETATM    1  C   UNL     1      27.275  44.457  54.297  1.00  0.00    -0.035 A 
HETATM    2  C   UNL     1      26.337  44.958  53.383  1.00  0.00     0.059 A 
HETATM    3  C   UNL     1      26.207  46.335  53.216  1.00  0.00     0.130 A 
HETATM    4  N   UNL     1      26.932  47.207  53.936  1.00  0.00    -0.243 NA
HETATM    5  C   UNL     1      27.809  46.717  54.835  1.00  0.00     0.119 A 
HETATM    6  C   UNL     1      28.019  45.367  55.048  1.00  0.00     0.028 A 
ENDROOT
BRANCH   1   7
HETATM    7  C   UNL     1      27.479  42.976  54.451  1.00  0.00     0.161 C 
BRANCH   7   8
HETATM    8  N   UNL     1      27.203  42.265  53.228  1.00  0.00    -0.351 N 
HETATM    9  C   UNL     1      28.186  41.629  52.512  1.00  0.00     0.270 C 
HETATM   10  O   UNL     1      29.368  41.658  52.841  1.00  0.00    -0.266 OA
HETATM   11  H   UNL     1      26.261  42.283  52.869  1.00  0.00     0.163 HD
BRANCH   9  12
HETATM   12  C   UNL     1      27.728  40.908  51.355  1.00  0.00     0.119 A 
HETATM   13  N   UNL     1      26.445  40.443  51.261  1.00  0.00    -0.273 N 
HETATM   14  N   UNL     1      26.167  39.821  50.105  1.00  0.00    -0.178 NA
HETATM   15  H   UNL     1      25.712  40.537  51.957  1.00  0.00     0.189 HD
HETATM   16  C   UNL     1      27.314  39.871  49.415  1.00  0.00     0.064 A 
HETATM   17  C   UNL     1      28.320  40.539  50.162  1.00  0.00     0.066 A 
BRANCH  16  18
HETATM   18  C   UNL     1      27.431  39.284  48.015  1.00  0.00    -0.005 C 
HETATM   19  C   UNL     1      27.723  40.363  46.951  1.00  0.00     0.021 C 
HETATM   20  C   UNL     1      26.114  38.580  47.626  1.00  0.00     0.021 C 
HETATM   21  C   UNL     1      28.577  38.253  47.977  1.00  0.00     0.021 C 
ENDBRANCH  16  18
ENDBRANCH   9  12
ENDBRANCH   7   8
ENDBRANCH   1   7
BRANCH   3  22
HETATM   22  N   UNL     1      25.308  46.782  52.239  1.00  0.00    -0.306 N 
HETATM   23  C   UNL     1      25.510  46.716  50.878  1.00  0.00     0.275 C 
HETATM   24  O   UNL     1      26.510  46.293  50.310  1.00  0.00    -0.266 OA
HETATM   25  H   UNL     1      24.421  47.122  52.568  1.00  0.00     0.170 HD
BRANCH  23  26
HETATM   26  C   UNL     1      24.381  47.172  50.094  1.00  0.00     0.120 A 
HETATM   27  N   UNL     1      23.519  46.276  49.522  1.00  0.00    -0.273 N 
HETATM   28  H   UNL     1      23.577  45.264  49.576  1.00  0.00     0.189 HD
HETATM   29  N   UNL     1      22.501  46.841  48.858  1.00  0.00    -0.178 NA
HETATM   30  C   UNL     1      22.723  48.158  48.961  1.00  0.00     0.064 A 
HETATM   31  C   UNL     1      23.888  48.412  49.736  1.00  0.00     0.066 A 
BRANCH  30  32
HETATM   32  C   UNL     1      21.757  49.151  48.330  1.00  0.00    -0.005 C 
HETATM   33  C   UNL     1      20.912  49.819  49.433  1.00  0.00     0.021 C 
HETATM   34  C   UNL     1      22.508  50.255  47.556  1.00  0.00     0.021 C 
HETATM   35  C   UNL     1      20.810  48.448  47.334  1.00  0.00     0.021 C 
ENDBRANCH  30  32
ENDBRANCH  23  26
ENDBRANCH   3  22
TORSDOF 7
ENDMDL
MODEL 6
REMARK VINA RESULT:      -8.6      2.697     12.503
REMARK  7 active torsions:
REMARK  status: ('A' for Active; 'I' for Inactive)
REMARK    1  A    between atoms: C_2  and  C_3 
REMARK    2  A    between atoms: C_7  and  C_8 
REMARK       I    between atoms: C_8  and  N_9 
REMARK    3  A    between atoms: N_9  and  C_10 
REMARK    4  A    between atoms: C_10  and  C_11 
REMARK    5  A    between atoms: C_13  and  N_14 
REMARK       I    between atoms: N_14  and  C_15 
REMARK    6  A    between atoms: C_15  and  C_16 
REMARK    7  A    between atoms: C_20  and  C_21 
ROOT
HETATM    1  C   UNL     1      22.378  48.562  48.656  1.00  0.00    -0.035 A 
HETATM    2  C   UNL     1      23.247  47.608  49.204  1.00  0.00     0.059 A 
HETATM    3  C   UNL     1      24.570  47.955  49.471  1.00  0.00     0.130 A 
HETATM    4  N   UNL     1      25.054  49.174  49.183  1.00  0.00    -0.243 NA
HETATM    5  C   UNL     1      24.220  50.075  48.626  1.00  0.00     0.119 A 
HETATM    6  C   UNL     1      22.890  49.824  48.350  1.00  0.00     0.028 A 
ENDROOT
BRANCH   1   7
HETATM    7  C   UNL     1      20.932  48.234  48.415  1.00  0.00     0.161 C 
BRANCH   7   8
HETATM    8  N   UNL     1      20.074  49.360  48.689  1.00  0.00    -0.351 N 
HETATM    9  C   UNL     1      18.713  49.230  48.817  1.00  0.00     0.270 C 
HETATM   10  O   UNL     1      18.133  48.159  48.666  1.00  0.00    -0.266 OA
HETATM   11  H   UNL     1      20.490  50.277  48.738  1.00  0.00     0.163 HD
BRANCH   9  12
HETATM   12  C   UNL     1      18.015  50.440  49.161  1.00  0.00     0.119 A 
HETATM   13  N   UNL     1      18.650  51.485  49.775  1.00  0.00    -0.273 N 
HETATM   14  N   UNL     1      17.867  52.551  49.997  1.00  0.00    -0.178 NA
HETATM   15  H   UNL     1      19.626  51.525  50.052  1.00  0.00     0.189 HD
HETATM   16  C   UNL     1      16.669  52.192  49.519  1.00  0.00     0.064 A 
HETATM   17  C   UNL     1      16.715  50.874  48.990  1.00  0.00     0.066 A 
BRANCH  16  18
HETATM   18  C   UNL     1      15.476  53.137  49.558  1.00  0.00    -0.005 C 
HETATM   19  C   UNL     1      15.870  54.559  50.012  1.00  0.00     0.021 C 
HETATM   20  C   UNL     1      14.412  52.604  50.540  1.00  0.00     0.021 C 
HETATM   21  C   UNL     1      14.849  53.241  48.152  1.00  0.00     0.021 C 
ENDBRANCH  16  18
ENDBRANCH   9  12
ENDBRANCH   7   8
ENDBRANCH   1   7
BRANCH   3  22
HETATM   22  N   UNL     1      25.376  46.988  50.086  1.00  0.00    -0.306 N 
HETATM   23  C   UNL     1      25.541  46.833  51.445  1.00  0.00     0.275 C 
HETATM   24  O   UNL     1      25.044  47.529  52.323  1.00  0.00    -0.266 OA
HETATM   25  H   UNL     1      25.817  46.319  49.479  1.00  0.00     0.170 HD
BRANCH  23  26
HETATM   26  C   UNL     1      26.364  45.700  51.811  1.00  0.00     0.120 A 
HETATM   27  N   UNL     1      26.480  44.621  50.977  1.00  0.00    -0.273 N 
HETATM   28  H   UNL     1      26.028  44.504  50.075  1.00  0.00     0.189 HD
HETATM   29  N   UNL     1      27.304  43.664  51.428  1.00  0.00    -0.178 NA
HETATM   30  C   UNL     1      27.714  44.110  52.622  1.00  0.00     0.064 A 
HETATM   31  C   UNL     1      27.156  45.388  52.900  1.00  0.00     0.066 A 
BRANCH  30  32
HETATM   32  C   UNL     1      28.687  43.288  53.456  1.00  0.00    -0.005 C 
HETATM   33  C   UNL     1      28.101  41.882  53.694  1.00  0.00     0.021 C 
HETATM   34  C   UNL     1      30.049  43.135  52.748  1.00  0.00     0.021 C 
HETATM   35  C   UNL     1      28.947  43.957  54.823  1.00  0.00     0.021 C 
ENDBRANCH  30  32
ENDBRANCH  23  26
ENDBRANCH   3  22
TORSDOF 7
ENDMDL
MODEL 7
REMARK VINA RESULT:      -8.5      2.558      3.724
REMARK  7 active torsions:
REMARK  status: ('A' for Active; 'I' for Inactive)
REMARK    1  A    between atoms: C_2  and  C_3 
REMARK    2  A    between atoms: C_7  and  C_8 
REMARK       I    between atoms: C_8  and  N_9 
REMARK    3  A    between atoms: N_9  and  C_10 
REMARK    4  A    between atoms: C_10  and  C_11 
REMARK    5  A    between atoms: C_13  and  N_14 
REMARK       I    between atoms: N_14  and  C_15 
REMARK    6  A    between atoms: C_15  and  C_16 
REMARK    7  A    between atoms: C_20  and  C_21 
ROOT
HETATM    1  C   UNL     1      21.512  48.297  48.579  1.00  0.00    -0.035 A 
HETATM    2  C   UNL     1      20.503  49.269  48.569  1.00  0.00     0.059 A 
HETATM    3  C   UNL     1      19.220  48.925  48.148  1.00  0.00     0.130 A 
HETATM    4  N   UNL     1      18.925  47.689  47.713  1.00  0.00    -0.243 NA
HETATM    5  C   UNL     1      19.910  46.768  47.696  1.00  0.00     0.119 A 
HETATM    6  C   UNL     1      21.203  47.017  48.118  1.00  0.00     0.028 A 
ENDROOT
BRANCH   1   7
HETATM    7  C   UNL     1      22.888  48.625  49.086  1.00  0.00     0.161 C 
BRANCH   7   8
HETATM    8  N   UNL     1      23.392  47.603  49.970  1.00  0.00    -0.351 N 
HETATM    9  C   UNL     1      24.711  47.546  50.347  1.00  0.00     0.270 C 
HETATM   10  O   UNL     1      25.554  48.332  49.927  1.00  0.00    -0.266 OA
HETATM   11  H   UNL     1      22.758  46.882  50.276  1.00  0.00     0.163 HD
BRANCH   9  12
HETATM   12  C   UNL     1      25.031  46.507  51.289  1.00  0.00     0.119 A 
HETATM   13  N   UNL     1      24.303  45.351  51.357  1.00  0.00    -0.273 N 
HETATM   14  N   UNL     1      24.751  44.470  52.264  1.00  0.00    -0.178 NA
HETATM   15  H   UNL     1      23.493  45.108  50.794  1.00  0.00     0.189 HD
HETATM   16  C   UNL     1      25.810  45.072  52.820  1.00  0.00     0.064 A 
HETATM   17  C   UNL     1      26.020  46.353  52.242  1.00  0.00     0.066 A 
BRANCH  16  18
HETATM   18  C   UNL     1      26.637  44.395  53.904  1.00  0.00    -0.005 C 
HETATM   19  C   UNL     1      27.537  43.275  53.341  1.00  0.00     0.021 C 
HETATM   20  C   UNL     1      25.706  43.767  54.962  1.00  0.00     0.021 C 
HETATM   21  C   UNL     1      27.544  45.436  54.593  1.00  0.00     0.021 C 
ENDBRANCH  16  18
ENDBRANCH   9  12
ENDBRANCH   7   8
ENDBRANCH   1   7
BRANCH   3  22
HETATM   22  N   UNL     1      18.230  49.914  48.226  1.00  0.00    -0.306 N 
HETATM   23  C   UNL     1      17.776  50.500  49.387  1.00  0.00     0.275 C 
HETATM   24  O   UNL     1      18.135  50.230  50.527  1.00  0.00    -0.266 OA
HETATM   25  H   UNL     1      17.873  50.260  47.352  1.00  0.00     0.170 HD
BRANCH  23  26
HETATM   26  C   UNL     1      16.809  51.555  49.173  1.00  0.00     0.120 A 
HETATM   27  N   UNL     1      16.150  51.669  47.979  1.00  0.00    -0.273 N 
HETATM   28  H   UNL     1      16.265  51.069  47.167  1.00  0.00     0.189 HD
HETATM   29  N   UNL     1      15.257  52.668  47.936  1.00  0.00    -0.178 NA
HETATM   30  C   UNL     1      15.361  53.260  49.133  1.00  0.00     0.064 A 
HETATM   31  C   UNL     1      16.318  52.591  49.944  1.00  0.00     0.066 A 
BRANCH  30  32
HETATM   32  C   UNL     1      14.484  54.456  49.476  1.00  0.00    -0.005 C 
HETATM   33  C   UNL     1      13.937  55.083  48.179  1.00  0.00     0.021 C 
HETATM   34  C   UNL     1      13.288  54.044  50.360  1.00  0.00     0.021 C 
HETATM   35  C   UNL     1      15.284  55.528  50.248  1.00  0.00     0.021 C 
ENDBRANCH  30  32
ENDBRANCH  23  26
ENDBRANCH   3  22
TORSDOF 7
ENDMDL
MODEL 8
REMARK VINA RESULT:      -8.5      8.448     11.676
REMARK  7 active torsions:
REMARK  status: ('A' for Active; 'I' for Inactive)
REMARK    1  A    between atoms: C_2  and  C_3 
REMARK    2  A    between atoms: C_7  and  C_8 
REMARK       I    between atoms: C_8  and  N_9 
REMARK    3  A    between atoms: N_9  and  C_10 
REMARK    4  A    between atoms: C_10  and  C_11 
REMARK    5  A    between atoms: C_13  and  N_14 
REMARK       I    between atoms: N_14  and  C_15 
REMARK    6  A    between atoms: C_15  and  C_16 
REMARK    7  A    between atoms: C_20  and  C_21 
ROOT
HETATM    1  C   UNL     1      28.806  44.151  53.945  1.00  0.00    -0.035 A 
HETATM    2  C   UNL     1      27.755  44.288  53.028  1.00  0.00     0.059 A 
HETATM    3  C   UNL     1      26.801  45.286  53.218  1.00  0.00     0.130 A 
HETATM    4  N   UNL     1      26.837  46.105  54.282  1.00  0.00    -0.243 NA
HETATM    5  C   UNL     1      27.833  45.945  55.176  1.00  0.00     0.119 A 
HETATM    6  C   UNL     1      28.832  44.998  55.053  1.00  0.00     0.028 A 
ENDROOT
BRANCH   1   7
HETATM    7  C   UNL     1      29.882  43.124  53.731  1.00  0.00     0.161 C 
BRANCH   7   8
HETATM    8  N   UNL     1      29.627  42.315  52.565  1.00  0.00    -0.351 N 
HETATM    9  C   UNL     1      28.893  41.156  52.623  1.00  0.00     0.270 C 
HETATM   10  O   UNL     1      28.442  40.710  53.673  1.00  0.00    -0.266 OA
HETATM   11  H   UNL     1      30.047  42.592  51.691  1.00  0.00     0.163 HD
BRANCH   9  12
HETATM   12  C   UNL     1      28.674  40.509  51.357  1.00  0.00     0.119 A 
HETATM   13  N   UNL     1      29.147  39.251  51.102  1.00  0.00    -0.273 N 
HETATM   14  N   UNL     1      28.829  38.777  49.888  1.00  0.00    -0.178 NA
HETATM   15  H   UNL     1      29.685  38.665  51.733  1.00  0.00     0.189 HD
HETATM   16  C   UNL     1      28.126  39.764  49.319  1.00  0.00     0.064 A 
HETATM   17  C   UNL     1      28.008  40.871  50.202  1.00  0.00     0.066 A 
BRANCH  16  18
HETATM   18  C   UNL     1      27.548  39.629  47.917  1.00  0.00    -0.005 C 
HETATM   19  C   UNL     1      26.004  39.598  47.920  1.00  0.00     0.021 C 
HETATM   20  C   UNL     1      28.046  38.322  47.265  1.00  0.00     0.021 C 
HETATM   21  C   UNL     1      27.999  40.822  47.050  1.00  0.00     0.021 C 
ENDBRANCH  16  18
ENDBRANCH   9  12
ENDBRANCH   7   8
ENDBRANCH   1   7
BRANCH   3  22
HETATM   22  N   UNL     1      25.813  45.428  52.235  1.00  0.00    -0.306 N 
HETATM   23  C   UNL     1      25.614  46.549  51.459  1.00  0.00     0.275 C 
HETATM   24  O   UNL     1      26.236  47.602  51.527  1.00  0.00    -0.266 OA
HETATM   25  H   UNL     1      25.249  44.617  52.046  1.00  0.00     0.170 HD
BRANCH  23  26
HETATM   26  C   UNL     1      24.577  46.395  50.461  1.00  0.00     0.120 A 
HETATM   27  N   UNL     1      24.077  47.483  49.798  1.00  0.00    -0.273 N 
HETATM   28  H   UNL     1      24.355  48.451  49.930  1.00  0.00     0.189 HD
HETATM   29  N   UNL     1      23.150  47.186  48.876  1.00  0.00    -0.178 NA
HETATM   30  C   UNL     1      23.004  45.858  48.963  1.00  0.00     0.064 A 
HETATM   31  C   UNL     1      23.886  45.318  49.939  1.00  0.00     0.066 A 
BRANCH  30  32
HETATM   32  C   UNL     1      22.026  45.131  48.050  1.00  0.00    -0.005 C 
HETATM   33  C   UNL     1      22.021  45.803  46.663  1.00  0.00     0.021 C 
HETATM   34  C   UNL     1      22.414  43.648  47.872  1.00  0.00     0.021 C 
HETATM   35  C   UNL     1      20.595  45.170  48.628  1.00  0.00     0.021 C 
ENDBRANCH  30  32
ENDBRANCH  23  26
ENDBRANCH   3  22
TORSDOF 7
ENDMDL
MODEL 9
REMARK VINA RESULT:      -8.5      2.679     11.871
REMARK  7 active torsions:
REMARK  status: ('A' for Active; 'I' for Inactive)
REMARK    1  A    between atoms: C_2  and  C_3 
REMARK    2  A    between atoms: C_7  and  C_8 
REMARK       I    between atoms: C_8  and  N_9 
REMARK    3  A    between atoms: N_9  and  C_10 
REMARK    4  A    between atoms: C_10  and  C_11 
REMARK    5  A    between atoms: C_13  and  N_14 
REMARK       I    between atoms: N_14  and  C_15 
REMARK    6  A    between atoms: C_15  and  C_16 
REMARK    7  A    between atoms: C_20  and  C_21 
ROOT
HETATM    1  C   UNL     1      21.135  49.262  48.091  1.00  0.00    -0.035 A 
HETATM    2  C   UNL     1      21.964  48.358  48.769  1.00  0.00     0.059 A 
HETATM    3  C   UNL     1      23.105  48.825  49.420  1.00  0.00     0.130 A 
HETATM    4  N   UNL     1      23.459  50.120  49.386  1.00  0.00    -0.243 NA
HETATM    5  C   UNL     1      22.672  50.977  48.704  1.00  0.00     0.119 A 
HETATM    6  C   UNL     1      21.512  50.605  48.052  1.00  0.00     0.028 A 
ENDROOT
BRANCH   1   7
HETATM    7  C   UNL     1      19.867  48.795  47.434  1.00  0.00     0.161 C 
BRANCH   7   8
HETATM    8  N   UNL     1      18.810  49.768  47.556  1.00  0.00    -0.351 N 
HETATM    9  C   UNL     1      17.988  49.823  48.655  1.00  0.00     0.270 C 
HETATM   10  O   UNL     1      18.071  49.026  49.584  1.00  0.00    -0.266 OA
HETATM   11  H   UNL     1      18.645  50.392  46.782  1.00  0.00     0.163 HD
BRANCH   9  12
HETATM   12  C   UNL     1      17.033  50.898  48.648  1.00  0.00     0.119 A 
HETATM   13  N   UNL     1      16.305  51.205  47.530  1.00  0.00    -0.273 N 
HETATM   14  N   UNL     1      15.435  52.212  47.699  1.00  0.00    -0.178 NA
HETATM   15  H   UNL     1      16.358  50.746  46.626  1.00  0.00     0.189 HD
HETATM   16  C   UNL     1      15.600  52.587  48.973  1.00  0.00     0.064 A 
HETATM   17  C   UNL     1      16.596  51.794  49.605  1.00  0.00     0.066 A 
BRANCH  16  18
HETATM   18  C   UNL     1      14.777  53.708  49.590  1.00  0.00    -0.005 C 
HETATM   19  C   UNL     1      13.852  54.391  48.559  1.00  0.00     0.021 C 
HETATM   20  C   UNL     1      15.710  54.788  50.176  1.00  0.00     0.021 C 
HETATM   21  C   UNL     1      13.894  53.145  50.723  1.00  0.00     0.021 C 
ENDBRANCH  16  18
ENDBRANCH   9  12
ENDBRANCH   7   8
ENDBRANCH   1   7
BRANCH   3  22
HETATM   22  N   UNL     1      23.860  47.892  50.143  1.00  0.00    -0.306 N 
HETATM   23  C   UNL     1      25.218  47.695  50.020  1.00  0.00     0.275 C 
HETATM   24  O   UNL     1      25.969  48.272  49.242  1.00  0.00    -0.266 OA
HETATM   25  H   UNL     1      23.370  47.372  50.851  1.00  0.00     0.170 HD
BRANCH  23  26
HETATM   26  C   UNL     1      25.758  46.726  50.950  1.00  0.00     0.120 A 
HETATM   27  N   UNL     1      26.274  45.540  50.503  1.00  0.00    -0.273 N 
HETATM   28  H   UNL     1      26.325  45.229  49.537  1.00  0.00     0.189 HD
HETATM   29  N   UNL     1      26.772  44.758  51.471  1.00  0.00    -0.178 NA
HETATM   30  C   UNL     1      26.538  45.436  52.602  1.00  0.00     0.064 A 
HETATM   31  C   UNL     1      25.911  46.681  52.322  1.00  0.00     0.066 A 
BRANCH  30  32
HETATM   32  C   UNL     1      26.976  44.866  53.944  1.00  0.00    -0.005 C 
HETATM   33  C   UNL     1      28.174  43.919  53.734  1.00  0.00     0.021 C 
HETATM   34  C   UNL     1      27.404  45.982  54.920  1.00  0.00     0.021 C 
HETATM   35  C   UNL     1      25.830  44.078  54.613  1.00  0.00     0.021 C 
ENDBRANCH  30  32
ENDBRANCH  23  26
ENDBRANCH   3  22
TORSDOF 7
ENDMDL
MODEL 10
REMARK VINA RESULT:      -8.5      6.560     10.138
REMARK  7 active torsions:
REMARK  status: ('A' for Active; 'I' for Inactive)
REMARK    1  A    between atoms: C_2  and  C_3 
REMARK    2  A    between atoms: C_7  and  C_8 
REMARK       I    between atoms: C_8  and  N_9 
REMARK    3  A    between atoms: N_9  and  C_10 
REMARK    4  A    between atoms: C_10  and  C_11 
REMARK    5  A    between atoms: C_13  and  N_14 
REMARK       I    between atoms: N_14  and  C_15 
REMARK    6  A    between atoms: C_15  and  C_16 
REMARK    7  A    between atoms: C_20  and  C_21 
ROOT
HETATM    1  C   UNL     1      25.842  41.346  49.923  1.00  0.00    -0.035 A 
HETATM    2  C   UNL     1      25.523  42.710  49.871  1.00  0.00     0.059 A 
HETATM    3  C   UNL     1      24.758  43.198  48.813  1.00  0.00     0.130 A 
HETATM    4  N   UNL     1      24.345  42.403  47.813  1.00  0.00    -0.243 NA
HETATM    5  C   UNL     1      24.683  41.098  47.854  1.00  0.00     0.119 A 
HETATM    6  C   UNL     1      25.417  40.526  48.877  1.00  0.00     0.028 A 
ENDROOT
BRANCH   1   7
HETATM    7  C   UNL     1      26.611  40.782  51.084  1.00  0.00     0.161 C 
BRANCH   7   8
HETATM    8  N   UNL     1      26.899  41.787  52.076  1.00  0.00    -0.351 N 
HETATM    9  C   UNL     1      28.023  41.739  52.863  1.00  0.00     0.270 C 
HETATM   10  O   UNL     1      28.833  40.820  52.805  1.00  0.00    -0.266 OA
HETATM   11  H   UNL     1      26.223  42.520  52.223  1.00  0.00     0.163 HD
BRANCH   9  12
HETATM   12  C   UNL     1      28.194  42.858  53.751  1.00  0.00     0.119 A 
HETATM   13  N   UNL     1      27.138  43.642  54.129  1.00  0.00    -0.273 N 
HETATM   14  N   UNL     1      27.459  44.623  54.986  1.00  0.00    -0.178 NA
HETATM   15  H   UNL     1      26.171  43.541  53.838  1.00  0.00     0.189 HD
HETATM   16  C   UNL     1      28.778  44.484  55.174  1.00  0.00     0.064 A 
HETATM   17  C   UNL     1      29.281  43.394  54.415  1.00  0.00     0.066 A 
BRANCH  16  18
HETATM   18  C   UNL     1      29.553  45.402  56.108  1.00  0.00    -0.005 C 
HETATM   19  C   UNL     1      28.683  45.926  57.271  1.00  0.00     0.021 C 
HETATM   20  C   UNL     1      30.084  46.623  55.328  1.00  0.00     0.021 C 
HETATM   21  C   UNL     1      30.749  44.639  56.713  1.00  0.00     0.021 C 
ENDBRANCH  16  18
ENDBRANCH   9  12
ENDBRANCH   7   8
ENDBRANCH   1   7
BRANCH   3  22
HETATM   22  N   UNL     1      24.406  44.554  48.846  1.00  0.00    -0.306 N 
HETATM   23  C   UNL     1      23.149  45.046  49.120  1.00  0.00     0.275 C 
HETATM   24  O   UNL     1      22.141  44.385  49.343  1.00  0.00    -0.266 OA
HETATM   25  H   UNL     1      25.153  45.214  48.716  1.00  0.00     0.170 HD
BRANCH  23  26
HETATM   26  C   UNL     1      23.082  46.491  49.172  1.00  0.00     0.120 A 
HETATM   27  N   UNL     1      23.939  47.202  49.968  1.00  0.00    -0.273 N 
HETATM   28  H   UNL     1      24.661  46.820  50.572  1.00  0.00     0.189 HD
HETATM   29  N   UNL     1      23.788  48.532  49.887  1.00  0.00    -0.178 NA
HETATM   30  C   UNL     1      22.766  48.702  49.038  1.00  0.00     0.064 A 
HETATM   31  C   UNL     1      22.298  47.448  48.558  1.00  0.00     0.066 A 
BRANCH  30  32
HETATM   32  C   UNL     1      22.292  50.102  48.677  1.00  0.00    -0.005 C 
HETATM   33  C   UNL     1      21.829  50.834  49.952  1.00  0.00     0.021 C 
HETATM   34  C   UNL     1      23.419  50.929  48.023  1.00  0.00     0.021 C 
HETATM   35  C   UNL     1      21.116  50.050  47.678  1.00  0.00     0.021 C 
ENDBRANCH  30  32
ENDBRANCH  23  26
ENDBRANCH   3  22
TORSDOF 7
ENDMDL
