MODEL 1
REMARK VINA RESULT:      -9.5      0.000      0.000
REMARK  3 active torsions:
REMARK  status: ('A' for Active; 'I' for Inactive)
REMARK    1  A    between atoms: C_5  and  C_6 
REMARK       I    between atoms: C_6  and  N_7 
REMARK    2  A    between atoms: N_7  and  C_8 
REMARK    3  A    between atoms: C_15  and  C_16 
REMARK       I    between atoms: C_16  and  N_17 
ROOT
HETATM    1  C   UNL     1      27.731  41.775  51.920  1.00  0.00     0.036 A 
HETATM    2  C   UNL     1      28.474  40.606  51.705  1.00  0.00     0.046 A 
HETATM    3  C   UNL     1      28.132  39.748  50.635  1.00  0.00     0.030 A 
HETATM    4  C   UNL     1      27.059  40.086  49.821  1.00  0.00     0.063 A 
HETATM    5  N   UNL     1      26.974  39.082  48.896  1.00  0.00    -0.277 N 
HETATM    6  H   UNL     1      26.304  38.999  48.141  1.00  0.00     0.189 HD
HETATM    7  N   UNL     1      27.898  38.119  49.034  1.00  0.00    -0.168 NA
HETATM    8  C   UNL     1      28.622  38.515  50.107  1.00  0.00     0.156 A 
HETATM    9  C   UNL     1      26.296  41.239  50.005  1.00  0.00     0.034 A 
HETATM   10  C   UNL     1      26.656  42.074  51.070  1.00  0.00     0.032 A 
ENDROOT
BRANCH   1  11
HETATM   11  N   UNL     1      27.990  42.701  52.955  1.00  0.00    -0.322 N 
HETATM   12  C   UNL     1      29.171  43.362  53.245  1.00  0.00     0.276 C 
HETATM   13  O   UNL     1      30.201  43.219  52.597  1.00  0.00    -0.266 OA
HETATM   14  H   UNL     1      27.203  42.899  53.559  1.00  0.00     0.169 HD
BRANCH  12  15
HETATM   15  C   UNL     1      29.110  44.264  54.382  1.00  0.00     0.150 A 
HETATM   16  N   UNL     1      29.928  44.181  55.506  1.00  0.00    -0.299 N 
HETATM   17  C   UNL     1      29.551  45.217  56.361  1.00  0.00     0.136 A 
HETATM   18  C   UNL     1      30.965  43.296  55.829  1.00  0.00     0.099 A 
HETATM   19  C   UNL     1      30.250  45.352  57.594  1.00  0.00     0.051 A 
HETATM   20  N   UNL     1      28.572  45.928  55.859  1.00  0.00    -0.216 NA
HETATM   21  C   UNL     1      31.242  44.496  57.901  1.00  0.00     0.005 A 
HETATM   22  C   UNL     1      31.622  43.429  56.994  1.00  0.00     0.018 A 
HETATM   23  C   UNL     1      28.288  45.351  54.651  1.00  0.00     0.161 A 
HETATM   24 CL   UNL     1      27.033  45.995  53.686  1.00  0.00    -0.060 Cl
ENDBRANCH  12  15
ENDBRANCH   1  11
BRANCH   8  25
HETATM   25  C   UNL     1      29.754  37.717  50.596  1.00  0.00     0.270 C 
HETATM   26  N   UNL     1      29.388  36.598  51.294  1.00  0.00    -0.365 N 
HETATM   27  H   UNL     1      28.401  36.407  51.420  1.00  0.00     0.159 HD
HETATM   28  H   UNL     1      30.096  35.989  51.670  1.00  0.00     0.159 HD
HETATM   29  O   UNL     1      30.936  37.993  50.416  1.00  0.00    -0.266 OA
ENDBRANCH   8  25
TORSDOF 3
ENDMDL
MODEL 2
REMARK VINA RESULT:      -9.2      1.942      2.966
REMARK  3 active torsions:
REMARK  status: ('A' for Active; 'I' for Inactive)
REMARK    1  A    between atoms: C_5  and  C_6 
REMARK       I    between atoms: C_6  and  N_7 
REMARK    2  A    between atoms: N_7  and  C_8 
REMARK    3  A    between atoms: C_15  and  C_16 
REMARK       I    between atoms: C_16  and  N_17 
ROOT
HETATM    1  C   UNL     1      27.599  41.753  51.537  1.00  0.00     0.036 A 
HETATM    2  C   UNL     1      28.458  40.686  51.242  1.00  0.00     0.046 A 
HETATM    3  C   UNL     1      28.025  39.663  50.369  1.00  0.00     0.030 A 
HETATM    4  C   UNL     1      26.750  39.740  49.824  1.00  0.00     0.063 A 
HETATM    5  N   UNL     1      26.623  38.628  49.038  1.00  0.00    -0.277 N 
HETATM    6  H   UNL     1      25.819  38.357  48.485  1.00  0.00     0.189 HD
HETATM    7  N   UNL     1      27.703  37.832  49.021  1.00  0.00    -0.168 NA
HETATM    8  C   UNL     1      28.580  38.457  49.841  1.00  0.00     0.156 A 
HETATM    9  C   UNL     1      25.868  40.784  50.095  1.00  0.00     0.034 A 
HETATM   10  C   UNL     1      26.320  41.788  50.962  1.00  0.00     0.032 A 
ENDROOT
BRANCH   1  11
HETATM   11  N   UNL     1      27.932  42.828  52.392  1.00  0.00    -0.322 N 
HETATM   12  C   UNL     1      27.764  42.922  53.763  1.00  0.00     0.276 C 
HETATM   13  O   UNL     1      27.280  42.027  54.447  1.00  0.00    -0.266 OA
HETATM   14  H   UNL     1      28.343  43.630  51.932  1.00  0.00     0.169 HD
BRANCH  12  15
HETATM   15  C   UNL     1      28.219  44.168  54.355  1.00  0.00     0.150 A 
HETATM   16  N   UNL     1      27.508  45.365  54.328  1.00  0.00    -0.299 N 
HETATM   17  C   UNL     1      28.282  46.314  54.996  1.00  0.00     0.136 A 
HETATM   18  C   UNL     1      26.255  45.683  53.787  1.00  0.00     0.099 A 
HETATM   19  C   UNL     1      27.767  47.637  55.109  1.00  0.00     0.051 A 
HETATM   20  N   UNL     1      29.408  45.803  55.430  1.00  0.00    -0.216 NA
HETATM   21  C   UNL     1      26.565  47.936  54.583  1.00  0.00     0.005 A 
HETATM   22  C   UNL     1      25.772  46.932  53.899  1.00  0.00     0.018 A 
HETATM   23  C   UNL     1      29.384  44.492  55.039  1.00  0.00     0.161 A 
HETATM   24 CL   UNL     1      30.709  43.479  55.411  1.00  0.00    -0.060 Cl
ENDBRANCH  12  15
ENDBRANCH   1  11
BRANCH   8  25
HETATM   25  C   UNL     1      29.914  37.896  50.097  1.00  0.00     0.270 C 
HETATM   26  N   UNL     1      30.901  38.423  49.309  1.00  0.00    -0.365 N 
HETATM   27  H   UNL     1      30.653  39.133  48.630  1.00  0.00     0.159 HD
HETATM   28  H   UNL     1      31.849  38.098  49.411  1.00  0.00     0.159 HD
HETATM   29  O   UNL     1      30.162  37.033  50.932  1.00  0.00    -0.266 OA
ENDBRANCH   8  25
TORSDOF 3
ENDMDL
MODEL 3
REMARK VINA RESULT:      -9.1      5.701      7.750
REMARK  3 active torsions:
REMARK  status: ('A' for Active; 'I' for Inactive)
REMARK    1  A    between atoms: C_5  and  C_6 
REMARK       I    between atoms: C_6  and  N_7 
REMARK    2  A    between atoms: N_7  and  C_8 
REMARK    3  A    between atoms: C_15  and  C_16 
REMARK       I    between atoms: C_16  and  N_17 
ROOT
HETATM    1  C   UNL     1      26.181  44.670  50.299  1.00  0.00     0.036 A 
HETATM    2  C   UNL     1      27.177  44.393  51.246  1.00  0.00     0.046 A 
HETATM    3  C   UNL     1      27.320  43.079  51.744  1.00  0.00     0.030 A 
HETATM    4  C   UNL     1      26.462  42.089  51.283  1.00  0.00     0.063 A 
HETATM    5  N   UNL     1      26.839  40.949  51.936  1.00  0.00    -0.277 N 
HETATM    6  H   UNL     1      26.430  40.026  51.845  1.00  0.00     0.189 HD
HETATM    7  N   UNL     1      27.868  41.106  52.783  1.00  0.00    -0.168 NA
HETATM    8  C   UNL     1      28.177  42.419  52.677  1.00  0.00     0.156 A 
HETATM    9  C   UNL     1      25.459  42.327  50.344  1.00  0.00     0.034 A 
HETATM   10  C   UNL     1      25.338  43.637  49.863  1.00  0.00     0.032 A 
ENDROOT
BRANCH   1  11
HETATM   11  N   UNL     1      25.954  45.945  49.734  1.00  0.00    -0.322 N 
HETATM   12  C   UNL     1      25.467  47.086  50.349  1.00  0.00     0.276 C 
HETATM   13  O   UNL     1      25.155  47.134  51.534  1.00  0.00    -0.266 OA
HETATM   14  H   UNL     1      26.178  46.024  48.751  1.00  0.00     0.169 HD
BRANCH  12  15
HETATM   15  C   UNL     1      25.355  48.250  49.488  1.00  0.00     0.150 A 
HETATM   16  N   UNL     1      24.154  48.774  49.013  1.00  0.00    -0.299 N 
HETATM   17  C   UNL     1      24.476  49.878  48.223  1.00  0.00     0.136 A 
HETATM   18  C   UNL     1      22.828  48.377  49.223  1.00  0.00     0.099 A 
HETATM   19  C   UNL     1      23.409  50.599  47.617  1.00  0.00     0.051 A 
HETATM   20  N   UNL     1      25.770  50.076  48.171  1.00  0.00    -0.216 NA
HETATM   21  C   UNL     1      22.136  50.210  47.818  1.00  0.00     0.005 A 
HETATM   22  C   UNL     1      21.823  49.062  48.649  1.00  0.00     0.018 A 
HETATM   23  C   UNL     1      26.319  49.083  48.936  1.00  0.00     0.161 A 
HETATM   24 CL   UNL     1      28.018  48.992  49.103  1.00  0.00    -0.060 Cl
ENDBRANCH  12  15
ENDBRANCH   1  11
BRANCH   8  25
HETATM   25  C   UNL     1      29.273  43.007  53.460  1.00  0.00     0.270 C 
HETATM   26  N   UNL     1      30.521  42.686  53.000  1.00  0.00    -0.365 N 
HETATM   27  H   UNL     1      30.599  42.088  52.187  1.00  0.00     0.159 HD
HETATM   28  H   UNL     1      31.335  43.042  53.474  1.00  0.00     0.159 HD
HETATM   29  O   UNL     1      29.124  43.727  54.441  1.00  0.00    -0.266 OA
ENDBRANCH   8  25
TORSDOF 3
ENDMDL
MODEL 4
REMARK VINA RESULT:      -9.1      5.309      7.209
REMARK  3 active torsions:
REMARK  status: ('A' for Active; 'I' for Inactive)
REMARK    1  A    between atoms: C_5  and  C_6 
REMARK       I    between atoms: C_6  and  N_7 
REMARK    2  A    between atoms: N_7  and  C_8 
REMARK    3  A    between atoms: C_15  and  C_16 
REMARK       I    between atoms: C_16  and  N_17 
ROOT
HETATM    1  C   UNL     1      25.187  46.169  51.168  1.00  0.00     0.036 A 
HETATM    2  C   UNL     1      24.819  47.312  50.445  1.00  0.00     0.046 A 
HETATM    3  C   UNL     1      23.862  47.205  49.411  1.00  0.00     0.030 A 
HETATM    4  C   UNL     1      23.310  45.962  49.133  1.00  0.00     0.063 A 
HETATM    5  N   UNL     1      22.437  46.174  48.103  1.00  0.00    -0.277 N 
HETATM    6  H   UNL     1      21.854  45.486  47.641  1.00  0.00     0.189 HD
HETATM    7  N   UNL     1      22.369  47.447  47.684  1.00  0.00    -0.168 NA
HETATM    8  C   UNL     1      23.246  48.099  48.482  1.00  0.00     0.156 A 
HETATM    9  C   UNL     1      23.653  44.803  49.829  1.00  0.00     0.034 A 
HETATM   10  C   UNL     1      24.602  44.934  50.851  1.00  0.00     0.032 A 
ENDROOT
BRANCH   1  11
HETATM   11  N   UNL     1      26.129  46.164  52.221  1.00  0.00    -0.322 N 
HETATM   12  C   UNL     1      26.012  45.600  53.480  1.00  0.00     0.276 C 
HETATM   13  O   UNL     1      25.015  44.995  53.858  1.00  0.00    -0.266 OA
HETATM   14  H   UNL     1      26.999  46.640  52.020  1.00  0.00     0.169 HD
BRANCH  12  15
HETATM   15  C   UNL     1      27.172  45.764  54.340  1.00  0.00     0.150 A 
HETATM   16  N   UNL     1      28.185  44.821  54.493  1.00  0.00    -0.299 N 
HETATM   17  C   UNL     1      29.101  45.352  55.401  1.00  0.00     0.136 A 
HETATM   18  C   UNL     1      28.374  43.565  53.903  1.00  0.00     0.099 A 
HETATM   19  C   UNL     1      30.247  44.572  55.727  1.00  0.00     0.051 A 
HETATM   20  N   UNL     1      28.737  46.539  55.819  1.00  0.00    -0.216 NA
HETATM   21  C   UNL     1      30.420  43.364  55.161  1.00  0.00     0.005 A 
HETATM   22  C   UNL     1      29.458  42.833  54.213  1.00  0.00     0.018 A 
HETATM   23  C   UNL     1      27.554  46.800  55.182  1.00  0.00     0.161 A 
HETATM   24 CL   UNL     1      26.742  48.273  55.486  1.00  0.00    -0.060 Cl
ENDBRANCH  12  15
ENDBRANCH   1  11
BRANCH   8  25
HETATM   25  C   UNL     1      23.472  49.544  48.343  1.00  0.00     0.270 C 
HETATM   26  N   UNL     1      22.928  50.293  49.351  1.00  0.00    -0.365 N 
HETATM   27  H   UNL     1      22.426  49.818  50.091  1.00  0.00     0.159 HD
HETATM   28  H   UNL     1      23.031  51.295  49.340  1.00  0.00     0.159 HD
HETATM   29  O   UNL     1      24.088  50.070  47.422  1.00  0.00    -0.266 OA
ENDBRANCH   8  25
TORSDOF 3
ENDMDL
MODEL 5
REMARK VINA RESULT:      -8.8      6.087      8.093
REMARK  3 active torsions:
REMARK  status: ('A' for Active; 'I' for Inactive)
REMARK    1  A    between atoms: C_5  and  C_6 
REMARK       I    between atoms: C_6  and  N_7 
REMARK    2  A    between atoms: N_7  and  C_8 
REMARK    3  A    between atoms: C_15  and  C_16 
REMARK       I    between atoms: C_16  and  N_17 
ROOT
HETATM    1  C   UNL     1      25.811  47.194  50.107  1.00  0.00     0.036 A 
HETATM    2  C   UNL     1      24.437  47.285  49.842  1.00  0.00     0.046 A 
HETATM    3  C   UNL     1      23.938  48.390  49.117  1.00  0.00     0.030 A 
HETATM    4  C   UNL     1      24.827  49.366  48.685  1.00  0.00     0.063 A 
HETATM    5  N   UNL     1      24.062  50.289  48.027  1.00  0.00    -0.277 N 
HETATM    6  H   UNL     1      24.378  51.140  47.578  1.00  0.00     0.189 HD
HETATM    7  N   UNL     1      22.751  50.001  47.991  1.00  0.00    -0.168 NA
HETATM    8  C   UNL     1      22.657  48.830  48.662  1.00  0.00     0.156 A 
HETATM    9  C   UNL     1      26.198  49.310  48.930  1.00  0.00     0.034 A 
HETATM   10  C   UNL     1      26.670  48.204  49.649  1.00  0.00     0.032 A 
ENDROOT
BRANCH   1  11
HETATM   11  N   UNL     1      26.414  46.132  50.818  1.00  0.00    -0.322 N 
HETATM   12  C   UNL     1      26.200  45.742  52.129  1.00  0.00     0.276 C 
HETATM   13  O   UNL     1      25.409  46.302  52.879  1.00  0.00    -0.266 OA
HETATM   14  H   UNL     1      27.091  45.595  50.293  1.00  0.00     0.169 HD
BRANCH  12  15
HETATM   15  C   UNL     1      26.978  44.596  52.566  1.00  0.00     0.150 A 
HETATM   16  N   UNL     1      27.924  44.623  53.589  1.00  0.00    -0.299 N 
HETATM   17  C   UNL     1      28.446  43.334  53.693  1.00  0.00     0.136 A 
HETATM   18  C   UNL     1      28.346  45.662  54.428  1.00  0.00     0.099 A 
HETATM   19  C   UNL     1      29.442  43.096  54.683  1.00  0.00     0.051 A 
HETATM   20  N   UNL     1      27.904  42.519  52.823  1.00  0.00    -0.216 NA
HETATM   21  C   UNL     1      29.847  44.099  55.483  1.00  0.00     0.005 A 
HETATM   22  C   UNL     1      29.285  45.431  55.362  1.00  0.00     0.018 A 
HETATM   23  C   UNL     1      27.009  43.281  52.122  1.00  0.00     0.161 A 
HETATM   24 CL   UNL     1      26.100  42.566  50.863  1.00  0.00    -0.060 Cl
ENDBRANCH  12  15
ENDBRANCH   1  11
BRANCH   8  25
HETATM   25  C   UNL     1      21.362  48.164  48.850  1.00  0.00     0.270 C 
HETATM   26  N   UNL     1      20.570  48.743  49.804  1.00  0.00    -0.365 N 
HETATM   27  H   UNL     1      20.919  49.557  50.296  1.00  0.00     0.159 HD
HETATM   28  H   UNL     1      19.663  48.354  50.004  1.00  0.00     0.159 HD
HETATM   29  O   UNL     1      20.986  47.176  48.227  1.00  0.00    -0.266 OA
ENDBRANCH   8  25
TORSDOF 3
ENDMDL
MODEL 6
REMARK VINA RESULT:      -8.7      2.613      4.029
REMARK  3 active torsions:
REMARK  status: ('A' for Active; 'I' for Inactive)
REMARK    1  A    between atoms: C_5  and  C_6 
REMARK       I    between atoms: C_6  and  N_7 
REMARK    2  A    between atoms: N_7  and  C_8 
REMARK    3  A    between atoms: C_15  and  C_16 
REMARK       I    between atoms: C_16  and  N_17 
ROOT
HETATM    1  C   UNL     1      26.699  42.842  52.152  1.00  0.00     0.036 A 
HETATM    2  C   UNL     1      25.661  43.303  51.330  1.00  0.00     0.046 A 
HETATM    3  C   UNL     1      25.154  42.466  50.311  1.00  0.00     0.030 A 
HETATM    4  C   UNL     1      25.702  41.200  50.147  1.00  0.00     0.063 A 
HETATM    5  N   UNL     1      25.019  40.641  49.103  1.00  0.00    -0.277 N 
HETATM    6  H   UNL     1      25.153  39.718  48.706  1.00  0.00     0.189 HD
HETATM    7  N   UNL     1      24.072  41.430  48.571  1.00  0.00    -0.168 NA
HETATM    8  C   UNL     1      24.143  42.563  49.307  1.00  0.00     0.156 A 
HETATM    9  C   UNL     1      26.735  40.708  50.944  1.00  0.00     0.034 A 
HETATM   10  C   UNL     1      27.220  41.556  51.949  1.00  0.00     0.032 A 
ENDROOT
BRANCH   1  11
HETATM   11  N   UNL     1      27.276  43.594  53.200  1.00  0.00    -0.322 N 
HETATM   12  C   UNL     1      28.599  43.964  53.368  1.00  0.00     0.276 C 
HETATM   13  O   UNL     1      29.488  43.670  52.577  1.00  0.00    -0.266 OA
HETATM   14  H   UNL     1      26.630  43.894  53.918  1.00  0.00     0.169 HD
BRANCH  12  15
HETATM   15  C   UNL     1      28.873  44.749  54.559  1.00  0.00     0.150 A 
HETATM   16  N   UNL     1      29.789  44.398  55.548  1.00  0.00    -0.299 N 
HETATM   17  C   UNL     1      29.751  45.404  56.514  1.00  0.00     0.136 A 
HETATM   18  C   UNL     1      30.646  43.296  55.662  1.00  0.00     0.099 A 
HETATM   19  C   UNL     1      30.610  45.279  57.642  1.00  0.00     0.051 A 
HETATM   20  N   UNL     1      28.891  46.342  56.203  1.00  0.00    -0.216 NA
HETATM   21  C   UNL     1      31.428  44.215  57.749  1.00  0.00     0.005 A 
HETATM   22  C   UNL     1      31.456  43.184  56.729  1.00  0.00     0.018 A 
HETATM   23  C   UNL     1      28.342  45.950  55.013  1.00  0.00     0.161 A 
HETATM   24 CL   UNL     1      27.143  46.922  54.279  1.00  0.00    -0.060 Cl
ENDBRANCH  12  15
ENDBRANCH   1  11
BRANCH   8  25
HETATM   25  C   UNL     1      23.253  43.701  49.038  1.00  0.00     0.270 C 
HETATM   26  N   UNL     1      22.340  43.940  50.029  1.00  0.00    -0.365 N 
HETATM   27  H   UNL     1      22.340  43.340  50.844  1.00  0.00     0.159 HD
HETATM   28  H   UNL     1      21.685  44.700  49.932  1.00  0.00     0.159 HD
HETATM   29  O   UNL     1      23.293  44.398  48.030  1.00  0.00    -0.266 OA
ENDBRANCH   8  25
TORSDOF 3
ENDMDL
MODEL 7
REMARK VINA RESULT:      -8.7      5.032      6.695
REMARK  3 active torsions:
REMARK  status: ('A' for Active; 'I' for Inactive)
REMARK    1  A    between atoms: C_5  and  C_6 
REMARK       I    between atoms: C_6  and  N_7 
REMARK    2  A    between atoms: N_7  and  C_8 
REMARK    3  A    between atoms: C_15  and  C_16 
REMARK       I    between atoms: C_16  and  N_17 
ROOT
HETATM    1  C   UNL     1      25.770  45.792  50.737  1.00  0.00     0.036 A 
HETATM    2  C   UNL     1      24.535  45.333  50.257  1.00  0.00     0.046 A 
HETATM    3  C   UNL     1      23.712  46.202  49.506  1.00  0.00     0.030 A 
HETATM    4  C   UNL     1      24.149  47.498  49.264  1.00  0.00     0.063 A 
HETATM    5  N   UNL     1      23.156  48.085  48.529  1.00  0.00    -0.277 N 
HETATM    6  H   UNL     1      23.136  49.033  48.172  1.00  0.00     0.189 HD
HETATM    7  N   UNL     1      22.110  47.286  48.269  1.00  0.00    -0.168 NA
HETATM    8  C   UNL     1      22.437  46.117  48.867  1.00  0.00     0.156 A 
HETATM    9  C   UNL     1      25.369  47.990  49.726  1.00  0.00     0.034 A 
HETATM   10  C   UNL     1      26.169  47.109  50.466  1.00  0.00     0.032 A 
ENDROOT
BRANCH   1  11
HETATM   11  N   UNL     1      26.670  45.007  51.493  1.00  0.00    -0.322 N 
HETATM   12  C   UNL     1      26.586  44.644  52.825  1.00  0.00     0.276 C 
HETATM   13  O   UNL     1      25.662  44.976  53.559  1.00  0.00    -0.266 OA
HETATM   14  H   UNL     1      27.479  44.674  50.985  1.00  0.00     0.169 HD
BRANCH  12  15
HETATM   15  C   UNL     1      27.678  43.817  53.309  1.00  0.00     0.150 A 
HETATM   16  N   UNL     1      28.615  44.217  54.259  1.00  0.00    -0.299 N 
HETATM   17  C   UNL     1      29.491  43.146  54.442  1.00  0.00     0.136 A 
HETATM   18  C   UNL     1      28.753  45.414  54.972  1.00  0.00     0.099 A 
HETATM   19  C   UNL     1      30.551  43.304  55.379  1.00  0.00     0.051 A 
HETATM   20  N   UNL     1      29.173  42.125  53.686  1.00  0.00    -0.216 NA
HETATM   21  C   UNL     1      30.681  44.458  56.058  1.00  0.00     0.005 A 
HETATM   22  C   UNL     1      29.755  45.557  55.857  1.00  0.00     0.018 A 
HETATM   23  C   UNL     1      28.069  42.525  52.983  1.00  0.00     0.161 A 
HETATM   24 CL   UNL     1      27.356  41.455  51.857  1.00  0.00    -0.060 Cl
ENDBRANCH  12  15
ENDBRANCH   1  11
BRANCH   8  25
HETATM   25  C   UNL     1      21.536  44.958  48.815  1.00  0.00     0.270 C 
HETATM   26  N   UNL     1      20.280  45.206  49.297  1.00  0.00    -0.365 N 
HETATM   27  H   UNL     1      20.067  46.134  49.644  1.00  0.00     0.159 HD
HETATM   28  H   UNL     1      19.592  44.470  49.304  1.00  0.00     0.159 HD
HETATM   29  O   UNL     1      21.843  43.851  48.385  1.00  0.00    -0.266 OA
ENDBRANCH   8  25
TORSDOF 3
ENDMDL
MODEL 8
REMARK VINA RESULT:      -8.7      4.131      8.232
REMARK  3 active torsions:
REMARK  status: ('A' for Active; 'I' for Inactive)
REMARK    1  A    between atoms: C_5  and  C_6 
REMARK       I    between atoms: C_6  and  N_7 
REMARK    2  A    between atoms: N_7  and  C_8 
REMARK    3  A    between atoms: C_15  and  C_16 
REMARK       I    between atoms: C_16  and  N_17 
ROOT
HETATM    1  C   UNL     1      27.589  43.940  52.397  1.00  0.00     0.036 A 
HETATM    2  C   UNL     1      27.772  44.707  53.556  1.00  0.00     0.046 A 
HETATM    3  C   UNL     1      28.872  44.442  54.401  1.00  0.00     0.030 A 
HETATM    4  C   UNL     1      29.749  43.420  54.062  1.00  0.00     0.063 A 
HETATM    5  N   UNL     1      30.691  43.405  55.053  1.00  0.00    -0.277 N 
HETATM    6  H   UNL     1      31.489  42.786  55.132  1.00  0.00     0.189 HD
HETATM    7  N   UNL     1      30.507  44.328  56.010  1.00  0.00    -0.168 NA
HETATM    8  C   UNL     1      29.385  44.978  55.623  1.00  0.00     0.156 A 
HETATM    9  C   UNL     1      29.600  42.636  52.919  1.00  0.00     0.034 A 
HETATM   10  C   UNL     1      28.502  42.918  52.095  1.00  0.00     0.032 A 
ENDROOT
BRANCH   1  11
HETATM   11  N   UNL     1      26.527  44.122  51.482  1.00  0.00    -0.322 N 
HETATM   12  C   UNL     1      26.558  44.718  50.234  1.00  0.00     0.276 C 
HETATM   13  O   UNL     1      27.574  45.187  49.734  1.00  0.00    -0.266 OA
HETATM   14  H   UNL     1      25.631  43.769  51.792  1.00  0.00     0.169 HD
BRANCH  12  15
HETATM   15  C   UNL     1      25.287  44.743  49.531  1.00  0.00     0.150 A 
HETATM   16  N   UNL     1      24.475  45.867  49.399  1.00  0.00    -0.299 N 
HETATM   17  C   UNL     1      23.354  45.476  48.667  1.00  0.00     0.136 A 
HETATM   18  C   UNL     1      24.642  47.184  49.847  1.00  0.00     0.099 A 
HETATM   19  C   UNL     1      22.361  46.459  48.390  1.00  0.00     0.051 A 
HETATM   20  N   UNL     1      23.406  44.208  48.340  1.00  0.00    -0.216 NA
HETATM   21  C   UNL     1      22.525  47.721  48.828  1.00  0.00     0.005 A 
HETATM   22  C   UNL     1      23.703  48.108  49.581  1.00  0.00     0.018 A 
HETATM   23  C   UNL     1      24.581  43.747  48.869  1.00  0.00     0.161 A 
HETATM   24 CL   UNL     1      25.006  42.104  48.666  1.00  0.00    -0.060 Cl
ENDBRANCH  12  15
ENDBRANCH   1  11
BRANCH   8  25
HETATM   25  C   UNL     1      28.834  46.084  56.417  1.00  0.00     0.270 C 
HETATM   26  N   UNL     1      29.184  46.049  57.740  1.00  0.00    -0.365 N 
HETATM   27  H   UNL     1      29.772  45.291  58.066  1.00  0.00     0.159 HD
HETATM   28  H   UNL     1      28.851  46.766  58.364  1.00  0.00     0.159 HD
HETATM   29  O   UNL     1      28.123  46.979  55.973  1.00  0.00    -0.266 OA
ENDBRANCH   8  25
TORSDOF 3
ENDMDL
MODEL 9
REMARK VINA RESULT:      -8.7      5.473      8.499
REMARK  3 active torsions:
REMARK  status: ('A' for Active; 'I' for Inactive)
REMARK    1  A    between atoms: C_5  and  C_6 
REMARK       I    between atoms: C_6  and  N_7 
REMARK    2  A    between atoms: N_7  and  C_8 
REMARK    3  A    between atoms: C_15  and  C_16 
REMARK       I    between atoms: C_16  and  N_17 
ROOT
HETATM    1  C   UNL     1      26.130  46.200  52.610  1.00  0.00     0.036 A 
HETATM    2  C   UNL     1      26.864  45.009  52.701  1.00  0.00     0.046 A 
HETATM    3  C   UNL     1      27.820  44.857  53.730  1.00  0.00     0.030 A 
HETATM    4  C   UNL     1      28.013  45.898  54.628  1.00  0.00     0.063 A 
HETATM    5  N   UNL     1      28.983  45.462  55.487  1.00  0.00    -0.277 N 
HETATM    6  H   UNL     1      29.377  45.965  56.274  1.00  0.00     0.189 HD
HETATM    7  N   UNL     1      29.441  44.227  55.230  1.00  0.00    -0.168 NA
HETATM    8  C   UNL     1      28.733  43.838  54.145  1.00  0.00     0.156 A 
HETATM    9  C   UNL     1      27.304  47.097  54.567  1.00  0.00     0.034 A 
HETATM   10  C   UNL     1      26.359  47.224  53.540  1.00  0.00     0.032 A 
ENDROOT
BRANCH   1  11
HETATM   11  N   UNL     1      25.149  46.456  51.625  1.00  0.00    -0.322 N 
HETATM   12  C   UNL     1      25.327  46.692  50.273  1.00  0.00     0.276 C 
HETATM   13  O   UNL     1      26.425  46.706  49.729  1.00  0.00    -0.266 OA
HETATM   14  H   UNL     1      24.196  46.468  51.963  1.00  0.00     0.169 HD
BRANCH  12  15
HETATM   15  C   UNL     1      24.104  46.915  49.520  1.00  0.00     0.150 A 
HETATM   16  N   UNL     1      23.717  48.139  48.981  1.00  0.00    -0.299 N 
HETATM   17  C   UNL     1      22.492  47.935  48.345  1.00  0.00     0.136 A 
HETATM   18  C   UNL     1      24.344  49.392  48.991  1.00  0.00     0.099 A 
HETATM   19  C   UNL     1      21.879  49.048  47.704  1.00  0.00     0.051 A 
HETATM   20  N   UNL     1      22.094  46.690  48.448  1.00  0.00    -0.216 NA
HETATM   21  C   UNL     1      22.484  50.250  47.720  1.00  0.00     0.005 A 
HETATM   22  C   UNL     1      23.761  50.439  48.382  1.00  0.00     0.018 A 
HETATM   23  C   UNL     1      23.069  46.058  49.171  1.00  0.00     0.161 A 
HETATM   24 CL   UNL     1      22.900  44.397  49.536  1.00  0.00    -0.060 Cl
ENDBRANCH  12  15
ENDBRANCH   1  11
BRANCH   8  25
HETATM   25  C   UNL     1      28.939  42.517  53.536  1.00  0.00     0.270 C 
HETATM   26  N   UNL     1      30.116  42.398  52.847  1.00  0.00    -0.365 N 
HETATM   27  H   UNL     1      30.737  43.197  52.806  1.00  0.00     0.159 HD
HETATM   28  H   UNL     1      30.344  41.528  52.394  1.00  0.00     0.159 HD
HETATM   29  O   UNL     1      28.153  41.579  53.615  1.00  0.00    -0.266 OA
ENDBRANCH   8  25
TORSDOF 3
ENDMDL
MODEL 10
REMARK VINA RESULT:      -8.6      2.278      8.266
REMARK  3 active torsions:
REMARK  status: ('A' for Active; 'I' for Inactive)
REMARK    1  A    between atoms: C_5  and  C_6 
REMARK       I    between atoms: C_6  and  N_7 
REMARK    2  A    between atoms: N_7  and  C_8 
REMARK    3  A    between atoms: C_15  and  C_16 
REMARK       I    between atoms: C_16  and  N_17 
ROOT
HETATM    1  C   UNL     1      28.874  43.468  53.083  1.00  0.00     0.036 A 
HETATM    2  C   UNL     1      28.128  44.562  53.544  1.00  0.00     0.046 A 
HETATM    3  C   UNL     1      28.485  45.186  54.760  1.00  0.00     0.030 A 
HETATM    4  C   UNL     1      29.571  44.696  55.473  1.00  0.00     0.063 A 
HETATM    5  N   UNL     1      29.665  45.490  56.583  1.00  0.00    -0.277 N 
HETATM    6  H   UNL     1      30.347  45.421  57.330  1.00  0.00     0.189 HD
HETATM    7  N   UNL     1      28.737  46.456  56.656  1.00  0.00    -0.168 NA
HETATM    8  C   UNL     1      27.998  46.282  55.537  1.00  0.00     0.156 A 
HETATM    9  C   UNL     1      30.335  43.610  55.047  1.00  0.00     0.034 A 
HETATM   10  C   UNL     1      29.963  43.008  53.838  1.00  0.00     0.032 A 
ENDROOT
BRANCH   1  11
HETATM   11  N   UNL     1      28.606  42.774  51.881  1.00  0.00    -0.322 N 
HETATM   12  C   UNL     1      27.987  41.547  51.715  1.00  0.00     0.276 C 
HETATM   13  O   UNL     1      27.565  40.871  52.647  1.00  0.00    -0.266 OA
HETATM   14  H   UNL     1      28.913  43.242  51.039  1.00  0.00     0.169 HD
BRANCH  12  15
HETATM   15  C   UNL     1      27.854  41.105  50.337  1.00  0.00     0.150 A 
HETATM   16  N   UNL     1      28.405  39.934  49.823  1.00  0.00    -0.299 N 
HETATM   17  C   UNL     1      28.056  39.879  48.473  1.00  0.00     0.136 A 
HETATM   18  C   UNL     1      29.161  38.925  50.432  1.00  0.00     0.099 A 
HETATM   19  C   UNL     1      28.502  38.760  47.714  1.00  0.00     0.051 A 
HETATM   20  N   UNL     1      27.340  40.916  48.115  1.00  0.00    -0.216 NA
HETATM   21  C   UNL     1      29.232  37.796  48.304  1.00  0.00     0.005 A 
HETATM   22  C   UNL     1      29.577  37.869  49.711  1.00  0.00     0.018 A 
HETATM   23  C   UNL     1      27.215  41.677  49.245  1.00  0.00     0.161 A 
HETATM   24 CL   UNL     1      26.347  43.148  49.176  1.00  0.00    -0.060 Cl
ENDBRANCH  12  15
ENDBRANCH   1  11
BRANCH   8  25
HETATM   25  C   UNL     1      26.857  47.157  55.236  1.00  0.00     0.270 C 
HETATM   26  N   UNL     1      27.073  48.476  55.527  1.00  0.00    -0.365 N 
HETATM   27  H   UNL     1      27.969  48.747  55.917  1.00  0.00     0.159 HD
HETATM   28  H   UNL     1      26.346  49.152  55.356  1.00  0.00     0.159 HD
HETATM   29  O   UNL     1      25.790  46.778  54.764  1.00  0.00    -0.266 OA
ENDBRANCH   8  25
TORSDOF 3
ENDMDL
