MODEL 1
REMARK VINA RESULT:      -9.1      0.000      0.000
REMARK  6 active torsions:
REMARK  status: ('A' for Active; 'I' for Inactive)
REMARK    1  A    between atoms: C_2  and  O_3 
REMARK    2  A    between atoms: O_3  and  C_4 
REMARK    3  A    between atoms: C_5  and  O_6 
REMARK    4  A    between atoms: C_9  and  C_10 
REMARK    5  A    between atoms: C_19  and  C_20 
REMARK    6  A    between atoms: C_22  and  O_23 
ROOT
HETATM    1  C   UNL     1      29.379  43.122  52.449  1.00  0.00     0.156 A 
HETATM    2  N   UNL     1      29.887  41.737  52.532  1.00  0.00    -0.343 N 
HETATM    3  C   UNL     1      28.924  40.760  52.310  1.00  0.00     0.271 A 
HETATM    4  O   UNL     1      29.067  39.553  52.367  1.00  0.00    -0.266 OA
HETATM    5  C   UNL     1      27.766  41.506  52.003  1.00  0.00     0.128 A 
HETATM    6  C   UNL     1      27.976  42.854  52.069  1.00  0.00     0.034 A 
HETATM    7  N   UNL     1      26.502  41.298  51.611  1.00  0.00    -0.272 N 
HETATM    8  H   UNL     1      26.008  40.423  51.465  1.00  0.00     0.189 HD
HETATM    9  N   UNL     1      25.874  42.467  51.335  1.00  0.00    -0.173 NA
HETATM   10  C   UNL     1      26.786  43.435  51.598  1.00  0.00     0.098 A 
HETATM   11  H   UNL     1      30.816  41.493  52.843  1.00  0.00     0.163 HD
ENDROOT
BRANCH   1  12
HETATM   12  C   UNL     1      29.432  43.804  53.797  1.00  0.00    -0.028 A 
HETATM   13  C   UNL     1      30.442  43.529  54.743  1.00  0.00     0.012 A 
HETATM   14  C   UNL     1      30.507  44.229  55.945  1.00  0.00     0.040 A 
HETATM   15  C   UNL     1      29.568  45.214  56.209  1.00  0.00     0.099 A 
HETATM   16  C   UNL     1      28.546  45.512  55.303  1.00  0.00     0.102 A 
HETATM   17  C   UNL     1      28.484  44.807  54.098  1.00  0.00     0.049 A 
BRANCH  15  18
HETATM   18  O   UNL     1      29.666  45.902  57.387  1.00  0.00    -0.358 OA
HETATM   19  H   UNL     1      30.362  45.439  57.894  1.00  0.00     0.218 HD
ENDBRANCH  15  18
BRANCH  16  20
HETATM   20  O   UNL     1      27.700  46.513  55.703  1.00  0.00    -0.349 OA
BRANCH  20  21
HETATM   21  C   UNL     1      27.651  47.685  54.892  1.00  0.00     0.171 C 
HETATM   22  C   UNL     1      26.291  48.329  55.092  1.00  0.00     0.034 C 
ENDBRANCH  20  21
ENDBRANCH  16  20
ENDBRANCH   1  12
BRANCH  10  23
HETATM   23  C   UNL     1      26.494  44.835  51.302  1.00  0.00    -0.002 A 
HETATM   24  C   UNL     1      27.123  45.449  50.203  1.00  0.00     0.050 A 
HETATM   25  C   UNL     1      26.889  46.793  49.907  1.00  0.00     0.069 A 
HETATM   26  C   UNL     1      26.019  47.526  50.716  1.00  0.00     0.037 A 
HETATM   27  C   UNL     1      25.375  46.924  51.797  1.00  0.00     0.004 A 
HETATM   28  C   UNL     1      25.610  45.579  52.089  1.00  0.00     0.014 A 
BRANCH  25  29
HETATM   29  O   UNL     1      27.447  47.497  48.876  1.00  0.00    -0.356 OA
HETATM   30  C   UNL     1      27.585  48.902  49.058  1.00  0.00     0.210 C 
ENDBRANCH  25  29
ENDBRANCH  10  23
TORSDOF 6
ENDMDL
MODEL 2
REMARK VINA RESULT:      -8.7      2.564      6.606
REMARK  6 active torsions:
REMARK  status: ('A' for Active; 'I' for Inactive)
REMARK    1  A    between atoms: C_2  and  O_3 
REMARK    2  A    between atoms: O_3  and  C_4 
REMARK    3  A    between atoms: C_5  and  O_6 
REMARK    4  A    between atoms: C_9  and  C_10 
REMARK    5  A    between atoms: C_19  and  C_20 
REMARK    6  A    between atoms: C_22  and  O_23 
ROOT
HETATM    1  C   UNL     1      24.539  46.201  50.506  1.00  0.00     0.156 A 
HETATM    2  N   UNL     1      24.021  45.293  49.462  1.00  0.00    -0.343 N 
HETATM    3  C   UNL     1      24.668  44.064  49.398  1.00  0.00     0.271 A 
HETATM    4  O   UNL     1      24.470  43.163  48.606  1.00  0.00    -0.266 OA
HETATM    5  C   UNL     1      25.590  44.125  50.466  1.00  0.00     0.128 A 
HETATM    6  C   UNL     1      25.553  45.320  51.126  1.00  0.00     0.034 A 
HETATM    7  N   UNL     1      26.482  43.336  51.080  1.00  0.00    -0.272 N 
HETATM    8  H   UNL     1      26.766  42.388  50.854  1.00  0.00     0.189 HD
HETATM    9  N   UNL     1      26.992  43.936  52.183  1.00  0.00    -0.173 NA
HETATM   10  C   UNL     1      26.408  45.158  52.229  1.00  0.00     0.098 A 
HETATM   11  H   UNL     1      23.343  45.562  48.765  1.00  0.00     0.163 HD
ENDROOT
BRANCH   1  12
HETATM   12  C   UNL     1      25.205  47.412  49.894  1.00  0.00    -0.028 A 
HETATM   13  C   UNL     1      26.595  47.634  49.982  1.00  0.00     0.012 A 
HETATM   14  C   UNL     1      27.189  48.719  49.343  1.00  0.00     0.040 A 
HETATM   15  C   UNL     1      26.400  49.587  48.603  1.00  0.00     0.099 A 
HETATM   16  C   UNL     1      25.018  49.407  48.497  1.00  0.00     0.102 A 
HETATM   17  C   UNL     1      24.426  48.317  49.140  1.00  0.00     0.049 A 
BRANCH  15  18
HETATM   18  O   UNL     1      27.010  50.633  47.968  1.00  0.00    -0.358 OA
HETATM   19  H   UNL     1      26.763  51.424  48.485  1.00  0.00     0.218 HD
ENDBRANCH  15  18
BRANCH  16  20
HETATM   20  O   UNL     1      24.376  50.343  47.727  1.00  0.00    -0.349 OA
BRANCH  20  21
HETATM   21  C   UNL     1      22.953  50.273  47.672  1.00  0.00     0.171 C 
HETATM   22  C   UNL     1      22.404  51.204  48.738  1.00  0.00     0.034 C 
ENDBRANCH  20  21
ENDBRANCH  16  20
ENDBRANCH   1  12
BRANCH  10  23
HETATM   23  C   UNL     1      26.636  46.052  53.362  1.00  0.00    -0.002 A 
HETATM   24  C   UNL     1      27.672  45.759  54.268  1.00  0.00     0.050 A 
HETATM   25  C   UNL     1      27.900  46.575  55.378  1.00  0.00     0.069 A 
HETATM   26  C   UNL     1      27.088  47.693  55.579  1.00  0.00     0.037 A 
HETATM   27  C   UNL     1      26.070  48.004  54.677  1.00  0.00     0.004 A 
HETATM   28  C   UNL     1      25.846  47.186  53.568  1.00  0.00     0.014 A 
BRANCH  25  29
HETATM   29  O   UNL     1      28.866  46.387  56.327  1.00  0.00    -0.356 OA
HETATM   30  C   UNL     1      29.836  45.379  56.065  1.00  0.00     0.210 C 
ENDBRANCH  25  29
ENDBRANCH  10  23
TORSDOF 6
ENDMDL
MODEL 3
REMARK VINA RESULT:      -8.7      1.676      5.767
REMARK  6 active torsions:
REMARK  status: ('A' for Active; 'I' for Inactive)
REMARK    1  A    between atoms: C_2  and  O_3 
REMARK    2  A    between atoms: O_3  and  C_4 
REMARK    3  A    between atoms: C_5  and  O_6 
REMARK    4  A    between atoms: C_9  and  C_10 
REMARK    5  A    between atoms: C_19  and  C_20 
REMARK    6  A    between atoms: C_22  and  O_23 
ROOT
HETATM    1  C   UNL     1      25.989  43.501  52.046  1.00  0.00     0.156 A 
HETATM    2  N   UNL     1      25.359  42.455  51.215  1.00  0.00    -0.343 N 
HETATM    3  C   UNL     1      26.169  41.353  50.968  1.00  0.00     0.271 A 
HETATM    4  O   UNL     1      25.912  40.384  50.281  1.00  0.00    -0.266 OA
HETATM    5  C   UNL     1      27.339  41.637  51.705  1.00  0.00     0.128 A 
HETATM    6  C   UNL     1      27.283  42.848  52.336  1.00  0.00     0.034 A 
HETATM    7  N   UNL     1      28.501  41.052  52.027  1.00  0.00    -0.272 N 
HETATM    8  H   UNL     1      28.873  40.154  51.732  1.00  0.00     0.189 HD
HETATM    9  N   UNL     1      29.198  41.799  52.917  1.00  0.00    -0.173 NA
HETATM   10  C   UNL     1      28.442  42.904  53.129  1.00  0.00     0.098 A 
HETATM   11  H   UNL     1      24.467  42.560  50.754  1.00  0.00     0.163 HD
ENDROOT
BRANCH   1  12
HETATM   12  C   UNL     1      26.212  44.768  51.250  1.00  0.00    -0.028 A 
HETATM   13  C   UNL     1      27.308  44.928  50.379  1.00  0.00     0.012 A 
HETATM   14  C   UNL     1      27.444  46.077  49.602  1.00  0.00     0.040 A 
HETATM   15  C   UNL     1      26.481  47.070  49.686  1.00  0.00     0.099 A 
HETATM   16  C   UNL     1      25.384  46.955  50.544  1.00  0.00     0.102 A 
HETATM   17  C   UNL     1      25.251  45.801  51.321  1.00  0.00     0.049 A 
BRANCH  15  18
HETATM   18  O   UNL     1      26.627  48.179  48.898  1.00  0.00    -0.358 OA
HETATM   19  H   UNL     1      26.312  48.923  49.446  1.00  0.00     0.218 HD
ENDBRANCH  15  18
BRANCH  16  20
HETATM   20  O   UNL     1      24.516  48.016  50.510  1.00  0.00    -0.349 OA
BRANCH  20  21
HETATM   21  C   UNL     1      23.460  47.961  49.553  1.00  0.00     0.171 C 
HETATM   22  C   UNL     1      23.151  49.385  49.126  1.00  0.00     0.034 C 
ENDBRANCH  20  21
ENDBRANCH  16  20
ENDBRANCH   1  12
BRANCH  10  23
HETATM   23  C   UNL     1      28.830  43.892  54.132  1.00  0.00    -0.002 A 
HETATM   24  C   UNL     1      29.954  43.644  54.941  1.00  0.00     0.050 A 
HETATM   25  C   UNL     1      30.336  44.553  55.928  1.00  0.00     0.069 A 
HETATM   26  C   UNL     1      29.590  45.720  56.105  1.00  0.00     0.037 A 
HETATM   27  C   UNL     1      28.485  45.986  55.297  1.00  0.00     0.004 A 
HETATM   28  C   UNL     1      28.106  45.075  54.309  1.00  0.00     0.014 A 
BRANCH  25  29
HETATM   29  O   UNL     1      31.400  44.416  56.777  1.00  0.00    -0.356 OA
HETATM   30  C   UNL     1      31.754  43.089  57.153  1.00  0.00     0.210 C 
ENDBRANCH  25  29
ENDBRANCH  10  23
TORSDOF 6
ENDMDL
MODEL 4
REMARK VINA RESULT:      -8.5      2.482      6.228
REMARK  6 active torsions:
REMARK  status: ('A' for Active; 'I' for Inactive)
REMARK    1  A    between atoms: C_2  and  O_3 
REMARK    2  A    between atoms: O_3  and  C_4 
REMARK    3  A    between atoms: C_5  and  O_6 
REMARK    4  A    between atoms: C_9  and  C_10 
REMARK    5  A    between atoms: C_19  and  C_20 
REMARK    6  A    between atoms: C_22  and  O_23 
ROOT
HETATM    1  C   UNL     1      24.562  45.122  51.455  1.00  0.00     0.156 A 
HETATM    2  N   UNL     1      23.461  44.551  50.653  1.00  0.00    -0.343 N 
HETATM    3  C   UNL     1      23.654  43.227  50.274  1.00  0.00     0.271 A 
HETATM    4  O   UNL     1      22.929  42.543  49.578  1.00  0.00    -0.266 OA
HETATM    5  C   UNL     1      24.874  42.885  50.895  1.00  0.00     0.128 A 
HETATM    6  C   UNL     1      25.429  43.930  51.578  1.00  0.00     0.034 A 
HETATM    7  N   UNL     1      25.658  41.811  51.066  1.00  0.00    -0.272 N 
HETATM    8  H   UNL     1      25.552  40.871  50.696  1.00  0.00     0.189 HD
HETATM    9  N   UNL     1      26.684  42.080  51.909  1.00  0.00    -0.173 NA
HETATM   10  C   UNL     1      26.539  43.385  52.246  1.00  0.00     0.098 A 
HETATM   11  H   UNL     1      22.686  45.088  50.293  1.00  0.00     0.163 HD
ENDROOT
BRANCH   1  12
HETATM   12  C   UNL     1      25.282  46.212  50.695  1.00  0.00    -0.028 A 
HETATM   13  C   UNL     1      26.610  46.069  50.246  1.00  0.00     0.012 A 
HETATM   14  C   UNL     1      27.220  47.061  49.482  1.00  0.00     0.040 A 
HETATM   15  C   UNL     1      26.504  48.203  49.156  1.00  0.00     0.099 A 
HETATM   16  C   UNL     1      25.188  48.388  49.589  1.00  0.00     0.102 A 
HETATM   17  C   UNL     1      24.580  47.390  50.355  1.00  0.00     0.049 A 
BRANCH  15  18
HETATM   18  O   UNL     1      27.118  49.153  48.388  1.00  0.00    -0.358 OA
HETATM   19  H   UNL     1      26.390  49.640  47.955  1.00  0.00     0.218 HD
ENDBRANCH  15  18
BRANCH  16  20
HETATM   20  O   UNL     1      24.612  49.564  49.181  1.00  0.00    -0.349 OA
BRANCH  20  21
HETATM   21  C   UNL     1      23.467  49.467  48.336  1.00  0.00     0.171 C 
HETATM   22  C   UNL     1      22.720  50.787  48.418  1.00  0.00     0.034 C 
ENDBRANCH  20  21
ENDBRANCH  16  20
ENDBRANCH   1  12
BRANCH  10  23
HETATM   23  C   UNL     1      27.411  44.000  53.243  1.00  0.00    -0.002 A 
HETATM   24  C   UNL     1      28.592  43.336  53.624  1.00  0.00     0.050 A 
HETATM   25  C   UNL     1      29.435  43.880  54.594  1.00  0.00     0.069 A 
HETATM   26  C   UNL     1      29.095  45.098  55.186  1.00  0.00     0.037 A 
HETATM   27  C   UNL     1      27.936  45.775  54.804  1.00  0.00     0.004 A 
HETATM   28  C   UNL     1      27.096  45.228  53.832  1.00  0.00     0.014 A 
BRANCH  25  29
HETATM   29  O   UNL     1      30.599  43.325  55.049  1.00  0.00    -0.356 OA
HETATM   30  C   UNL     1      31.091  43.798  56.299  1.00  0.00     0.210 C 
ENDBRANCH  25  29
ENDBRANCH  10  23
TORSDOF 6
ENDMDL
MODEL 5
REMARK VINA RESULT:      -8.3      2.436      5.079
REMARK  6 active torsions:
REMARK  status: ('A' for Active; 'I' for Inactive)
REMARK    1  A    between atoms: C_2  and  O_3 
REMARK    2  A    between atoms: O_3  and  C_4 
REMARK    3  A    between atoms: C_5  and  O_6 
REMARK    4  A    between atoms: C_9  and  C_10 
REMARK    5  A    between atoms: C_19  and  C_20 
REMARK    6  A    between atoms: C_22  and  O_23 
ROOT
HETATM    1  C   UNL     1      26.120  44.211  53.018  1.00  0.00     0.156 A 
HETATM    2  N   UNL     1      25.647  45.585  53.284  1.00  0.00    -0.343 N 
HETATM    3  C   UNL     1      25.685  46.428  52.180  1.00  0.00     0.271 A 
HETATM    4  O   UNL     1      25.399  47.609  52.140  1.00  0.00    -0.266 OA
HETATM    5  C   UNL     1      26.126  45.583  51.139  1.00  0.00     0.128 A 
HETATM    6  C   UNL     1      26.386  44.312  51.567  1.00  0.00     0.034 A 
HETATM    7  N   UNL     1      26.331  45.628  49.815  1.00  0.00    -0.272 N 
HETATM    8  H   UNL     1      26.240  46.411  49.176  1.00  0.00     0.189 HD
HETATM    9  N   UNL     1      26.646  44.405  49.325  1.00  0.00    -0.173 NA
HETATM   10  C   UNL     1      26.664  43.580  50.400  1.00  0.00     0.098 A 
HETATM   11  H   UNL     1      25.427  45.939  54.203  1.00  0.00     0.163 HD
ENDROOT
BRANCH   1  12
HETATM   12  C   UNL     1      27.403  43.922  53.764  1.00  0.00    -0.028 A 
HETATM   13  C   UNL     1      28.075  42.688  53.659  1.00  0.00     0.012 A 
HETATM   14  C   UNL     1      29.295  42.479  54.298  1.00  0.00     0.040 A 
HETATM   15  C   UNL     1      29.855  43.506  55.043  1.00  0.00     0.099 A 
HETATM   16  C   UNL     1      29.217  44.742  55.180  1.00  0.00     0.102 A 
HETATM   17  C   UNL     1      27.993  44.946  54.536  1.00  0.00     0.049 A 
BRANCH  15  18
HETATM   18  O   UNL     1      31.064  43.283  55.643  1.00  0.00    -0.358 OA
HETATM   19  H   UNL     1      30.863  43.207  56.597  1.00  0.00     0.218 HD
ENDBRANCH  15  18
BRANCH  16  20
HETATM   20  O   UNL     1      29.898  45.656  55.941  1.00  0.00    -0.349 OA
BRANCH  20  21
HETATM   21  C   UNL     1      29.326  46.010  57.198  1.00  0.00     0.171 C 
HETATM   22  C   UNL     1      30.333  45.657  58.279  1.00  0.00     0.034 C 
ENDBRANCH  20  21
ENDBRANCH  16  20
ENDBRANCH   1  12
BRANCH  10  23
HETATM   23  C   UNL     1      26.857  42.141  50.235  1.00  0.00    -0.002 A 
HETATM   24  C   UNL     1      27.984  41.678  49.531  1.00  0.00     0.050 A 
HETATM   25  C   UNL     1      28.186  40.311  49.330  1.00  0.00     0.069 A 
HETATM   26  C   UNL     1      27.255  39.404  49.838  1.00  0.00     0.037 A 
HETATM   27  C   UNL     1      26.144  39.850  50.553  1.00  0.00     0.004 A 
HETATM   28  C   UNL     1      25.946  41.217  50.754  1.00  0.00     0.014 A 
BRANCH  25  29
HETATM   29  O   UNL     1      29.234  39.745  48.657  1.00  0.00    -0.356 OA
HETATM   30  C   UNL     1      29.609  38.428  49.044  1.00  0.00     0.210 C 
ENDBRANCH  25  29
ENDBRANCH  10  23
TORSDOF 6
ENDMDL
MODEL 6
REMARK VINA RESULT:      -8.3      2.350      7.020
REMARK  6 active torsions:
REMARK  status: ('A' for Active; 'I' for Inactive)
REMARK    1  A    between atoms: C_2  and  O_3 
REMARK    2  A    between atoms: O_3  and  C_4 
REMARK    3  A    between atoms: C_5  and  O_6 
REMARK    4  A    between atoms: C_9  and  C_10 
REMARK    5  A    between atoms: C_19  and  C_20 
REMARK    6  A    between atoms: C_22  and  O_23 
ROOT
HETATM    1  C   UNL     1      27.228  44.375  50.507  1.00  0.00     0.156 A 
HETATM    2  N   UNL     1      26.340  45.112  49.586  1.00  0.00    -0.343 N 
HETATM    3  C   UNL     1      25.476  46.003  50.212  1.00  0.00     0.271 A 
HETATM    4  O   UNL     1      24.619  46.692  49.693  1.00  0.00    -0.266 OA
HETATM    5  C   UNL     1      25.843  45.913  51.571  1.00  0.00     0.128 A 
HETATM    6  C   UNL     1      26.836  45.000  51.789  1.00  0.00     0.034 A 
HETATM    7  N   UNL     1      25.545  46.493  52.742  1.00  0.00    -0.272 N 
HETATM    8  H   UNL     1      24.854  47.207  52.949  1.00  0.00     0.189 HD
HETATM    9  N   UNL     1      26.361  46.054  53.731  1.00  0.00    -0.173 NA
HETATM   10  C   UNL     1      27.177  45.143  53.145  1.00  0.00     0.098 A 
HETATM   11  H   UNL     1      26.260  44.915  48.599  1.00  0.00     0.163 HD
ENDROOT
BRANCH   1  12
HETATM   12  C   UNL     1      26.895  42.901  50.523  1.00  0.00    -0.028 A 
HETATM   13  C   UNL     1      25.568  42.427  50.497  1.00  0.00     0.012 A 
HETATM   14  C   UNL     1      25.295  41.062  50.435  1.00  0.00     0.040 A 
HETATM   15  C   UNL     1      26.348  40.161  50.393  1.00  0.00     0.099 A 
HETATM   16  C   UNL     1      27.679  40.589  50.426  1.00  0.00     0.102 A 
HETATM   17  C   UNL     1      27.947  41.959  50.487  1.00  0.00     0.049 A 
BRANCH  15  18
HETATM   18  O   UNL     1      26.055  38.828  50.312  1.00  0.00    -0.358 OA
HETATM   19  H   UNL     1      26.353  38.450  51.162  1.00  0.00     0.218 HD
ENDBRANCH  15  18
BRANCH  16  20
HETATM   20  O   UNL     1      28.606  39.581  50.371  1.00  0.00    -0.349 OA
BRANCH  20  21
HETATM   21  C   UNL     1      29.124  39.244  49.085  1.00  0.00     0.171 C 
HETATM   22  C   UNL     1      30.197  38.188  49.282  1.00  0.00     0.034 C 
ENDBRANCH  20  21
ENDBRANCH  16  20
ENDBRANCH   1  12
BRANCH  10  23
HETATM   23  C   UNL     1      28.276  44.536  53.891  1.00  0.00    -0.002 A 
HETATM   24  C   UNL     1      28.850  45.244  54.963  1.00  0.00     0.050 A 
HETATM   25  C   UNL     1      29.920  44.708  55.681  1.00  0.00     0.069 A 
HETATM   26  C   UNL     1      30.417  43.453  55.324  1.00  0.00     0.037 A 
HETATM   27  C   UNL     1      29.845  42.733  54.275  1.00  0.00     0.004 A 
HETATM   28  C   UNL     1      28.773  43.273  53.561  1.00  0.00     0.014 A 
BRANCH  25  29
HETATM   29  O   UNL     1      30.562  45.304  56.731  1.00  0.00    -0.356 OA
HETATM   30  C   UNL     1      29.743  45.935  57.709  1.00  0.00     0.210 C 
ENDBRANCH  25  29
ENDBRANCH  10  23
TORSDOF 6
ENDMDL
MODEL 7
REMARK VINA RESULT:      -7.8      4.933      8.026
REMARK  6 active torsions:
REMARK  status: ('A' for Active; 'I' for Inactive)
REMARK    1  A    between atoms: C_2  and  O_3 
REMARK    2  A    between atoms: O_3  and  C_4 
REMARK    3  A    between atoms: C_5  and  O_6 
REMARK    4  A    between atoms: C_9  and  C_10 
REMARK    5  A    between atoms: C_19  and  C_20 
REMARK    6  A    between atoms: C_22  and  O_23 
ROOT
HETATM    1  C   UNL     1      25.229  47.835  50.151  1.00  0.00     0.156 A 
HETATM    2  N   UNL     1      26.679  48.094  50.271  1.00  0.00    -0.343 N 
HETATM    3  C   UNL     1      27.187  48.963  49.312  1.00  0.00     0.271 A 
HETATM    4  O   UNL     1      28.345  49.303  49.160  1.00  0.00    -0.266 OA
HETATM    5  C   UNL     1      26.042  49.348  48.581  1.00  0.00     0.128 A 
HETATM    6  C   UNL     1      24.905  48.733  49.021  1.00  0.00     0.034 A 
HETATM    7  N   UNL     1      25.707  50.187  47.591  1.00  0.00    -0.272 N 
HETATM    8  H   UNL     1      26.299  50.796  47.035  1.00  0.00     0.189 HD
HETATM    9  N   UNL     1      24.366  50.214  47.403  1.00  0.00    -0.173 NA
HETATM   10  C   UNL     1      23.859  49.330  48.298  1.00  0.00     0.098 A 
HETATM   11  H   UNL     1      27.291  47.602  50.905  1.00  0.00     0.163 HD
ENDROOT
BRANCH   1  12
HETATM   12  C   UNL     1      24.962  46.398  49.768  1.00  0.00    -0.028 A 
HETATM   13  C   UNL     1      23.691  45.951  49.353  1.00  0.00     0.012 A 
HETATM   14  C   UNL     1      23.494  44.637  48.934  1.00  0.00     0.040 A 
HETATM   15  C   UNL     1      24.570  43.762  48.918  1.00  0.00     0.099 A 
HETATM   16  C   UNL     1      25.844  44.162  49.329  1.00  0.00     0.102 A 
HETATM   17  C   UNL     1      26.037  45.481  49.750  1.00  0.00     0.049 A 
BRANCH  15  18
HETATM   18  O   UNL     1      24.355  42.484  48.482  1.00  0.00    -0.358 OA
HETATM   19  H   UNL     1      24.540  42.508  47.523  1.00  0.00     0.218 HD
ENDBRANCH  15  18
BRANCH  16  20
HETATM   20  O   UNL     1      26.804  43.186  49.251  1.00  0.00    -0.349 OA
BRANCH  20  21
HETATM   21  C   UNL     1      27.280  42.643  50.481  1.00  0.00     0.171 C 
HETATM   22  C   UNL     1      26.957  41.159  50.485  1.00  0.00     0.034 C 
ENDBRANCH  20  21
ENDBRANCH  16  20
ENDBRANCH   1  12
BRANCH  10  23
HETATM   23  C   UNL     1      22.416  49.179  48.462  1.00  0.00    -0.002 A 
HETATM   24  C   UNL     1      21.739  50.006  49.377  1.00  0.00     0.050 A 
HETATM   25  C   UNL     1      20.365  49.869  49.580  1.00  0.00     0.069 A 
HETATM   26  C   UNL     1      19.664  48.901  48.860  1.00  0.00     0.037 A 
HETATM   27  C   UNL     1      20.320  48.087  47.937  1.00  0.00     0.004 A 
HETATM   28  C   UNL     1      21.694  48.227  47.735  1.00  0.00     0.014 A 
BRANCH  25  29
HETATM   29  O   UNL     1      19.604  50.607  50.446  1.00  0.00    -0.356 OA
HETATM   30  C   UNL     1      18.870  51.692  49.890  1.00  0.00     0.210 C 
ENDBRANCH  25  29
ENDBRANCH  10  23
TORSDOF 6
ENDMDL
MODEL 8
REMARK VINA RESULT:      -7.7      5.467      8.553
REMARK  6 active torsions:
REMARK  status: ('A' for Active; 'I' for Inactive)
REMARK    1  A    between atoms: C_2  and  O_3 
REMARK    2  A    between atoms: O_3  and  C_4 
REMARK    3  A    between atoms: C_5  and  O_6 
REMARK    4  A    between atoms: C_9  and  C_10 
REMARK    5  A    between atoms: C_19  and  C_20 
REMARK    6  A    between atoms: C_22  and  O_23 
ROOT
HETATM    1  C   UNL     1      24.598  47.870  50.085  1.00  0.00     0.156 A 
HETATM    2  N   UNL     1      26.040  47.551  50.117  1.00  0.00    -0.343 N 
HETATM    3  C   UNL     1      26.801  48.243  49.181  1.00  0.00     0.271 A 
HETATM    4  O   UNL     1      27.993  48.132  48.968  1.00  0.00    -0.266 OA
HETATM    5  C   UNL     1      25.860  49.091  48.559  1.00  0.00     0.128 A 
HETATM    6  C   UNL     1      24.594  48.915  49.040  1.00  0.00     0.034 A 
HETATM    7  N   UNL     1      25.829  50.076  47.650  1.00  0.00    -0.272 N 
HETATM    8  H   UNL     1      26.585  50.461  47.093  1.00  0.00     0.189 HD
HETATM    9  N   UNL     1      24.593  50.623  47.560  1.00  0.00    -0.173 NA
HETATM   10  C   UNL     1      23.826  49.923  48.431  1.00  0.00     0.098 A 
HETATM   11  H   UNL     1      26.444  46.813  50.674  1.00  0.00     0.163 HD
ENDROOT
BRANCH   1  12
HETATM   12  C   UNL     1      23.787  46.677  49.633  1.00  0.00    -0.028 A 
HETATM   13  C   UNL     1      22.859  46.754  48.574  1.00  0.00     0.012 A 
HETATM   14  C   UNL     1      22.182  45.620  48.130  1.00  0.00     0.040 A 
HETATM   15  C   UNL     1      22.434  44.399  48.737  1.00  0.00     0.099 A 
HETATM   16  C   UNL     1      23.339  44.281  49.795  1.00  0.00     0.102 A 
HETATM   17  C   UNL     1      24.016  45.421  50.237  1.00  0.00     0.049 A 
BRANCH  15  18
HETATM   18  O   UNL     1      21.772  43.297  48.269  1.00  0.00    -0.358 OA
HETATM   19  H   UNL     1      21.661  42.718  49.048  1.00  0.00     0.218 HD
ENDBRANCH  15  18
BRANCH  16  20
HETATM   20  O   UNL     1      23.484  43.009  50.285  1.00  0.00    -0.349 OA
BRANCH  20  21
HETATM   21  C   UNL     1      24.791  42.440  50.239  1.00  0.00     0.171 C 
HETATM   22  C   UNL     1      24.813  41.426  49.109  1.00  0.00     0.034 C 
ENDBRANCH  20  21
ENDBRANCH  16  20
ENDBRANCH   1  12
BRANCH  10  23
HETATM   23  C   UNL     1      22.442  50.314  48.688  1.00  0.00    -0.002 A 
HETATM   24  C   UNL     1      21.521  50.314  47.625  1.00  0.00     0.050 A 
HETATM   25  C   UNL     1      20.197  50.709  47.828  1.00  0.00     0.069 A 
HETATM   26  C   UNL     1      19.793  51.103  49.104  1.00  0.00     0.037 A 
HETATM   27  C   UNL     1      20.692  51.090  50.171  1.00  0.00     0.004 A 
HETATM   28  C   UNL     1      22.015  50.692  49.964  1.00  0.00     0.014 A 
BRANCH  25  29
HETATM   29  O   UNL     1      19.219  50.759  46.873  1.00  0.00    -0.356 OA
HETATM   30  C   UNL     1      18.235  49.731  46.909  1.00  0.00     0.210 C 
ENDBRANCH  25  29
ENDBRANCH  10  23
TORSDOF 6
ENDMDL
MODEL 9
REMARK VINA RESULT:      -7.6      2.367      5.881
REMARK  6 active torsions:
REMARK  status: ('A' for Active; 'I' for Inactive)
REMARK    1  A    between atoms: C_2  and  O_3 
REMARK    2  A    between atoms: O_3  and  C_4 
REMARK    3  A    between atoms: C_5  and  O_6 
REMARK    4  A    between atoms: C_9  and  C_10 
REMARK    5  A    between atoms: C_19  and  C_20 
REMARK    6  A    between atoms: C_22  and  O_23 
ROOT
HETATM    1  C   UNL     1      25.216  44.107  50.481  1.00  0.00     0.156 A 
HETATM    2  N   UNL     1      24.351  43.571  49.411  1.00  0.00    -0.343 N 
HETATM    3  C   UNL     1      24.894  42.492  48.721  1.00  0.00     0.271 A 
HETATM    4  O   UNL     1      24.413  41.901  47.773  1.00  0.00    -0.266 OA
HETATM    5  C   UNL     1      26.115  42.259  49.390  1.00  0.00     0.128 A 
HETATM    6  C   UNL     1      26.342  43.152  50.398  1.00  0.00     0.034 A 
HETATM    7  N   UNL     1      27.128  41.381  49.373  1.00  0.00    -0.272 N 
HETATM    8  H   UNL     1      27.286  40.592  48.754  1.00  0.00     0.189 HD
HETATM    9  N   UNL     1      27.993  41.610  50.391  1.00  0.00    -0.173 NA
HETATM   10  C   UNL     1      27.503  42.693  51.042  1.00  0.00     0.098 A 
HETATM   11  H   UNL     1      23.493  44.006  49.105  1.00  0.00     0.163 HD
ENDROOT
BRANCH   1  12
HETATM   12  C   UNL     1      25.692  45.503  50.148  1.00  0.00    -0.028 A 
HETATM   13  C   UNL     1      27.019  45.775  49.757  1.00  0.00     0.012 A 
HETATM   14  C   UNL     1      27.408  47.059  49.384  1.00  0.00     0.040 A 
HETATM   15  C   UNL     1      26.470  48.081  49.391  1.00  0.00     0.099 A 
HETATM   16  C   UNL     1      25.147  47.856  49.781  1.00  0.00     0.102 A 
HETATM   17  C   UNL     1      24.761  46.566  50.155  1.00  0.00     0.049 A 
BRANCH  15  18
HETATM   18  O   UNL     1      26.872  49.329  49.001  1.00  0.00    -0.358 OA
HETATM   19  H   UNL     1      26.250  49.585  48.291  1.00  0.00     0.218 HD
ENDBRANCH  15  18
BRANCH  16  20
HETATM   20  O   UNL     1      24.339  48.963  49.730  1.00  0.00    -0.349 OA
BRANCH  20  21
HETATM   21  C   UNL     1      23.385  49.023  48.672  1.00  0.00     0.171 C 
HETATM   22  C   UNL     1      23.600  50.330  47.930  1.00  0.00     0.034 C 
ENDBRANCH  20  21
ENDBRANCH  16  20
ENDBRANCH   1  12
BRANCH  10  23
HETATM   23  C   UNL     1      28.123  43.163  52.279  1.00  0.00    -0.002 A 
HETATM   24  C   UNL     1      27.494  44.183  53.016  1.00  0.00     0.050 A 
HETATM   25  C   UNL     1      28.072  44.676  54.187  1.00  0.00     0.069 A 
HETATM   26  C   UNL     1      29.286  44.143  54.623  1.00  0.00     0.037 A 
HETATM   27  C   UNL     1      29.911  43.119  53.911  1.00  0.00     0.004 A 
HETATM   28  C   UNL     1      29.328  42.627  52.741  1.00  0.00     0.014 A 
BRANCH  25  29
HETATM   29  O   UNL     1      27.561  45.668  54.979  1.00  0.00    -0.356 OA
HETATM   30  C   UNL     1      26.425  46.366  54.481  1.00  0.00     0.210 C 
ENDBRANCH  25  29
ENDBRANCH  10  23
TORSDOF 6
ENDMDL
MODEL 10
REMARK VINA RESULT:      -7.5     15.239     16.669
REMARK  6 active torsions:
REMARK  status: ('A' for Active; 'I' for Inactive)
REMARK    1  A    between atoms: C_2  and  O_3 
REMARK    2  A    between atoms: O_3  and  C_4 
REMARK    3  A    between atoms: C_5  and  O_6 
REMARK    4  A    between atoms: C_9  and  C_10 
REMARK    5  A    between atoms: C_19  and  C_20 
REMARK    6  A    between atoms: C_22  and  O_23 
ROOT
HETATM    1  C   UNL     1      39.054  44.119  63.033  1.00  0.00     0.156 A 
HETATM    2  N   UNL     1      39.450  42.877  62.337  1.00  0.00    -0.343 N 
HETATM    3  C   UNL     1      38.958  41.713  62.916  1.00  0.00     0.271 A 
HETATM    4  O   UNL     1      39.172  40.567  62.572  1.00  0.00    -0.266 OA
HETATM    5  C   UNL     1      38.161  42.190  63.979  1.00  0.00     0.128 A 
HETATM    6  C   UNL     1      38.184  43.552  64.085  1.00  0.00     0.034 A 
HETATM    7  N   UNL     1      37.329  41.712  64.915  1.00  0.00    -0.272 N 
HETATM    8  H   UNL     1      37.080  40.750  65.125  1.00  0.00     0.189 HD
HETATM    9  N   UNL     1      36.729  42.716  65.599  1.00  0.00    -0.173 NA
HETATM   10  C   UNL     1      37.239  43.860  65.078  1.00  0.00     0.098 A 
HETATM   11  H   UNL     1      40.117  42.841  61.580  1.00  0.00     0.163 HD
ENDROOT
BRANCH   1  12
HETATM   12  C   UNL     1      40.252  44.798  63.657  1.00  0.00    -0.028 A 
HETATM   13  C   UNL     1      41.553  44.263  63.571  1.00  0.00     0.012 A 
HETATM   14  C   UNL     1      42.647  44.951  64.091  1.00  0.00     0.040 A 
HETATM   15  C   UNL     1      42.449  46.183  64.695  1.00  0.00     0.099 A 
HETATM   16  C   UNL     1      41.174  46.745  64.808  1.00  0.00     0.102 A 
HETATM   17  C   UNL     1      40.080  46.052  64.285  1.00  0.00     0.049 A 
BRANCH  15  18
HETATM   18  O   UNL     1      43.542  46.849  65.179  1.00  0.00    -0.358 OA
HETATM   19  H   UNL     1      44.027  46.188  65.710  1.00  0.00     0.218 HD
ENDBRANCH  15  18
BRANCH  16  20
HETATM   20  O   UNL     1      41.141  47.970  65.424  1.00  0.00    -0.349 OA
BRANCH  20  21
HETATM   21  C   UNL     1      39.867  48.449  65.849  1.00  0.00     0.171 C 
HETATM   22  C   UNL     1      39.476  49.595  64.933  1.00  0.00     0.034 C 
ENDBRANCH  20  21
ENDBRANCH  16  20
ENDBRANCH   1  12
BRANCH  10  23
HETATM   23  C   UNL     1      36.731  45.163  65.499  1.00  0.00    -0.002 A 
HETATM   24  C   UNL     1      36.268  45.325  66.818  1.00  0.00     0.050 A 
HETATM   25  C   UNL     1      35.750  46.548  67.247  1.00  0.00     0.069 A 
HETATM   26  C   UNL     1      35.696  47.616  66.349  1.00  0.00     0.037 A 
HETATM   27  C   UNL     1      36.168  47.473  65.045  1.00  0.00     0.004 A 
HETATM   28  C   UNL     1      36.688  46.249  64.620  1.00  0.00     0.014 A 
BRANCH  25  29
HETATM   29  O   UNL     1      35.265  46.821  68.496  1.00  0.00    -0.356 OA
HETATM   30  C   UNL     1      34.805  48.148  68.731  1.00  0.00     0.210 C 
ENDBRANCH  25  29
ENDBRANCH  10  23
TORSDOF 6
ENDMDL
