MODEL 1
REMARK VINA RESULT:      -8.6      0.000      0.000
REMARK  7 active torsions:
REMARK  status: ('A' for Active; 'I' for Inactive)
REMARK    1  A    between atoms: C_5  and  N_6 
REMARK    2  A    between atoms: N_6  and  C_9 
REMARK    3  A    between atoms: C_9  and  C_10 
REMARK    4  A    between atoms: C_10  and  C_11 
REMARK    5  A    between atoms: C_10  and  C_13 
REMARK    6  A    between atoms: C_11  and  O_12 
REMARK    7  A    between atoms: C_13  and  C_14 
ROOT
HETATM    1  N   UNL     1      27.051  46.661  53.682  1.00  0.00    -0.066 N 
HETATM    2  H   UNL     1      27.745  47.429  53.763  1.00  0.00     0.278 HD
HETATM    3  H   UNL     1      27.379  46.079  52.887  1.00  0.00     0.278 HD
ENDROOT
BRANCH   1   4
HETATM    4  C   UNL     1      27.057  45.831  54.908  1.00  0.00     0.220 C 
HETATM    5  C   UNL     1      27.789  44.543  54.691  1.00  0.00    -0.021 A 
HETATM    6  C   UNL     1      29.102  44.600  55.197  1.00  0.00    -0.040 A 
HETATM    7  C   UNL     1      27.304  43.418  54.035  1.00  0.00     0.010 A 
HETATM    8  C   UNL     1      29.971  43.527  55.006  1.00  0.00    -0.055 A 
HETATM    9  C   UNL     1      29.347  45.948  55.831  1.00  0.00     0.018 C 
HETATM   10  C   UNL     1      31.397  43.534  55.470  1.00  0.00     0.049 C 
HETATM   11  C   UNL     1      29.468  42.382  54.363  1.00  0.00     0.007 A 
HETATM   12  C   UNL     1      28.152  42.327  53.885  1.00  0.00     0.001 A 
HETATM   13  C   UNL     1      27.903  46.472  56.011  1.00  0.00     0.047 C 
HETATM   14  C   UNL     1      30.083  45.960  57.166  1.00  0.00     0.015 C 
ENDBRANCH   1   4
BRANCH   1  15
HETATM   15  C   UNL     1      25.747  47.252  53.280  1.00  0.00     0.240 C 
BRANCH  15  16
HETATM   16  C   UNL     1      25.274  46.670  51.933  1.00  0.00     0.040 C 
BRANCH  16  17
HETATM   17  C   UNL     1      24.872  45.198  52.107  1.00  0.00     0.170 C 
BRANCH  17  18
HETATM   18  O   UNL     1      23.754  44.911  51.262  1.00  0.00    -0.400 OA
HETATM   19  H   UNL     1      23.319  45.772  51.084  1.00  0.00     0.209 HD
ENDBRANCH  17  18
ENDBRANCH  16  17
BRANCH  16  20
HETATM   20  C   UNL     1      26.307  46.782  50.790  1.00  0.00     0.067 C 
BRANCH  20  21
HETATM   21  C   UNL     1      26.051  47.937  49.860  1.00  0.00     0.034 A 
HETATM   22  N   UNL     1      24.743  48.215  49.598  1.00  0.00    -0.266 NA
HETATM   23  C   UNL     1      24.504  49.276  48.785  1.00  0.00     0.117 A 
HETATM   24  C   UNL     1      25.496  50.037  48.191  1.00  0.00     0.019 A 
HETATM   25  C   UNL     1      26.820  49.710  48.450  1.00  0.00     0.003 A 
HETATM   26  C   UNL     1      27.108  48.646  49.299  1.00  0.00     0.027 A 
ENDBRANCH  20  21
ENDBRANCH  16  20
ENDBRANCH  15  16
ENDBRANCH   1  15
TORSDOF 7
ENDMDL
MODEL 2
REMARK VINA RESULT:      -8.4      1.433      1.909
REMARK  7 active torsions:
REMARK  status: ('A' for Active; 'I' for Inactive)
REMARK    1  A    between atoms: C_5  and  N_6 
REMARK    2  A    between atoms: N_6  and  C_9 
REMARK    3  A    between atoms: C_9  and  C_10 
REMARK    4  A    between atoms: C_10  and  C_11 
REMARK    5  A    between atoms: C_10  and  C_13 
REMARK    6  A    between atoms: C_11  and  O_12 
REMARK    7  A    between atoms: C_13  and  C_14 
ROOT
HETATM    1  N   UNL     1      26.775  45.662  52.263  1.00  0.00    -0.066 N 
HETATM    2  H   UNL     1      27.770  45.932  52.135  1.00  0.00     0.278 HD
HETATM    3  H   UNL     1      26.587  44.951  51.530  1.00  0.00     0.278 HD
ENDROOT
BRANCH   1   4
HETATM    4  C   UNL     1      26.579  45.034  53.590  1.00  0.00     0.220 C 
HETATM    5  C   UNL     1      27.622  43.995  53.860  1.00  0.00    -0.021 A 
HETATM    6  C   UNL     1      28.649  44.493  54.686  1.00  0.00    -0.040 A 
HETATM    7  C   UNL     1      27.654  42.704  53.350  1.00  0.00     0.010 A 
HETATM    8  C   UNL     1      29.759  43.701  54.974  1.00  0.00    -0.055 A 
HETATM    9  C   UNL     1      28.353  45.925  55.064  1.00  0.00     0.018 C 
HETATM   10  C   UNL     1      30.915  44.179  55.802  1.00  0.00     0.049 C 
HETATM   11  C   UNL     1      29.775  42.387  54.474  1.00  0.00     0.007 A 
HETATM   12  C   UNL     1      28.736  41.894  53.674  1.00  0.00     0.001 A 
HETATM   13  C   UNL     1      26.847  46.029  54.723  1.00  0.00     0.047 C 
HETATM   14  C   UNL     1      28.593  46.320  56.515  1.00  0.00     0.015 C 
ENDBRANCH   1   4
BRANCH   1  15
HETATM   15  C   UNL     1      25.929  46.844  51.950  1.00  0.00     0.240 C 
BRANCH  15  16
HETATM   16  C   UNL     1      25.532  46.854  50.460  1.00  0.00     0.040 C 
BRANCH  16  17
HETATM   17  C   UNL     1      26.104  45.615  49.754  1.00  0.00     0.170 C 
BRANCH  17  18
HETATM   18  O   UNL     1      27.435  45.896  49.313  1.00  0.00    -0.400 OA
HETATM   19  H   UNL     1      27.348  46.514  48.557  1.00  0.00     0.209 HD
ENDBRANCH  17  18
ENDBRANCH  16  17
BRANCH  16  20
HETATM   20  C   UNL     1      25.967  48.121  49.691  1.00  0.00     0.067 C 
BRANCH  20  21
HETATM   21  C   UNL     1      24.812  48.929  49.163  1.00  0.00     0.034 A 
HETATM   22  N   UNL     1      23.587  48.630  49.681  1.00  0.00    -0.266 NA
HETATM   23  C   UNL     1      22.545  49.376  49.232  1.00  0.00     0.117 A 
HETATM   24  C   UNL     1      22.657  50.364  48.269  1.00  0.00     0.019 A 
HETATM   25  C   UNL     1      23.912  50.623  47.735  1.00  0.00     0.003 A 
HETATM   26  C   UNL     1      25.010  49.900  48.187  1.00  0.00     0.027 A 
ENDBRANCH  20  21
ENDBRANCH  16  20
ENDBRANCH  15  16
ENDBRANCH   1  15
TORSDOF 7
ENDMDL
MODEL 3
REMARK VINA RESULT:      -8.3      2.604      4.111
REMARK  7 active torsions:
REMARK  status: ('A' for Active; 'I' for Inactive)
REMARK    1  A    between atoms: C_5  and  N_6 
REMARK    2  A    between atoms: N_6  and  C_9 
REMARK    3  A    between atoms: C_9  and  C_10 
REMARK    4  A    between atoms: C_10  and  C_11 
REMARK    5  A    between atoms: C_10  and  C_13 
REMARK    6  A    between atoms: C_11  and  O_12 
REMARK    7  A    between atoms: C_13  and  C_14 
ROOT
HETATM    1  N   UNL     1      27.493  42.297  53.070  1.00  0.00    -0.066 N 
HETATM    2  H   UNL     1      27.662  41.769  53.949  1.00  0.00     0.278 HD
HETATM    3  H   UNL     1      26.562  42.741  53.193  1.00  0.00     0.278 HD
ENDROOT
BRANCH   1   4
HETATM    4  C   UNL     1      28.505  43.365  52.908  1.00  0.00     0.220 C 
HETATM    5  C   UNL     1      28.113  44.605  53.650  1.00  0.00    -0.021 A 
HETATM    6  C   UNL     1      28.781  44.705  54.886  1.00  0.00    -0.040 A 
HETATM    7  C   UNL     1      27.178  45.549  53.244  1.00  0.00     0.010 A 
HETATM    8  C   UNL     1      28.477  45.745  55.762  1.00  0.00    -0.055 A 
HETATM    9  C   UNL     1      29.713  43.529  55.059  1.00  0.00     0.018 C 
HETATM   10  C   UNL     1      29.108  45.887  57.116  1.00  0.00     0.049 C 
HETATM   11  C   UNL     1      27.547  46.710  55.337  1.00  0.00     0.007 A 
HETATM   12  C   UNL     1      26.907  46.615  54.095  1.00  0.00     0.001 A 
HETATM   13  C   UNL     1      29.817  43.001  53.609  1.00  0.00     0.047 C 
HETATM   14  C   UNL     1      31.101  43.824  55.614  1.00  0.00     0.015 C 
ENDBRANCH   1   4
BRANCH   1  15
HETATM   15  C   UNL     1      27.366  41.319  51.957  1.00  0.00     0.240 C 
BRANCH  15  16
HETATM   16  C   UNL     1      26.363  41.821  50.899  1.00  0.00     0.040 C 
BRANCH  16  17
HETATM   17  C   UNL     1      25.719  40.628  50.176  1.00  0.00     0.170 C 
BRANCH  17  18
HETATM   18  O   UNL     1      26.156  39.413  50.791  1.00  0.00    -0.400 OA
HETATM   19  H   UNL     1      26.934  39.110  50.276  1.00  0.00     0.209 HD
ENDBRANCH  17  18
ENDBRANCH  16  17
BRANCH  16  20
HETATM   20  C   UNL     1      26.966  42.783  49.852  1.00  0.00     0.067 C 
BRANCH  20  21
HETATM   21  C   UNL     1      26.419  44.183  49.938  1.00  0.00     0.034 A 
HETATM   22  N   UNL     1      27.290  45.185  49.634  1.00  0.00    -0.266 NA
HETATM   23  C   UNL     1      26.795  46.448  49.679  1.00  0.00     0.117 A 
HETATM   24  C   UNL     1      25.499  46.760  50.051  1.00  0.00     0.019 A 
HETATM   25  C   UNL     1      24.643  45.720  50.388  1.00  0.00     0.003 A 
HETATM   26  C   UNL     1      25.104  44.409  50.329  1.00  0.00     0.027 A 
ENDBRANCH  20  21
ENDBRANCH  16  20
ENDBRANCH  15  16
ENDBRANCH   1  15
TORSDOF 7
ENDMDL
MODEL 4
REMARK VINA RESULT:      -8.2      1.809      3.191
REMARK  7 active torsions:
REMARK  status: ('A' for Active; 'I' for Inactive)
REMARK    1  A    between atoms: C_5  and  N_6 
REMARK    2  A    between atoms: N_6  and  C_9 
REMARK    3  A    between atoms: C_9  and  C_10 
REMARK    4  A    between atoms: C_10  and  C_11 
REMARK    5  A    between atoms: C_10  and  C_13 
REMARK    6  A    between atoms: C_11  and  O_12 
REMARK    7  A    between atoms: C_13  and  C_14 
ROOT
HETATM    1  N   UNL     1      26.808  42.860  52.747  1.00  0.00    -0.066 N 
HETATM    2  H   UNL     1      27.126  42.022  53.273  1.00  0.00     0.278 HD
HETATM    3  H   UNL     1      26.057  43.279  53.330  1.00  0.00     0.278 HD
ENDROOT
BRANCH   1   4
HETATM    4  C   UNL     1      27.911  43.840  52.623  1.00  0.00     0.220 C 
HETATM    5  C   UNL     1      27.661  45.051  53.467  1.00  0.00    -0.021 A 
HETATM    6  C   UNL     1      28.375  44.995  54.680  1.00  0.00    -0.040 A 
HETATM    7  C   UNL     1      26.807  46.104  53.169  1.00  0.00     0.010 A 
HETATM    8  C   UNL     1      28.200  45.989  55.641  1.00  0.00    -0.055 A 
HETATM    9  C   UNL     1      29.198  43.728  54.731  1.00  0.00     0.018 C 
HETATM   10  C   UNL     1      28.885  45.970  56.975  1.00  0.00     0.049 C 
HETATM   11  C   UNL     1      27.352  47.064  55.324  1.00  0.00     0.007 A 
HETATM   12  C   UNL     1      26.666  47.123  54.104  1.00  0.00     0.001 A 
HETATM   13  C   UNL     1      29.204  43.305  53.243  1.00  0.00     0.047 C 
HETATM   14  C   UNL     1      30.625  43.852  55.250  1.00  0.00     0.015 C 
ENDBRANCH   1   4
BRANCH   1  15
HETATM   15  C   UNL     1      26.173  42.401  51.484  1.00  0.00     0.240 C 
BRANCH  15  16
HETATM   16  C   UNL     1      25.212  43.473  50.932  1.00  0.00     0.040 C 
BRANCH  16  17
HETATM   17  C   UNL     1      23.799  42.890  50.786  1.00  0.00     0.170 C 
BRANCH  17  18
HETATM   18  O   UNL     1      22.846  43.957  50.786  1.00  0.00    -0.400 OA
HETATM   19  H   UNL     1      22.870  44.344  49.885  1.00  0.00     0.209 HD
ENDBRANCH  17  18
ENDBRANCH  16  17
BRANCH  16  20
HETATM   20  C   UNL     1      25.648  44.090  49.585  1.00  0.00     0.067 C 
BRANCH  20  21
HETATM   21  C   UNL     1      25.711  45.594  49.605  1.00  0.00     0.034 A 
HETATM   22  N   UNL     1      24.513  46.242  49.600  1.00  0.00    -0.266 NA
HETATM   23  C   UNL     1      24.561  47.598  49.650  1.00  0.00     0.117 A 
HETATM   24  C   UNL     1      25.734  48.332  49.659  1.00  0.00     0.019 A 
HETATM   25  C   UNL     1      26.941  47.645  49.631  1.00  0.00     0.003 A 
HETATM   26  C   UNL     1      26.935  46.254  49.606  1.00  0.00     0.027 A 
ENDBRANCH  20  21
ENDBRANCH  16  20
ENDBRANCH  15  16
ENDBRANCH   1  15
TORSDOF 7
ENDMDL
MODEL 5
REMARK VINA RESULT:      -8.2      2.243      3.682
REMARK  7 active torsions:
REMARK  status: ('A' for Active; 'I' for Inactive)
REMARK    1  A    between atoms: C_5  and  N_6 
REMARK    2  A    between atoms: N_6  and  C_9 
REMARK    3  A    between atoms: C_9  and  C_10 
REMARK    4  A    between atoms: C_10  and  C_11 
REMARK    5  A    between atoms: C_10  and  C_13 
REMARK    6  A    between atoms: C_11  and  O_12 
REMARK    7  A    between atoms: C_13  and  C_14 
ROOT
HETATM    1  N   UNL     1      26.910  47.070  53.350  1.00  0.00    -0.066 N 
HETATM    2  H   UNL     1      27.151  48.042  53.625  1.00  0.00     0.278 HD
HETATM    3  H   UNL     1      27.718  46.735  52.792  1.00  0.00     0.278 HD
ENDROOT
BRANCH   1   4
HETATM    4  C   UNL     1      26.779  46.214  54.551  1.00  0.00     0.220 C 
HETATM    5  C   UNL     1      27.374  44.860  54.322  1.00  0.00    -0.021 A 
HETATM    6  C   UNL     1      28.666  44.759  54.876  1.00  0.00    -0.040 A 
HETATM    7  C   UNL     1      26.796  43.811  53.618  1.00  0.00     0.010 A 
HETATM    8  C   UNL     1      29.420  43.603  54.685  1.00  0.00    -0.055 A 
HETATM    9  C   UNL     1      29.032  46.057  55.557  1.00  0.00     0.018 C 
HETATM   10  C   UNL     1      30.820  43.443  55.199  1.00  0.00     0.049 C 
HETATM   11  C   UNL     1      28.821  42.537  53.991  1.00  0.00     0.007 A 
HETATM   12  C   UNL     1      27.526  42.638  53.466  1.00  0.00     0.001 A 
HETATM   13  C   UNL     1      27.647  46.731  55.702  1.00  0.00     0.047 C 
HETATM   14  C   UNL     1      29.713  45.955  56.917  1.00  0.00     0.015 C 
ENDBRANCH   1   4
BRANCH   1  15
HETATM   15  C   UNL     1      25.740  47.123  52.434  1.00  0.00     0.240 C 
BRANCH  15  16
HETATM   16  C   UNL     1      26.089  46.509  51.064  1.00  0.00     0.040 C 
BRANCH  16  17
HETATM   17  C   UNL     1      26.431  47.620  50.060  1.00  0.00     0.170 C 
BRANCH  17  18
HETATM   18  O   UNL     1      27.382  47.124  49.114  1.00  0.00    -0.400 OA
HETATM   19  H   UNL     1      28.049  47.834  48.999  1.00  0.00     0.209 HD
ENDBRANCH  17  18
ENDBRANCH  16  17
BRANCH  16  20
HETATM   20  C   UNL     1      24.985  45.609  50.467  1.00  0.00     0.067 C 
BRANCH  20  21
HETATM   21  C   UNL     1      25.425  44.187  50.243  1.00  0.00     0.034 A 
HETATM   22  N   UNL     1      26.608  44.024  49.586  1.00  0.00    -0.266 NA
HETATM   23  C   UNL     1      27.026  42.745  49.408  1.00  0.00     0.117 A 
HETATM   24  C   UNL     1      26.310  41.631  49.809  1.00  0.00     0.019 A 
HETATM   25  C   UNL     1      25.092  41.827  50.447  1.00  0.00     0.003 A 
HETATM   26  C   UNL     1      24.639  43.123  50.673  1.00  0.00     0.027 A 
ENDBRANCH  20  21
ENDBRANCH  16  20
ENDBRANCH  15  16
ENDBRANCH   1  15
TORSDOF 7
ENDMDL
MODEL 6
REMARK VINA RESULT:      -8.1     12.025     14.095
REMARK  7 active torsions:
REMARK  status: ('A' for Active; 'I' for Inactive)
REMARK    1  A    between atoms: C_5  and  N_6 
REMARK    2  A    between atoms: N_6  and  C_9 
REMARK    3  A    between atoms: C_9  and  C_10 
REMARK    4  A    between atoms: C_10  and  C_11 
REMARK    5  A    between atoms: C_10  and  C_13 
REMARK    6  A    between atoms: C_11  and  O_12 
REMARK    7  A    between atoms: C_13  and  C_14 
ROOT
HETATM    1  N   UNL     1      29.436  48.780  38.568  1.00  0.00    -0.066 N 
HETATM    2  H   UNL     1      29.086  49.732  38.790  1.00  0.00     0.278 HD
HETATM    3  H   UNL     1      29.460  48.732  37.531  1.00  0.00     0.278 HD
ENDROOT
BRANCH   1   4
HETATM    4  C   UNL     1      30.816  48.608  39.078  1.00  0.00     0.220 C 
HETATM    5  C   UNL     1      31.469  49.929  39.340  1.00  0.00    -0.021 A 
HETATM    6  C   UNL     1      31.428  50.267  40.706  1.00  0.00    -0.040 A 
HETATM    7  C   UNL     1      32.019  50.781  38.390  1.00  0.00     0.010 A 
HETATM    8  C   UNL     1      31.904  51.505  41.134  1.00  0.00    -0.055 A 
HETATM    9  C   UNL     1      30.754  49.163  41.487  1.00  0.00     0.018 C 
HETATM   10  C   UNL     1      31.845  51.957  42.563  1.00  0.00     0.049 C 
HETATM   11  C   UNL     1      32.480  52.354  40.173  1.00  0.00     0.007 A 
HETATM   12  C   UNL     1      32.539  51.996  38.819  1.00  0.00     0.001 A 
HETATM   13  C   UNL     1      30.819  47.991  40.479  1.00  0.00     0.047 C 
HETATM   14  C   UNL     1      31.397  48.760  42.808  1.00  0.00     0.015 C 
ENDBRANCH   1   4
BRANCH   1  15
HETATM   15  C   UNL     1      28.424  47.793  39.027  1.00  0.00     0.240 C 
BRANCH  15  16
HETATM   16  C   UNL     1      27.335  48.479  39.875  1.00  0.00     0.040 C 
BRANCH  16  17
HETATM   17  C   UNL     1      26.176  47.505  40.135  1.00  0.00     0.170 C 
BRANCH  17  18
HETATM   18  O   UNL     1      25.433  47.948  41.274  1.00  0.00    -0.400 OA
HETATM   19  H   UNL     1      25.868  47.549  42.056  1.00  0.00     0.209 HD
ENDBRANCH  17  18
ENDBRANCH  16  17
BRANCH  16  20
HETATM   20  C   UNL     1      26.775  49.782  39.263  1.00  0.00     0.067 C 
BRANCH  20  21
HETATM   21  C   UNL     1      27.549  51.012  39.657  1.00  0.00     0.034 A 
HETATM   22  N   UNL     1      28.187  51.665  38.646  1.00  0.00    -0.266 NA
HETATM   23  C   UNL     1      28.861  52.793  38.988  1.00  0.00     0.117 A 
HETATM   24  C   UNL     1      28.966  53.271  40.283  1.00  0.00     0.019 A 
HETATM   25  C   UNL     1      28.333  52.565  41.298  1.00  0.00     0.003 A 
HETATM   26  C   UNL     1      27.610  51.419  40.985  1.00  0.00     0.027 A 
ENDBRANCH  20  21
ENDBRANCH  16  20
ENDBRANCH  15  16
ENDBRANCH   1  15
TORSDOF 7
ENDMDL
MODEL 7
REMARK VINA RESULT:      -8.1      2.911      4.574
REMARK  7 active torsions:
REMARK  status: ('A' for Active; 'I' for Inactive)
REMARK    1  A    between atoms: C_5  and  N_6 
REMARK    2  A    between atoms: N_6  and  C_9 
REMARK    3  A    between atoms: C_9  and  C_10 
REMARK    4  A    between atoms: C_10  and  C_11 
REMARK    5  A    between atoms: C_10  and  C_13 
REMARK    6  A    between atoms: C_11  and  O_12 
REMARK    7  A    between atoms: C_13  and  C_14 
ROOT
HETATM    1  N   UNL     1      28.508  42.459  51.983  1.00  0.00    -0.066 N 
HETATM    2  H   UNL     1      28.231  43.272  51.399  1.00  0.00     0.278 HD
HETATM    3  H   UNL     1      29.538  42.536  52.088  1.00  0.00     0.278 HD
ENDROOT
BRANCH   1   4
HETATM    4  C   UNL     1      27.890  42.554  53.325  1.00  0.00     0.220 C 
HETATM    5  C   UNL     1      28.703  43.417  54.240  1.00  0.00    -0.021 A 
HETATM    6  C   UNL     1      28.171  44.718  54.336  1.00  0.00    -0.040 A 
HETATM    7  C   UNL     1      29.870  43.052  54.898  1.00  0.00     0.010 A 
HETATM    8  C   UNL     1      28.843  45.695  55.069  1.00  0.00    -0.055 A 
HETATM    9  C   UNL     1      26.919  44.822  53.497  1.00  0.00     0.018 C 
HETATM   10  C   UNL     1      28.367  47.113  55.174  1.00  0.00     0.049 C 
HETATM   11  C   UNL     1      30.011  45.314  55.752  1.00  0.00     0.007 A 
HETATM   12  C   UNL     1      30.518  44.010  55.670  1.00  0.00     0.001 A 
HETATM   13  C   UNL     1      26.571  43.330  53.278  1.00  0.00     0.047 C 
HETATM   14  C   UNL     1      25.734  45.554  54.114  1.00  0.00     0.015 C 
ENDBRANCH   1   4
BRANCH   1  15
HETATM   15  C   UNL     1      28.241  41.218  51.209  1.00  0.00     0.240 C 
BRANCH  15  16
HETATM   16  C   UNL     1      26.853  41.278  50.541  1.00  0.00     0.040 C 
BRANCH  16  17
HETATM   17  C   UNL     1      26.405  39.868  50.126  1.00  0.00     0.170 C 
BRANCH  17  18
HETATM   18  O   UNL     1      27.495  38.958  50.300  1.00  0.00    -0.400 OA
HETATM   19  H   UNL     1      28.215  39.471  50.724  1.00  0.00     0.209 HD
ENDBRANCH  17  18
ENDBRANCH  16  17
BRANCH  16  20
HETATM   20  C   UNL     1      26.774  42.215  49.316  1.00  0.00     0.067 C 
BRANCH  20  21
HETATM   21  C   UNL     1      26.275  43.596  49.647  1.00  0.00     0.034 A 
HETATM   22  N   UNL     1      27.213  44.583  49.663  1.00  0.00    -0.266 NA
HETATM   23  C   UNL     1      26.765  45.837  49.931  1.00  0.00     0.117 A 
HETATM   24  C   UNL     1      25.448  46.143  50.224  1.00  0.00     0.019 A 
HETATM   25  C   UNL     1      24.519  45.112  50.233  1.00  0.00     0.003 A 
HETATM   26  C   UNL     1      24.933  43.817  49.938  1.00  0.00     0.027 A 
ENDBRANCH  20  21
ENDBRANCH  16  20
ENDBRANCH  15  16
ENDBRANCH   1  15
TORSDOF 7
ENDMDL
MODEL 8
REMARK VINA RESULT:      -8.0     11.825     14.141
REMARK  7 active torsions:
REMARK  status: ('A' for Active; 'I' for Inactive)
REMARK    1  A    between atoms: C_5  and  N_6 
REMARK    2  A    between atoms: N_6  and  C_9 
REMARK    3  A    between atoms: C_9  and  C_10 
REMARK    4  A    between atoms: C_10  and  C_11 
REMARK    5  A    between atoms: C_10  and  C_13 
REMARK    6  A    between atoms: C_11  and  O_12 
REMARK    7  A    between atoms: C_13  and  C_14 
ROOT
HETATM    1  N   UNL     1      27.242  51.193  40.939  1.00  0.00    -0.066 N 
HETATM    2  H   UNL     1      27.744  50.711  41.710  1.00  0.00     0.278 HD
HETATM    3  H   UNL     1      26.367  51.553  41.365  1.00  0.00     0.278 HD
ENDROOT
BRANCH   1   4
HETATM    4  C   UNL     1      28.036  52.343  40.449  1.00  0.00     0.220 C 
HETATM    5  C   UNL     1      29.432  52.310  40.986  1.00  0.00    -0.021 A 
HETATM    6  C   UNL     1      30.339  51.789  40.043  1.00  0.00    -0.040 A 
HETATM    7  C   UNL     1      29.836  52.685  42.261  1.00  0.00     0.010 A 
HETATM    8  C   UNL     1      31.674  51.592  40.392  1.00  0.00    -0.055 A 
HETATM    9  C   UNL     1      29.610  51.451  38.764  1.00  0.00     0.018 C 
HETATM   10  C   UNL     1      32.686  50.994  39.460  1.00  0.00     0.049 C 
HETATM   11  C   UNL     1      32.082  51.995  41.676  1.00  0.00     0.007 A 
HETATM   12  C   UNL     1      31.177  52.536  42.598  1.00  0.00     0.001 A 
HETATM   13  C   UNL     1      28.293  52.242  38.943  1.00  0.00     0.047 C 
HETATM   14  C   UNL     1      30.288  51.844  37.458  1.00  0.00     0.015 C 
ENDBRANCH   1   4
BRANCH   1  15
HETATM   15  C   UNL     1      26.848  50.172  39.932  1.00  0.00     0.240 C 
BRANCH  15  16
HETATM   16  C   UNL     1      27.491  48.809  40.253  1.00  0.00     0.040 C 
BRANCH  16  17
HETATM   17  C   UNL     1      26.428  47.701  40.210  1.00  0.00     0.170 C 
BRANCH  17  18
HETATM   18  O   UNL     1      25.517  47.879  41.298  1.00  0.00    -0.400 OA
HETATM   19  H   UNL     1      24.834  48.507  40.983  1.00  0.00     0.209 HD
ENDBRANCH  17  18
ENDBRANCH  16  17
BRANCH  16  20
HETATM   20  C   UNL     1      28.226  48.753  41.611  1.00  0.00     0.067 C 
BRANCH  20  21
HETATM   21  C   UNL     1      29.695  48.444  41.486  1.00  0.00     0.034 A 
HETATM   22  N   UNL     1      30.078  47.816  40.340  1.00  0.00    -0.266 NA
HETATM   23  C   UNL     1      31.405  47.562  40.207  1.00  0.00     0.117 A 
HETATM   24  C   UNL     1      32.352  47.861  41.170  1.00  0.00     0.019 A 
HETATM   25  C   UNL     1      31.928  48.472  42.343  1.00  0.00     0.003 A 
HETATM   26  C   UNL     1      30.580  48.772  42.507  1.00  0.00     0.027 A 
ENDBRANCH  20  21
ENDBRANCH  16  20
ENDBRANCH  15  16
ENDBRANCH   1  15
TORSDOF 7
ENDMDL
MODEL 9
REMARK VINA RESULT:      -7.7     12.900     14.597
REMARK  7 active torsions:
REMARK  status: ('A' for Active; 'I' for Inactive)
REMARK    1  A    between atoms: C_5  and  N_6 
REMARK    2  A    between atoms: N_6  and  C_9 
REMARK    3  A    between atoms: C_9  and  C_10 
REMARK    4  A    between atoms: C_10  and  C_11 
REMARK    5  A    between atoms: C_10  and  C_13 
REMARK    6  A    between atoms: C_11  and  O_12 
REMARK    7  A    between atoms: C_13  and  C_14 
ROOT
HETATM    1  N   UNL     1      29.224  48.722  39.429  1.00  0.00    -0.066 N 
HETATM    2  H   UNL     1      28.791  47.914  39.917  1.00  0.00     0.278 HD
HETATM    3  H   UNL     1      29.245  49.487  40.131  1.00  0.00     0.278 HD
ENDROOT
BRANCH   1   4
HETATM    4  C   UNL     1      30.617  48.401  39.041  1.00  0.00     0.220 C 
HETATM    5  C   UNL     1      31.502  49.604  39.146  1.00  0.00    -0.021 A 
HETATM    6  C   UNL     1      32.251  49.596  40.339  1.00  0.00    -0.040 A 
HETATM    7  C   UNL     1      31.582  50.652  38.238  1.00  0.00     0.010 A 
HETATM    8  C   UNL     1      33.065  50.680  40.660  1.00  0.00    -0.055 A 
HETATM    9  C   UNL     1      31.939  48.347  41.130  1.00  0.00     0.018 C 
HETATM   10  C   UNL     1      33.850  50.767  41.935  1.00  0.00     0.049 C 
HETATM   11  C   UNL     1      33.160  51.728  39.727  1.00  0.00     0.007 A 
HETATM   12  C   UNL     1      32.430  51.714  38.532  1.00  0.00     0.001 A 
HETATM   13  C   UNL     1      31.275  47.458  40.052  1.00  0.00     0.047 C 
HETATM   14  C   UNL     1      33.118  47.617  41.761  1.00  0.00     0.015 C 
ENDBRANCH   1   4
BRANCH   1  15
HETATM   15  C   UNL     1      28.308  49.153  38.341  1.00  0.00     0.240 C 
BRANCH  15  16
HETATM   16  C   UNL     1      27.361  50.266  38.832  1.00  0.00     0.040 C 
BRANCH  16  17
HETATM   17  C   UNL     1      25.991  50.132  38.149  1.00  0.00     0.170 C 
BRANCH  17  18
HETATM   18  O   UNL     1      26.174  49.654  36.814  1.00  0.00    -0.400 OA
HETATM   19  H   UNL     1      26.294  50.449  36.253  1.00  0.00     0.209 HD
ENDBRANCH  17  18
ENDBRANCH  16  17
BRANCH  16  20
HETATM   20  C   UNL     1      27.895  51.700  38.619  1.00  0.00     0.067 C 
BRANCH  20  21
HETATM   21  C   UNL     1      28.774  52.186  39.740  1.00  0.00     0.034 A 
HETATM   22  N   UNL     1      28.848  51.378  40.834  1.00  0.00    -0.266 NA
HETATM   23  C   UNL     1      29.664  51.795  41.837  1.00  0.00     0.117 A 
HETATM   24  C   UNL     1      30.367  52.986  41.820  1.00  0.00     0.019 A 
HETATM   25  C   UNL     1      30.246  53.805  40.705  1.00  0.00     0.003 A 
HETATM   26  C   UNL     1      29.441  53.403  39.645  1.00  0.00     0.027 A 
ENDBRANCH  20  21
ENDBRANCH  16  20
ENDBRANCH  15  16
ENDBRANCH   1  15
TORSDOF 7
ENDMDL
MODEL 10
REMARK VINA RESULT:      -7.7      1.885      7.804
REMARK  7 active torsions:
REMARK  status: ('A' for Active; 'I' for Inactive)
REMARK    1  A    between atoms: C_5  and  N_6 
REMARK    2  A    between atoms: N_6  and  C_9 
REMARK    3  A    between atoms: C_9  and  C_10 
REMARK    4  A    between atoms: C_10  and  C_11 
REMARK    5  A    between atoms: C_10  and  C_13 
REMARK    6  A    between atoms: C_11  and  O_12 
REMARK    7  A    between atoms: C_13  and  C_14 
ROOT
HETATM    1  N   UNL     1      25.060  46.123  51.655  1.00  0.00    -0.066 N 
HETATM    2  H   UNL     1      24.251  46.739  51.871  1.00  0.00     0.278 HD
HETATM    3  H   UNL     1      24.754  45.168  51.921  1.00  0.00     0.278 HD
ENDROOT
BRANCH   1   4
HETATM    4  C   UNL     1      25.344  46.139  50.202  1.00  0.00     0.220 C 
HETATM    5  C   UNL     1      24.253  46.824  49.440  1.00  0.00    -0.021 A 
HETATM    6  C   UNL     1      24.597  48.152  49.121  1.00  0.00    -0.040 A 
HETATM    7  C   UNL     1      23.017  46.287  49.105  1.00  0.00     0.010 A 
HETATM    8  C   UNL     1      23.671  48.983  48.493  1.00  0.00    -0.055 A 
HETATM    9  C   UNL     1      25.986  48.457  49.631  1.00  0.00     0.018 C 
HETATM   10  C   UNL     1      23.945  50.421  48.169  1.00  0.00     0.049 C 
HETATM   11  C   UNL     1      22.430  48.427  48.135  1.00  0.00     0.007 A 
HETATM   12  C   UNL     1      22.107  47.097  48.435  1.00  0.00     0.001 A 
HETATM   13  C   UNL     1      26.543  47.035  49.878  1.00  0.00     0.047 C 
HETATM   14  C   UNL     1      26.910  49.230  48.698  1.00  0.00     0.015 C 
ENDBRANCH   1   4
BRANCH   1  15
HETATM   15  C   UNL     1      26.179  46.491  52.561  1.00  0.00     0.240 C 
BRANCH  15  16
HETATM   16  C   UNL     1      26.725  45.247  53.291  1.00  0.00     0.040 C 
BRANCH  16  17
HETATM   17  C   UNL     1      25.668  44.133  53.295  1.00  0.00     0.170 C 
BRANCH  17  18
HETATM   18  O   UNL     1      24.704  44.401  54.316  1.00  0.00    -0.400 OA
HETATM   19  H   UNL     1      23.891  44.696  53.855  1.00  0.00     0.209 HD
ENDBRANCH  17  18
ENDBRANCH  16  17
BRANCH  16  20
HETATM   20  C   UNL     1      27.191  45.509  54.740  1.00  0.00     0.067 C 
BRANCH  20  21
HETATM   21  C   UNL     1      28.535  44.909  55.056  1.00  0.00     0.034 A 
HETATM   22  N   UNL     1      29.263  45.546  56.015  1.00  0.00    -0.266 NA
HETATM   23  C   UNL     1      30.463  44.993  56.328  1.00  0.00     0.117 A 
HETATM   24  C   UNL     1      30.985  43.872  55.706  1.00  0.00     0.019 A 
HETATM   25  C   UNL     1      30.235  43.263  54.709  1.00  0.00     0.003 A 
HETATM   26  C   UNL     1      28.989  43.784  54.377  1.00  0.00     0.027 A 
ENDBRANCH  20  21
ENDBRANCH  16  20
ENDBRANCH  15  16
ENDBRANCH   1  15
TORSDOF 7
ENDMDL
