MODEL 1
REMARK VINA RESULT:      -8.7      0.000      0.000
REMARK  14 active torsions:
REMARK  status: ('A' for Active; 'I' for Inactive)
REMARK    1  A    between atoms: C_2  and  N_3 
REMARK    2  A    between atoms: N_3  and  C_5 
REMARK    3  A    between atoms: N_3  and  C_39 
REMARK    4  A    between atoms: C_5  and  C_6 
REMARK    5  A    between atoms: C_6  and  C_7 
REMARK    6  A    between atoms: C_7  and  N_8 
REMARK    7  A    between atoms: C_11  and  O_12 
REMARK    8  A    between atoms: C_13  and  C_14 
REMARK    9  A    between atoms: C_14  and  C_15 
REMARK   10  A    between atoms: C_18  and  O_19 
REMARK   11  A    between atoms: O_19  and  C_20 
REMARK   12  A    between atoms: C_20  and  C_21 
REMARK   13  A    between atoms: C_31  and  C_32 
REMARK   14  A    between atoms: C_35  and  O_36 
ROOT
HETATM    1  N   UNL     1      19.564  49.796  48.375  1.00  0.00    -0.333 N 
HETATM    2  C   UNL     1      19.913  50.377  49.573  1.00  0.00     0.278 A 
HETATM    3  O   UNL     1      19.210  50.997  50.354  1.00  0.00    -0.265 OA
HETATM    4  C   UNL     1      21.378  50.247  49.725  1.00  0.00     0.146 A 
HETATM    5  C   UNL     1      21.823  49.550  48.675  1.00  0.00     0.059 A 
HETATM    6  C   UNL     1      20.713  49.139  47.754  1.00  0.00     0.161 A 
ENDROOT
BRANCH   5   7
HETATM    7  C   UNL     1      23.214  49.309  48.243  1.00  0.00     0.193 C 
HETATM    8  O   UNL     1      23.654  49.958  47.295  1.00  0.00    -0.287 OA
BRANCH   7   9
HETATM    9  C   UNL     1      24.095  48.350  48.954  1.00  0.00     0.015 A 
HETATM   10  C   UNL     1      23.661  47.083  49.359  1.00  0.00     0.018 A 
HETATM   11  C   UNL     1      24.527  46.229  50.055  1.00  0.00     0.038 A 
HETATM   12  C   UNL     1      25.837  46.625  50.326  1.00  0.00     0.069 A 
HETATM   13  C   UNL     1      26.286  47.865  49.867  1.00  0.00     0.038 A 
HETATM   14  C   UNL     1      25.422  48.725  49.185  1.00  0.00     0.018 A 
BRANCH  12  15
HETATM   15  O   UNL     1      26.775  45.891  50.994  1.00  0.00    -0.347 OA
BRANCH  15  16
HETATM   16  C   UNL     1      26.293  44.873  51.872  1.00  0.00     0.214 C 
BRANCH  16  17
HETATM   17  C   UNL     1      27.420  44.435  52.777  1.00  0.00    -0.034 A 
HETATM   18  C   UNL     1      28.360  43.488  52.351  1.00  0.00     0.010 A 
HETATM   19  C   UNL     1      29.421  43.116  53.182  1.00  0.00     0.007 A 
HETATM   20  C   UNL     1      29.559  43.684  54.454  1.00  0.00    -0.062 A 
HETATM   21  C   UNL     1      30.703  43.308  55.349  1.00  0.00     0.048 C 
HETATM   22  C   UNL     1      28.624  44.633  54.880  1.00  0.00     0.007 A 
HETATM   23  C   UNL     1      27.565  45.005  54.049  1.00  0.00     0.010 A 
ENDBRANCH  16  17
ENDBRANCH  15  16
ENDBRANCH  12  15
ENDBRANCH   7   9
ENDBRANCH   5   7
BRANCH   4  24
HETATM   24  O   UNL     1      22.076  50.873  50.712  1.00  0.00    -0.355 OA
HETATM   25  H   UNL     1      22.514  51.645  50.302  1.00  0.00     0.218 HD
ENDBRANCH   4  24
BRANCH   6  26
HETATM   26  C   UNL     1      20.535  47.638  47.620  1.00  0.00    -0.030 A 
HETATM   27  C   UNL     1      20.165  46.822  48.705  1.00  0.00     0.012 A 
HETATM   28  C   UNL     1      20.006  45.443  48.539  1.00  0.00     0.037 A 
HETATM   29  C   UNL     1      20.214  44.874  47.287  1.00  0.00     0.065 A 
HETATM   30  C   UNL     1      20.582  45.658  46.204  1.00  0.00     0.037 A 
HETATM   31  C   UNL     1      20.747  47.034  46.369  1.00  0.00     0.012 A 
BRANCH  29  32
HETATM   32  O   UNL     1      20.068  43.536  47.078  1.00  0.00    -0.361 OA
HETATM   33  H   UNL     1      19.133  43.295  47.178  1.00  0.00     0.217 HD
ENDBRANCH  29  32
ENDBRANCH   6  26
BRANCH   1  34
HETATM   34  C   UNL     1      18.213  49.627  47.849  1.00  0.00     0.129 C 
BRANCH  34  35
HETATM   35  C   UNL     1      17.856  50.529  46.661  1.00  0.00     0.048 C 
BRANCH  35  36
HETATM   36  C   UNL     1      17.914  52.011  47.029  1.00  0.00     0.236 C 
BRANCH  36  37
HETATM   37  N   UNL     1      16.555  52.681  46.844  1.00  0.00    -0.072 N 
HETATM   38  H   UNL     1      16.685  53.695  46.959  1.00  0.00     0.279 HD
BRANCH  37  39
HETATM   39  C   UNL     1      15.556  52.217  47.893  1.00  0.00     0.230 C 
HETATM   40  C   UNL     1      16.079  52.478  49.294  1.00  0.00     0.034 C 
ENDBRANCH  37  39
BRANCH  37  41
HETATM   41  C   UNL     1      16.030  52.452  45.426  1.00  0.00     0.230 C 
HETATM   42  C   UNL     1      16.767  53.323  44.424  1.00  0.00     0.034 C 
ENDBRANCH  37  41
ENDBRANCH  36  37
ENDBRANCH  35  36
ENDBRANCH  34  35
ENDBRANCH   1  34
TORSDOF 14
ENDMDL
MODEL 2
REMARK VINA RESULT:      -8.7      1.572      2.169
REMARK  14 active torsions:
REMARK  status: ('A' for Active; 'I' for Inactive)
REMARK    1  A    between atoms: C_2  and  N_3 
REMARK    2  A    between atoms: N_3  and  C_5 
REMARK    3  A    between atoms: N_3  and  C_39 
REMARK    4  A    between atoms: C_5  and  C_6 
REMARK    5  A    between atoms: C_6  and  C_7 
REMARK    6  A    between atoms: C_7  and  N_8 
REMARK    7  A    between atoms: C_11  and  O_12 
REMARK    8  A    between atoms: C_13  and  C_14 
REMARK    9  A    between atoms: C_14  and  C_15 
REMARK   10  A    between atoms: C_18  and  O_19 
REMARK   11  A    between atoms: O_19  and  C_20 
REMARK   12  A    between atoms: C_20  and  C_21 
REMARK   13  A    between atoms: C_31  and  C_32 
REMARK   14  A    between atoms: C_35  and  O_36 
ROOT
HETATM    1  N   UNL     1      19.769  49.974  48.341  1.00  0.00    -0.333 N 
HETATM    2  C   UNL     1      20.106  50.559  49.540  1.00  0.00     0.278 A 
HETATM    3  O   UNL     1      19.404  51.211  50.296  1.00  0.00    -0.265 OA
HETATM    4  C   UNL     1      21.563  50.387  49.728  1.00  0.00     0.146 A 
HETATM    5  C   UNL     1      22.011  49.664  48.698  1.00  0.00     0.059 A 
HETATM    6  C   UNL     1      20.912  49.274  47.756  1.00  0.00     0.161 A 
ENDROOT
BRANCH   5   7
HETATM    7  C   UNL     1      23.404  49.375  48.302  1.00  0.00     0.193 C 
HETATM    8  O   UNL     1      23.879  49.983  47.344  1.00  0.00    -0.287 OA
BRANCH   7   9
HETATM    9  C   UNL     1      24.246  48.417  49.060  1.00  0.00     0.015 A 
HETATM   10  C   UNL     1      23.736  47.236  49.612  1.00  0.00     0.018 A 
HETATM   11  C   UNL     1      24.571  46.382  50.345  1.00  0.00     0.038 A 
HETATM   12  C   UNL     1      25.923  46.689  50.508  1.00  0.00     0.069 A 
HETATM   13  C   UNL     1      26.441  47.836  49.904  1.00  0.00     0.038 A 
HETATM   14  C   UNL     1      25.610  48.698  49.184  1.00  0.00     0.018 A 
BRANCH  12  15
HETATM   15  O   UNL     1      26.837  45.944  51.198  1.00  0.00    -0.347 OA
BRANCH  15  16
HETATM   16  C   UNL     1      26.323  44.999  52.136  1.00  0.00     0.214 C 
BRANCH  16  17
HETATM   17  C   UNL     1      27.448  44.543  53.035  1.00  0.00    -0.034 A 
HETATM   18  C   UNL     1      28.290  43.489  52.658  1.00  0.00     0.010 A 
HETATM   19  C   UNL     1      29.352  43.099  53.479  1.00  0.00     0.007 A 
HETATM   20  C   UNL     1      29.588  43.754  54.693  1.00  0.00    -0.062 A 
HETATM   21  C   UNL     1      30.735  43.357  55.576  1.00  0.00     0.048 C 
HETATM   22  C   UNL     1      28.751  44.810  55.070  1.00  0.00     0.007 A 
HETATM   23  C   UNL     1      27.692  45.200  54.249  1.00  0.00     0.010 A 
ENDBRANCH  16  17
ENDBRANCH  15  16
ENDBRANCH  12  15
ENDBRANCH   7   9
ENDBRANCH   5   7
BRANCH   4  24
HETATM   24  O   UNL     1      22.257  51.004  50.724  1.00  0.00    -0.355 OA
HETATM   25  H   UNL     1      21.618  51.187  51.441  1.00  0.00     0.218 HD
ENDBRANCH   4  24
BRANCH   6  26
HETATM   26  C   UNL     1      20.690  47.777  47.636  1.00  0.00    -0.030 A 
HETATM   27  C   UNL     1      20.299  46.982  48.729  1.00  0.00     0.012 A 
HETATM   28  C   UNL     1      20.102  45.607  48.576  1.00  0.00     0.037 A 
HETATM   29  C   UNL     1      20.291  45.020  47.330  1.00  0.00     0.065 A 
HETATM   30  C   UNL     1      20.679  45.784  46.239  1.00  0.00     0.037 A 
HETATM   31  C   UNL     1      20.884  47.156  46.390  1.00  0.00     0.012 A 
BRANCH  29  32
HETATM   32  O   UNL     1      20.107  43.686  47.133  1.00  0.00    -0.361 OA
HETATM   33  H   UNL     1      19.580  43.323  47.863  1.00  0.00     0.217 HD
ENDBRANCH  29  32
ENDBRANCH   6  26
BRANCH   1  34
HETATM   34  C   UNL     1      18.426  49.839  47.785  1.00  0.00     0.129 C 
BRANCH  34  35
HETATM   35  C   UNL     1      17.442  49.032  48.639  1.00  0.00     0.048 C 
BRANCH  35  36
HETATM   36  C   UNL     1      16.015  49.113  48.101  1.00  0.00     0.236 C 
BRANCH  36  37
HETATM   37  N   UNL     1      15.645  47.855  47.319  1.00  0.00    -0.072 N 
HETATM   38  H   UNL     1      14.824  47.432  47.771  1.00  0.00     0.279 HD
BRANCH  37  39
HETATM   39  C   UNL     1      16.770  46.831  47.346  1.00  0.00     0.230 C 
HETATM   40  C   UNL     1      17.111  46.359  45.943  1.00  0.00     0.034 C 
ENDBRANCH  37  39
BRANCH  37  41
HETATM   41  C   UNL     1      15.242  48.209  45.887  1.00  0.00     0.230 C 
HETATM   42  C   UNL     1      13.742  48.067  45.693  1.00  0.00     0.034 C 
ENDBRANCH  37  41
ENDBRANCH  36  37
ENDBRANCH  35  36
ENDBRANCH  34  35
ENDBRANCH   1  34
TORSDOF 14
ENDMDL
MODEL 3
REMARK VINA RESULT:      -8.6      1.911      3.945
REMARK  14 active torsions:
REMARK  status: ('A' for Active; 'I' for Inactive)
REMARK    1  A    between atoms: C_2  and  N_3 
REMARK    2  A    between atoms: N_3  and  C_5 
REMARK    3  A    between atoms: N_3  and  C_39 
REMARK    4  A    between atoms: C_5  and  C_6 
REMARK    5  A    between atoms: C_6  and  C_7 
REMARK    6  A    between atoms: C_7  and  N_8 
REMARK    7  A    between atoms: C_11  and  O_12 
REMARK    8  A    between atoms: C_13  and  C_14 
REMARK    9  A    between atoms: C_14  and  C_15 
REMARK   10  A    between atoms: C_18  and  O_19 
REMARK   11  A    between atoms: O_19  and  C_20 
REMARK   12  A    between atoms: C_20  and  C_21 
REMARK   13  A    between atoms: C_31  and  C_32 
REMARK   14  A    between atoms: C_35  and  O_36 
ROOT
HETATM    1  N   UNL     1      19.495  46.590  48.042  1.00  0.00    -0.333 N 
HETATM    2  C   UNL     1      20.033  45.981  46.931  1.00  0.00     0.278 A 
HETATM    3  O   UNL     1      19.513  45.181  46.171  1.00  0.00    -0.265 OA
HETATM    4  C   UNL     1      21.462  46.358  46.862  1.00  0.00     0.146 A 
HETATM    5  C   UNL     1      21.694  47.210  47.865  1.00  0.00     0.059 A 
HETATM    6  C   UNL     1      20.460  47.492  48.667  1.00  0.00     0.161 A 
ENDROOT
BRANCH   5   7
HETATM    7  C   UNL     1      22.983  47.732  48.360  1.00  0.00     0.193 C 
HETATM    8  O   UNL     1      23.362  48.832  47.959  1.00  0.00    -0.287 OA
BRANCH   7   9
HETATM    9  C   UNL     1      23.793  46.990  49.357  1.00  0.00     0.015 A 
HETATM   10  C   UNL     1      24.699  47.622  50.215  1.00  0.00     0.018 A 
HETATM   11  C   UNL     1      25.461  46.868  51.117  1.00  0.00     0.038 A 
HETATM   12  C   UNL     1      25.303  45.483  51.185  1.00  0.00     0.069 A 
HETATM   13  C   UNL     1      24.354  44.862  50.370  1.00  0.00     0.038 A 
HETATM   14  C   UNL     1      23.603  45.608  49.460  1.00  0.00     0.018 A 
BRANCH  12  15
HETATM   15  O   UNL     1      25.983  44.638  52.015  1.00  0.00    -0.347 OA
BRANCH  15  16
HETATM   16  C   UNL     1      27.188  44.065  51.508  1.00  0.00     0.214 C 
BRANCH  16  17
HETATM   17  C   UNL     1      28.171  43.911  52.643  1.00  0.00    -0.034 A 
HETATM   18  C   UNL     1      27.984  44.586  53.856  1.00  0.00     0.010 A 
HETATM   19  C   UNL     1      28.880  44.409  54.914  1.00  0.00     0.007 A 
HETATM   20  C   UNL     1      29.980  43.556  54.777  1.00  0.00    -0.062 A 
HETATM   21  C   UNL     1      30.940  43.343  55.911  1.00  0.00     0.048 C 
HETATM   22  C   UNL     1      30.169  42.878  53.568  1.00  0.00     0.007 A 
HETATM   23  C   UNL     1      29.273  43.054  52.511  1.00  0.00     0.010 A 
ENDBRANCH  16  17
ENDBRANCH  15  16
ENDBRANCH  12  15
ENDBRANCH   7   9
ENDBRANCH   5   7
BRANCH   4  24
HETATM   24  O   UNL     1      22.335  45.786  45.987  1.00  0.00    -0.355 OA
HETATM   25  H   UNL     1      22.134  46.156  45.105  1.00  0.00     0.218 HD
ENDBRANCH   4  24
BRANCH   6  26
HETATM   26  C   UNL     1      20.015  48.943  48.643  1.00  0.00    -0.030 A 
HETATM   27  C   UNL     1      19.686  49.651  49.814  1.00  0.00     0.012 A 
HETATM   28  C   UNL     1      19.284  50.988  49.751  1.00  0.00     0.037 A 
HETATM   29  C   UNL     1      19.211  51.625  48.517  1.00  0.00     0.065 A 
HETATM   30  C   UNL     1      19.528  50.947  47.349  1.00  0.00     0.037 A 
HETATM   31  C   UNL     1      19.923  49.610  47.410  1.00  0.00     0.012 A 
BRANCH  29  32
HETATM   32  O   UNL     1      18.828  52.927  48.407  1.00  0.00    -0.361 OA
HETATM   33  H   UNL     1      18.744  53.158  47.468  1.00  0.00     0.217 HD
ENDBRANCH  29  32
ENDBRANCH   6  26
BRANCH   1  34
HETATM   34  C   UNL     1      18.097  46.558  48.461  1.00  0.00     0.129 C 
BRANCH  34  35
HETATM   35  C   UNL     1      17.124  47.315  47.550  1.00  0.00     0.048 C 
BRANCH  35  36
HETATM   36  C   UNL     1      16.029  48.025  48.344  1.00  0.00     0.236 C 
BRANCH  36  37
HETATM   37  N   UNL     1      15.182  48.920  47.442  1.00  0.00    -0.072 N 
HETATM   38  H   UNL     1      14.286  49.090  47.919  1.00  0.00     0.279 HD
BRANCH  37  39
HETATM   39  C   UNL     1      14.881  48.246  46.112  1.00  0.00     0.230 C 
HETATM   40  C   UNL     1      13.558  48.727  45.545  1.00  0.00     0.034 C 
ENDBRANCH  37  39
BRANCH  37  41
HETATM   41  C   UNL     1      15.855  50.278  47.246  1.00  0.00     0.230 C 
HETATM   42  C   UNL     1      15.676  51.157  48.472  1.00  0.00     0.034 C 
ENDBRANCH  37  41
ENDBRANCH  36  37
ENDBRANCH  35  36
ENDBRANCH  34  35
ENDBRANCH   1  34
TORSDOF 14
ENDMDL
MODEL 4
REMARK VINA RESULT:      -8.3      4.091     11.393
REMARK  14 active torsions:
REMARK  status: ('A' for Active; 'I' for Inactive)
REMARK    1  A    between atoms: C_2  and  N_3 
REMARK    2  A    between atoms: N_3  and  C_5 
REMARK    3  A    between atoms: N_3  and  C_39 
REMARK    4  A    between atoms: C_5  and  C_6 
REMARK    5  A    between atoms: C_6  and  C_7 
REMARK    6  A    between atoms: C_7  and  N_8 
REMARK    7  A    between atoms: C_11  and  O_12 
REMARK    8  A    between atoms: C_13  and  C_14 
REMARK    9  A    between atoms: C_14  and  C_15 
REMARK   10  A    between atoms: C_18  and  O_19 
REMARK   11  A    between atoms: O_19  and  C_20 
REMARK   12  A    between atoms: C_20  and  C_21 
REMARK   13  A    between atoms: C_31  and  C_32 
REMARK   14  A    between atoms: C_35  and  O_36 
ROOT
HETATM    1  N   UNL     1      28.102  42.493  51.488  1.00  0.00    -0.333 N 
HETATM    2  C   UNL     1      27.661  41.282  51.972  1.00  0.00     0.278 A 
HETATM    3  O   UNL     1      28.129  40.603  52.871  1.00  0.00    -0.265 OA
HETATM    4  C   UNL     1      26.552  40.831  51.104  1.00  0.00     0.146 A 
HETATM    5  C   UNL     1      26.334  41.798  50.207  1.00  0.00     0.059 A 
HETATM    6  C   UNL     1      27.246  42.971  50.404  1.00  0.00     0.161 A 
ENDROOT
BRANCH   5   7
HETATM    7  C   UNL     1      25.478  41.772  49.005  1.00  0.00     0.193 C 
HETATM    8  O   UNL     1      25.695  40.915  48.150  1.00  0.00    -0.287 OA
BRANCH   7   9
HETATM    9  C   UNL     1      24.346  42.715  48.835  1.00  0.00     0.015 A 
HETATM   10  C   UNL     1      24.143  43.448  47.660  1.00  0.00     0.018 A 
HETATM   11  C   UNL     1      23.073  44.348  47.566  1.00  0.00     0.038 A 
HETATM   12  C   UNL     1      22.186  44.501  48.632  1.00  0.00     0.069 A 
HETATM   13  C   UNL     1      22.356  43.723  49.779  1.00  0.00     0.038 A 
HETATM   14  C   UNL     1      23.428  42.835  49.884  1.00  0.00     0.018 A 
BRANCH  12  15
HETATM   15  O   UNL     1      21.111  45.342  48.666  1.00  0.00    -0.347 OA
BRANCH  15  16
HETATM   16  C   UNL     1      20.765  45.999  47.447  1.00  0.00     0.214 C 
BRANCH  16  17
HETATM   17  C   UNL     1      20.649  47.482  47.708  1.00  0.00    -0.034 A 
HETATM   18  C   UNL     1      19.792  48.284  46.942  1.00  0.00     0.010 A 
HETATM   19  C   UNL     1      19.664  49.649  47.215  1.00  0.00     0.007 A 
HETATM   20  C   UNL     1      20.390  50.236  48.257  1.00  0.00    -0.062 A 
HETATM   21  C   UNL     1      20.248  51.696  48.573  1.00  0.00     0.048 C 
HETATM   22  C   UNL     1      21.244  49.437  49.026  1.00  0.00     0.007 A 
HETATM   23  C   UNL     1      21.371  48.073  48.754  1.00  0.00     0.010 A 
ENDBRANCH  16  17
ENDBRANCH  15  16
ENDBRANCH  12  15
ENDBRANCH   7   9
ENDBRANCH   5   7
BRANCH   4  24
HETATM   24  O   UNL     1      26.006  39.586  51.191  1.00  0.00    -0.355 OA
HETATM   25  H   UNL     1      25.061  39.676  50.960  1.00  0.00     0.218 HD
ENDBRANCH   4  24
BRANCH   6  26
HETATM   26  C   UNL     1      26.534  44.269  50.741  1.00  0.00    -0.030 A 
HETATM   27  C   UNL     1      25.722  44.410  51.881  1.00  0.00     0.012 A 
HETATM   28  C   UNL     1      25.086  45.624  52.159  1.00  0.00     0.037 A 
HETATM   29  C   UNL     1      25.262  46.702  51.299  1.00  0.00     0.065 A 
HETATM   30  C   UNL     1      26.055  46.585  50.167  1.00  0.00     0.037 A 
HETATM   31  C   UNL     1      26.685  45.373  49.884  1.00  0.00     0.012 A 
BRANCH  29  32
HETATM   32  O   UNL     1      24.665  47.904  51.530  1.00  0.00    -0.361 OA
HETATM   33  H   UNL     1      25.347  48.581  51.665  1.00  0.00     0.217 HD
ENDBRANCH  29  32
ENDBRANCH   6  26
BRANCH   1  34
HETATM   34  C   UNL     1      29.133  43.343  52.077  1.00  0.00     0.129 C 
BRANCH  34  35
HETATM   35  C   UNL     1      28.866  43.793  53.518  1.00  0.00     0.048 C 
BRANCH  35  36
HETATM   36  C   UNL     1      30.024  43.445  54.451  1.00  0.00     0.236 C 
BRANCH  36  37
HETATM   37  N   UNL     1      29.893  44.168  55.790  1.00  0.00    -0.072 N 
HETATM   38  H   UNL     1      29.348  43.567  56.422  1.00  0.00     0.279 HD
BRANCH  37  39
HETATM   39  C   UNL     1      29.147  45.486  55.640  1.00  0.00     0.230 C 
HETATM   40  C   UNL     1      28.949  46.155  56.989  1.00  0.00     0.034 C 
ENDBRANCH  37  39
BRANCH  37  41
HETATM   41  C   UNL     1      31.267  44.369  56.430  1.00  0.00     0.230 C 
HETATM   42  C   UNL     1      31.729  43.106  57.137  1.00  0.00     0.034 C 
ENDBRANCH  37  41
ENDBRANCH  36  37
ENDBRANCH  35  36
ENDBRANCH  34  35
ENDBRANCH   1  34
TORSDOF 14
ENDMDL
MODEL 5
REMARK VINA RESULT:      -8.1      2.528      4.923
REMARK  14 active torsions:
REMARK  status: ('A' for Active; 'I' for Inactive)
REMARK    1  A    between atoms: C_2  and  N_3 
REMARK    2  A    between atoms: N_3  and  C_5 
REMARK    3  A    between atoms: N_3  and  C_39 
REMARK    4  A    between atoms: C_5  and  C_6 
REMARK    5  A    between atoms: C_6  and  C_7 
REMARK    6  A    between atoms: C_7  and  N_8 
REMARK    7  A    between atoms: C_11  and  O_12 
REMARK    8  A    between atoms: C_13  and  C_14 
REMARK    9  A    between atoms: C_14  and  C_15 
REMARK   10  A    between atoms: C_18  and  O_19 
REMARK   11  A    between atoms: O_19  and  C_20 
REMARK   12  A    between atoms: C_20  and  C_21 
REMARK   13  A    between atoms: C_31  and  C_32 
REMARK   14  A    between atoms: C_35  and  O_36 
ROOT
HETATM    1  N   UNL     1      21.648  45.502  46.519  1.00  0.00    -0.333 N 
HETATM    2  C   UNL     1      22.640  44.664  46.063  1.00  0.00     0.278 A 
HETATM    3  O   UNL     1      22.919  44.366  44.913  1.00  0.00    -0.265 OA
HETATM    4  C   UNL     1      23.275  44.038  47.242  1.00  0.00     0.146 A 
HETATM    5  C   UNL     1      22.700  44.566  48.327  1.00  0.00     0.059 A 
HETATM    6  C   UNL     1      21.664  45.592  47.978  1.00  0.00     0.161 A 
ENDROOT
BRANCH   5   7
HETATM    7  C   UNL     1      22.827  44.153  49.739  1.00  0.00     0.193 C 
HETATM    8  O   UNL     1      21.821  43.757  50.325  1.00  0.00    -0.287 OA
BRANCH   7   9
HETATM    9  C   UNL     1      24.135  44.158  50.437  1.00  0.00     0.015 A 
HETATM   10  C   UNL     1      24.951  43.024  50.519  1.00  0.00     0.018 A 
HETATM   11  C   UNL     1      26.164  43.077  51.219  1.00  0.00     0.038 A 
HETATM   12  C   UNL     1      26.581  44.268  51.815  1.00  0.00     0.069 A 
HETATM   13  C   UNL     1      25.794  45.413  51.679  1.00  0.00     0.038 A 
HETATM   14  C   UNL     1      24.577  45.362  50.995  1.00  0.00     0.018 A 
BRANCH  12  15
HETATM   15  O   UNL     1      27.735  44.450  52.523  1.00  0.00    -0.347 OA
BRANCH  15  16
HETATM   16  C   UNL     1      27.624  45.114  53.781  1.00  0.00     0.214 C 
BRANCH  16  17
HETATM   17  C   UNL     1      28.754  44.661  54.675  1.00  0.00    -0.034 A 
HETATM   18  C   UNL     1      29.333  43.395  54.519  1.00  0.00     0.010 A 
HETATM   19  C   UNL     1      30.403  42.999  55.326  1.00  0.00     0.007 A 
HETATM   20  C   UNL     1      30.911  43.861  56.305  1.00  0.00    -0.062 A 
HETATM   21  C   UNL     1      32.071  43.456  57.166  1.00  0.00     0.048 C 
HETATM   22  C   UNL     1      30.336  45.127  56.460  1.00  0.00     0.007 A 
HETATM   23  C   UNL     1      29.268  45.523  55.653  1.00  0.00     0.010 A 
ENDBRANCH  16  17
ENDBRANCH  15  16
ENDBRANCH  12  15
ENDBRANCH   7   9
ENDBRANCH   5   7
BRANCH   4  24
HETATM   24  O   UNL     1      24.174  43.019  47.143  1.00  0.00    -0.355 OA
HETATM   25  H   UNL     1      25.028  43.365  47.470  1.00  0.00     0.218 HD
ENDBRANCH   4  24
BRANCH   6  26
HETATM   26  C   UNL     1      21.972  46.990  48.481  1.00  0.00    -0.030 A 
HETATM   27  C   UNL     1      23.285  47.486  48.575  1.00  0.00     0.012 A 
HETATM   28  C   UNL     1      23.527  48.782  49.040  1.00  0.00     0.037 A 
HETATM   29  C   UNL     1      22.457  49.589  49.410  1.00  0.00     0.065 A 
HETATM   30  C   UNL     1      21.154  49.120  49.329  1.00  0.00     0.037 A 
HETATM   31  C   UNL     1      20.911  47.825  48.872  1.00  0.00     0.012 A 
BRANCH  29  32
HETATM   32  O   UNL     1      22.644  50.858  49.866  1.00  0.00    -0.361 OA
HETATM   33  H   UNL     1      23.587  51.082  49.815  1.00  0.00     0.217 HD
ENDBRANCH  29  32
ENDBRANCH   6  26
BRANCH   1  34
HETATM   34  C   UNL     1      20.810  46.382  45.710  1.00  0.00     0.129 C 
BRANCH  34  35
HETATM   35  C   UNL     1      19.301  46.247  45.945  1.00  0.00     0.048 C 
BRANCH  35  36
HETATM   36  C   UNL     1      18.596  47.601  45.932  1.00  0.00     0.236 C 
BRANCH  36  37
HETATM   37  N   UNL     1      17.137  47.470  46.363  1.00  0.00    -0.072 N 
HETATM   38  H   UNL     1      16.925  46.468  46.458  1.00  0.00     0.279 HD
BRANCH  37  39
HETATM   39  C   UNL     1      16.193  48.050  45.320  1.00  0.00     0.230 C 
HETATM   40  C   UNL     1      14.792  48.209  45.882  1.00  0.00     0.034 C 
ENDBRANCH  37  39
BRANCH  37  41
HETATM   41  C   UNL     1      16.920  48.110  47.735  1.00  0.00     0.230 C 
HETATM   42  C   UNL     1      16.847  47.053  48.824  1.00  0.00     0.034 C 
ENDBRANCH  37  41
ENDBRANCH  36  37
ENDBRANCH  35  36
ENDBRANCH  34  35
ENDBRANCH   1  34
TORSDOF 14
ENDMDL
MODEL 6
REMARK VINA RESULT:      -7.9     11.584     13.531
REMARK  14 active torsions:
REMARK  status: ('A' for Active; 'I' for Inactive)
REMARK    1  A    between atoms: C_2  and  N_3 
REMARK    2  A    between atoms: N_3  and  C_5 
REMARK    3  A    between atoms: N_3  and  C_39 
REMARK    4  A    between atoms: C_5  and  C_6 
REMARK    5  A    between atoms: C_6  and  C_7 
REMARK    6  A    between atoms: C_7  and  N_8 
REMARK    7  A    between atoms: C_11  and  O_12 
REMARK    8  A    between atoms: C_13  and  C_14 
REMARK    9  A    between atoms: C_14  and  C_15 
REMARK   10  A    between atoms: C_18  and  O_19 
REMARK   11  A    between atoms: O_19  and  C_20 
REMARK   12  A    between atoms: C_20  and  C_21 
REMARK   13  A    between atoms: C_31  and  C_32 
REMARK   14  A    between atoms: C_35  and  O_36 
ROOT
HETATM    1  N   UNL     1      29.767  51.401  39.820  1.00  0.00    -0.333 N 
HETATM    2  C   UNL     1      29.411  52.379  40.720  1.00  0.00     0.278 A 
HETATM    3  O   UNL     1      28.761  53.394  40.529  1.00  0.00    -0.265 OA
HETATM    4  C   UNL     1      30.080  52.072  42.003  1.00  0.00     0.146 A 
HETATM    5  C   UNL     1      30.732  50.917  41.841  1.00  0.00     0.059 A 
HETATM    6  C   UNL     1      30.543  50.346  40.468  1.00  0.00     0.161 A 
ENDROOT
BRANCH   5   7
HETATM    7  C   UNL     1      31.708  50.268  42.739  1.00  0.00     0.193 C 
HETATM    8  O   UNL     1      31.398  49.200  43.266  1.00  0.00    -0.287 OA
BRANCH   7   9
HETATM    9  C   UNL     1      33.054  50.844  42.974  1.00  0.00     0.015 A 
HETATM   10  C   UNL     1      33.332  51.706  44.041  1.00  0.00     0.018 A 
HETATM   11  C   UNL     1      34.615  52.246  44.197  1.00  0.00     0.038 A 
HETATM   12  C   UNL     1      35.634  51.907  43.305  1.00  0.00     0.069 A 
HETATM   13  C   UNL     1      35.369  50.999  42.277  1.00  0.00     0.038 A 
HETATM   14  C   UNL     1      34.088  50.470  42.109  1.00  0.00     0.018 A 
BRANCH  12  15
HETATM   15  O   UNL     1      36.920  52.364  43.346  1.00  0.00    -0.347 OA
BRANCH  15  16
HETATM   16  C   UNL     1      37.576  52.337  44.613  1.00  0.00     0.214 C 
BRANCH  16  17
HETATM   17  C   UNL     1      38.064  53.728  44.941  1.00  0.00    -0.034 A 
HETATM   18  C   UNL     1      38.538  54.043  46.221  1.00  0.00     0.010 A 
HETATM   19  C   UNL     1      39.022  55.323  46.504  1.00  0.00     0.007 A 
HETATM   20  C   UNL     1      39.039  56.311  45.513  1.00  0.00    -0.062 A 
HETATM   21  C   UNL     1      39.572  57.684  45.798  1.00  0.00     0.048 C 
HETATM   22  C   UNL     1      38.569  55.998  44.232  1.00  0.00     0.007 A 
HETATM   23  C   UNL     1      38.086  54.719  43.950  1.00  0.00     0.010 A 
ENDBRANCH  16  17
ENDBRANCH  15  16
ENDBRANCH  12  15
ENDBRANCH   7   9
ENDBRANCH   5   7
BRANCH   4  24
HETATM   24  O   UNL     1      30.087  52.935  43.057  1.00  0.00    -0.355 OA
HETATM   25  H   UNL     1      29.508  53.683  42.813  1.00  0.00     0.218 HD
ENDBRANCH   4  24
BRANCH   6  26
HETATM   26  C   UNL     1      29.847  48.997  40.440  1.00  0.00    -0.030 A 
HETATM   27  C   UNL     1      28.683  48.735  41.184  1.00  0.00     0.012 A 
HETATM   28  C   UNL     1      28.068  47.480  41.129  1.00  0.00     0.037 A 
HETATM   29  C   UNL     1      28.614  46.484  40.327  1.00  0.00     0.065 A 
HETATM   30  C   UNL     1      29.764  46.719  39.588  1.00  0.00     0.037 A 
HETATM   31  C   UNL     1      30.382  47.968  39.646  1.00  0.00     0.012 A 
BRANCH  29  32
HETATM   32  O   UNL     1      28.049  45.248  40.240  1.00  0.00    -0.361 OA
HETATM   33  H   UNL     1      27.391  45.145  40.946  1.00  0.00     0.217 HD
ENDBRANCH  29  32
ENDBRANCH   6  26
BRANCH   1  34
HETATM   34  C   UNL     1      29.282  51.260  38.450  1.00  0.00     0.129 C 
BRANCH  34  35
HETATM   35  C   UNL     1      27.759  51.167  38.302  1.00  0.00     0.048 C 
BRANCH  35  36
HETATM   36  C   UNL     1      27.283  49.722  38.168  1.00  0.00     0.236 C 
BRANCH  36  37
HETATM   37  N   UNL     1      25.915  49.649  37.493  1.00  0.00    -0.072 N 
HETATM   38  H   UNL     1      25.816  50.478  36.892  1.00  0.00     0.279 HD
BRANCH  37  39
HETATM   39  C   UNL     1      24.788  49.675  38.515  1.00  0.00     0.230 C 
HETATM   40  C   UNL     1      23.458  49.335  37.866  1.00  0.00     0.034 C 
ENDBRANCH  37  39
BRANCH  37  41
HETATM   41  C   UNL     1      25.826  48.420  36.588  1.00  0.00     0.230 C 
HETATM   42  C   UNL     1      26.564  47.240  37.196  1.00  0.00     0.034 C 
ENDBRANCH  37  41
ENDBRANCH  36  37
ENDBRANCH  35  36
ENDBRANCH  34  35
ENDBRANCH   1  34
TORSDOF 14
ENDMDL
MODEL 7
REMARK VINA RESULT:      -7.9      6.540     11.456
REMARK  14 active torsions:
REMARK  status: ('A' for Active; 'I' for Inactive)
REMARK    1  A    between atoms: C_2  and  N_3 
REMARK    2  A    between atoms: N_3  and  C_5 
REMARK    3  A    between atoms: N_3  and  C_39 
REMARK    4  A    between atoms: C_5  and  C_6 
REMARK    5  A    between atoms: C_6  and  C_7 
REMARK    6  A    between atoms: C_7  and  N_8 
REMARK    7  A    between atoms: C_11  and  O_12 
REMARK    8  A    between atoms: C_13  and  C_14 
REMARK    9  A    between atoms: C_14  and  C_15 
REMARK   10  A    between atoms: C_18  and  O_19 
REMARK   11  A    between atoms: O_19  and  C_20 
REMARK   12  A    between atoms: C_20  and  C_21 
REMARK   13  A    between atoms: C_31  and  C_32 
REMARK   14  A    between atoms: C_35  and  O_36 
ROOT
HETATM    1  N   UNL     1      28.282  42.737  52.048  1.00  0.00    -0.333 N 
HETATM    2  C   UNL     1      27.827  41.486  52.394  1.00  0.00     0.278 A 
HETATM    3  O   UNL     1      28.059  40.841  53.404  1.00  0.00    -0.265 OA
HETATM    4  C   UNL     1      27.077  40.946  51.239  1.00  0.00     0.146 A 
HETATM    5  C   UNL     1      27.055  41.900  50.303  1.00  0.00     0.059 A 
HETATM    6  C   UNL     1      27.755  43.149  50.748  1.00  0.00     0.161 A 
ENDROOT
BRANCH   5   7
HETATM    7  C   UNL     1      26.610  41.811  48.898  1.00  0.00     0.193 C 
HETATM    8  O   UNL     1      27.450  41.933  48.009  1.00  0.00    -0.287 OA
BRANCH   7   9
HETATM    9  C   UNL     1      25.196  41.530  48.546  1.00  0.00     0.015 A 
HETATM   10  C   UNL     1      24.124  42.225  49.116  1.00  0.00     0.018 A 
HETATM   11  C   UNL     1      22.806  41.897  48.769  1.00  0.00     0.038 A 
HETATM   12  C   UNL     1      22.555  40.894  47.832  1.00  0.00     0.069 A 
HETATM   13  C   UNL     1      23.629  40.245  47.220  1.00  0.00     0.038 A 
HETATM   14  C   UNL     1      24.943  40.558  47.573  1.00  0.00     0.018 A 
BRANCH  12  15
HETATM   15  O   UNL     1      21.323  40.480  47.411  1.00  0.00    -0.347 OA
BRANCH  15  16
HETATM   16  C   UNL     1      21.286  39.371  46.513  1.00  0.00     0.214 C 
BRANCH  16  17
HETATM   17  C   UNL     1      20.532  38.238  47.167  1.00  0.00    -0.034 A 
HETATM   18  C   UNL     1      19.270  38.446  47.738  1.00  0.00     0.010 A 
HETATM   19  C   UNL     1      18.564  37.383  48.309  1.00  0.00     0.007 A 
HETATM   20  C   UNL     1      19.108  36.094  48.319  1.00  0.00    -0.062 A 
HETATM   21  C   UNL     1      18.353  34.940  48.911  1.00  0.00     0.048 C 
HETATM   22  C   UNL     1      20.367  35.882  47.746  1.00  0.00     0.007 A 
HETATM   23  C   UNL     1      21.071  36.944  47.176  1.00  0.00     0.010 A 
ENDBRANCH  16  17
ENDBRANCH  15  16
ENDBRANCH  12  15
ENDBRANCH   7   9
ENDBRANCH   5   7
BRANCH   4  24
HETATM   24  O   UNL     1      26.645  39.656  51.177  1.00  0.00    -0.355 OA
HETATM   25  H   UNL     1      26.799  39.264  52.059  1.00  0.00     0.218 HD
ENDBRANCH   4  24
BRANCH   6  26
HETATM   26  C   UNL     1      26.861  44.372  50.832  1.00  0.00    -0.030 A 
HETATM   27  C   UNL     1      25.762  44.444  51.707  1.00  0.00     0.012 A 
HETATM   28  C   UNL     1      24.964  45.591  51.759  1.00  0.00     0.037 A 
HETATM   29  C   UNL     1      25.264  46.673  50.937  1.00  0.00     0.065 A 
HETATM   30  C   UNL     1      26.341  46.623  50.065  1.00  0.00     0.037 A 
HETATM   31  C   UNL     1      27.134  45.476  50.007  1.00  0.00     0.012 A 
BRANCH  29  32
HETATM   32  O   UNL     1      24.517  47.811  50.955  1.00  0.00    -0.361 OA
HETATM   33  H   UNL     1      24.999  48.503  51.436  1.00  0.00     0.217 HD
ENDBRANCH  29  32
ENDBRANCH   6  26
BRANCH   1  34
HETATM   34  C   UNL     1      29.006  43.669  52.907  1.00  0.00     0.129 C 
BRANCH  34  35
HETATM   35  C   UNL     1      28.283  44.064  54.200  1.00  0.00     0.048 C 
BRANCH  35  36
HETATM   36  C   UNL     1      28.767  45.408  54.740  1.00  0.00     0.236 C 
BRANCH  36  37
HETATM   37  N   UNL     1      27.971  45.829  55.974  1.00  0.00    -0.072 N 
HETATM   38  H   UNL     1      27.320  45.066  56.204  1.00  0.00     0.279 HD
BRANCH  37  39
HETATM   39  C   UNL     1      27.148  47.080  55.706  1.00  0.00     0.230 C 
HETATM   40  C   UNL     1      27.692  47.844  54.512  1.00  0.00     0.034 C 
ENDBRANCH  37  39
BRANCH  37  41
HETATM   41  C   UNL     1      28.897  46.011  57.177  1.00  0.00     0.230 C 
HETATM   42  C   UNL     1      30.309  45.555  56.851  1.00  0.00     0.034 C 
ENDBRANCH  37  41
ENDBRANCH  36  37
ENDBRANCH  35  36
ENDBRANCH  34  35
ENDBRANCH   1  34
TORSDOF 14
ENDMDL
MODEL 8
REMARK VINA RESULT:      -7.9     11.111     13.499
REMARK  14 active torsions:
REMARK  status: ('A' for Active; 'I' for Inactive)
REMARK    1  A    between atoms: C_2  and  N_3 
REMARK    2  A    between atoms: N_3  and  C_5 
REMARK    3  A    between atoms: N_3  and  C_39 
REMARK    4  A    between atoms: C_5  and  C_6 
REMARK    5  A    between atoms: C_6  and  C_7 
REMARK    6  A    between atoms: C_7  and  N_8 
REMARK    7  A    between atoms: C_11  and  O_12 
REMARK    8  A    between atoms: C_13  and  C_14 
REMARK    9  A    between atoms: C_14  and  C_15 
REMARK   10  A    between atoms: C_18  and  O_19 
REMARK   11  A    between atoms: O_19  and  C_20 
REMARK   12  A    between atoms: C_20  and  C_21 
REMARK   13  A    between atoms: C_31  and  C_32 
REMARK   14  A    between atoms: C_35  and  O_36 
ROOT
HETATM    1  N   UNL     1      28.796  51.664  40.108  1.00  0.00    -0.333 N 
HETATM    2  C   UNL     1      28.321  51.799  38.823  1.00  0.00     0.278 A 
HETATM    3  O   UNL     1      28.397  52.762  38.078  1.00  0.00    -0.265 OA
HETATM    4  C   UNL     1      27.542  50.583  38.503  1.00  0.00     0.146 A 
HETATM    5  C   UNL     1      27.641  49.763  39.554  1.00  0.00     0.059 A 
HETATM    6  C   UNL     1      28.498  50.336  40.643  1.00  0.00     0.161 A 
ENDROOT
BRANCH   5   7
HETATM    7  C   UNL     1      26.903  48.515  39.831  1.00  0.00     0.193 C 
HETATM    8  O   UNL     1      25.736  48.597  40.212  1.00  0.00    -0.287 OA
BRANCH   7   9
HETATM    9  C   UNL     1      27.517  47.182  39.612  1.00  0.00     0.015 A 
HETATM   10  C   UNL     1      28.256  46.871  38.465  1.00  0.00     0.018 A 
HETATM   11  C   UNL     1      28.788  45.586  38.295  1.00  0.00     0.038 A 
HETATM   12  C   UNL     1      28.607  44.614  39.281  1.00  0.00     0.069 A 
HETATM   13  C   UNL     1      27.922  44.947  40.451  1.00  0.00     0.038 A 
HETATM   14  C   UNL     1      27.378  46.222  40.618  1.00  0.00     0.018 A 
BRANCH  12  15
HETATM   15  O   UNL     1      29.071  43.331  39.236  1.00  0.00    -0.347 OA
BRANCH  15  16
HETATM   16  C   UNL     1      28.103  42.289  39.363  1.00  0.00     0.214 C 
BRANCH  16  17
HETATM   17  C   UNL     1      28.580  41.303  40.403  1.00  0.00    -0.034 A 
HETATM   18  C   UNL     1      28.400  41.552  41.769  1.00  0.00     0.010 A 
HETATM   19  C   UNL     1      28.812  40.616  42.722  1.00  0.00     0.007 A 
HETATM   20  C   UNL     1      29.413  39.416  42.326  1.00  0.00    -0.062 A 
HETATM   21  C   UNL     1      29.844  38.395  43.337  1.00  0.00     0.048 C 
HETATM   22  C   UNL     1      29.592  39.164  40.961  1.00  0.00     0.007 A 
HETATM   23  C   UNL     1      29.179  40.098  40.009  1.00  0.00     0.010 A 
ENDBRANCH  16  17
ENDBRANCH  15  16
ENDBRANCH  12  15
ENDBRANCH   7   9
ENDBRANCH   5   7
BRANCH   4  24
HETATM   24  O   UNL     1      26.783  50.466  37.378  1.00  0.00    -0.355 OA
HETATM   25  H   UNL     1      26.085  49.812  37.576  1.00  0.00     0.218 HD
ENDBRANCH   4  24
BRANCH   6  26
HETATM   26  C   UNL     1      29.746  49.529  40.949  1.00  0.00    -0.030 A 
HETATM   27  C   UNL     1      30.169  49.265  42.265  1.00  0.00     0.012 A 
HETATM   28  C   UNL     1      31.322  48.513  42.507  1.00  0.00     0.037 A 
HETATM   29  C   UNL     1      32.056  48.019  41.434  1.00  0.00     0.065 A 
HETATM   30  C   UNL     1      31.660  48.269  40.128  1.00  0.00     0.037 A 
HETATM   31  C   UNL     1      30.513  49.025  39.885  1.00  0.00     0.012 A 
BRANCH  29  32
HETATM   32  O   UNL     1      33.185  47.279  41.621  1.00  0.00    -0.361 OA
HETATM   33  H   UNL     1      33.022  46.614  42.309  1.00  0.00     0.217 HD
ENDBRANCH  29  32
ENDBRANCH   6  26
BRANCH   1  34
HETATM   34  C   UNL     1      29.676  52.591  40.813  1.00  0.00     0.129 C 
BRANCH  34  35
HETATM   35  C   UNL     1      31.166  52.460  40.478  1.00  0.00     0.048 C 
BRANCH  35  36
HETATM   36  C   UNL     1      32.028  52.347  41.734  1.00  0.00     0.236 C 
BRANCH  36  37
HETATM   37  N   UNL     1      33.480  52.029  41.383  1.00  0.00    -0.072 N 
HETATM   38  H   UNL     1      33.977  52.920  41.258  1.00  0.00     0.279 HD
BRANCH  37  39
HETATM   39  C   UNL     1      33.580  51.252  40.079  1.00  0.00     0.230 C 
HETATM   40  C   UNL     1      34.841  51.625  39.319  1.00  0.00     0.034 C 
ENDBRANCH  37  39
BRANCH  37  41
HETATM   41  C   UNL     1      34.162  51.288  42.534  1.00  0.00     0.230 C 
HETATM   42  C   UNL     1      33.563  51.688  43.871  1.00  0.00     0.034 C 
ENDBRANCH  37  41
ENDBRANCH  36  37
ENDBRANCH  35  36
ENDBRANCH  34  35
ENDBRANCH   1  34
TORSDOF 14
ENDMDL
MODEL 9
REMARK VINA RESULT:      -7.8      4.012     11.512
REMARK  14 active torsions:
REMARK  status: ('A' for Active; 'I' for Inactive)
REMARK    1  A    between atoms: C_2  and  N_3 
REMARK    2  A    between atoms: N_3  and  C_5 
REMARK    3  A    between atoms: N_3  and  C_39 
REMARK    4  A    between atoms: C_5  and  C_6 
REMARK    5  A    between atoms: C_6  and  C_7 
REMARK    6  A    between atoms: C_7  and  N_8 
REMARK    7  A    between atoms: C_11  and  O_12 
REMARK    8  A    between atoms: C_13  and  C_14 
REMARK    9  A    between atoms: C_14  and  C_15 
REMARK   10  A    between atoms: C_18  and  O_19 
REMARK   11  A    between atoms: O_19  and  C_20 
REMARK   12  A    between atoms: C_20  and  C_21 
REMARK   13  A    between atoms: C_31  and  C_32 
REMARK   14  A    between atoms: C_35  and  O_36 
ROOT
HETATM    1  N   UNL     1      26.615  42.519  50.816  1.00  0.00    -0.333 N 
HETATM    2  C   UNL     1      25.418  42.606  50.142  1.00  0.00     0.278 A 
HETATM    3  O   UNL     1      24.608  41.724  49.908  1.00  0.00    -0.265 OA
HETATM    4  C   UNL     1      25.310  43.976  49.596  1.00  0.00     0.146 A 
HETATM    5  C   UNL     1      26.383  44.654  50.015  1.00  0.00     0.059 A 
HETATM    6  C   UNL     1      27.278  43.821  50.882  1.00  0.00     0.161 A 
ENDROOT
BRANCH   5   7
HETATM    7  C   UNL     1      26.858  45.989  49.600  1.00  0.00     0.193 C 
HETATM    8  O   UNL     1      28.039  46.118  49.282  1.00  0.00    -0.287 OA
BRANCH   7   9
HETATM    9  C   UNL     1      25.938  47.149  49.511  1.00  0.00     0.015 A 
HETATM   10  C   UNL     1      24.622  47.107  49.984  1.00  0.00     0.018 A 
HETATM   11  C   UNL     1      23.786  48.224  49.846  1.00  0.00     0.038 A 
HETATM   12  C   UNL     1      24.269  49.396  49.262  1.00  0.00     0.069 A 
HETATM   13  C   UNL     1      25.601  49.454  48.848  1.00  0.00     0.038 A 
HETATM   14  C   UNL     1      26.433  48.340  48.969  1.00  0.00     0.018 A 
BRANCH  12  15
HETATM   15  O   UNL     1      23.560  50.547  49.069  1.00  0.00    -0.347 OA
BRANCH  15  16
HETATM   16  C   UNL     1      22.750  50.617  47.895  1.00  0.00     0.214 C 
BRANCH  16  17
HETATM   17  C   UNL     1      21.315  50.849  48.305  1.00  0.00    -0.034 A 
HETATM   18  C   UNL     1      20.266  50.665  47.395  1.00  0.00     0.010 A 
HETATM   19  C   UNL     1      18.939  50.847  47.794  1.00  0.00     0.007 A 
HETATM   20  C   UNL     1      18.638  51.216  49.109  1.00  0.00    -0.062 A 
HETATM   21  C   UNL     1      17.217  51.397  49.556  1.00  0.00     0.048 C 
HETATM   22  C   UNL     1      19.683  51.397  50.022  1.00  0.00     0.007 A 
HETATM   23  C   UNL     1      21.009  51.215  49.623  1.00  0.00     0.010 A 
ENDBRANCH  16  17
ENDBRANCH  15  16
ENDBRANCH  12  15
ENDBRANCH   7   9
ENDBRANCH   5   7
BRANCH   4  24
HETATM   24  O   UNL     1      24.333  44.348  48.723  1.00  0.00    -0.355 OA
HETATM   25  H   UNL     1      24.099  45.272  48.939  1.00  0.00     0.218 HD
ENDBRANCH   4  24
BRANCH   6  26
HETATM   26  C   UNL     1      27.431  44.335  52.302  1.00  0.00    -0.030 A 
HETATM   27  C   UNL     1      26.428  45.082  52.946  1.00  0.00     0.012 A 
HETATM   28  C   UNL     1      26.605  45.536  54.256  1.00  0.00     0.037 A 
HETATM   29  C   UNL     1      27.785  45.241  54.930  1.00  0.00     0.065 A 
HETATM   30  C   UNL     1      28.790  44.509  54.314  1.00  0.00     0.037 A 
HETATM   31  C   UNL     1      28.618  44.061  53.004  1.00  0.00     0.012 A 
BRANCH  29  32
HETATM   32  O   UNL     1      28.002  45.659  56.208  1.00  0.00    -0.361 OA
HETATM   33  H   UNL     1      28.270  46.592  56.199  1.00  0.00     0.217 HD
ENDBRANCH  29  32
ENDBRANCH   6  26
BRANCH   1  34
HETATM   34  C   UNL     1      27.105  41.374  51.577  1.00  0.00     0.129 C 
BRANCH  34  35
HETATM   35  C   UNL     1      28.366  40.707  51.015  1.00  0.00     0.048 C 
BRANCH  35  36
HETATM   36  C   UNL     1      28.249  40.429  49.518  1.00  0.00     0.236 C 
BRANCH  36  37
HETATM   37  N   UNL     1      28.624  38.986  49.190  1.00  0.00    -0.072 N 
HETATM   38  H   UNL     1      29.422  39.007  48.541  1.00  0.00     0.279 HD
BRANCH  37  39
HETATM   39  C   UNL     1      27.481  38.255  48.502  1.00  0.00     0.230 C 
HETATM   40  C   UNL     1      26.890  37.191  49.410  1.00  0.00     0.034 C 
ENDBRANCH  37  39
BRANCH  37  41
HETATM   41  C   UNL     1      29.085  38.250  50.449  1.00  0.00     0.230 C 
HETATM   42  C   UNL     1      30.524  37.784  50.312  1.00  0.00     0.034 C 
ENDBRANCH  37  41
ENDBRANCH  36  37
ENDBRANCH  35  36
ENDBRANCH  34  35
ENDBRANCH   1  34
TORSDOF 14
ENDMDL
MODEL 10
REMARK VINA RESULT:      -7.8      9.912     14.608
REMARK  14 active torsions:
REMARK  status: ('A' for Active; 'I' for Inactive)
REMARK    1  A    between atoms: C_2  and  N_3 
REMARK    2  A    between atoms: N_3  and  C_5 
REMARK    3  A    between atoms: N_3  and  C_39 
REMARK    4  A    between atoms: C_5  and  C_6 
REMARK    5  A    between atoms: C_6  and  C_7 
REMARK    6  A    between atoms: C_7  and  N_8 
REMARK    7  A    between atoms: C_11  and  O_12 
REMARK    8  A    between atoms: C_13  and  C_14 
REMARK    9  A    between atoms: C_14  and  C_15 
REMARK   10  A    between atoms: C_18  and  O_19 
REMARK   11  A    between atoms: O_19  and  C_20 
REMARK   12  A    between atoms: C_20  and  C_21 
REMARK   13  A    between atoms: C_31  and  C_32 
REMARK   14  A    between atoms: C_35  and  O_36 
ROOT
HETATM    1  N   UNL     1      31.199  48.637  39.581  1.00  0.00    -0.333 N 
HETATM    2  C   UNL     1      31.271  47.341  40.038  1.00  0.00     0.278 A 
HETATM    3  O   UNL     1      32.180  46.792  40.638  1.00  0.00    -0.265 OA
HETATM    4  C   UNL     1      30.069  46.628  39.554  1.00  0.00     0.146 A 
HETATM    5  C   UNL     1      29.315  47.521  38.906  1.00  0.00     0.059 A 
HETATM    6  C   UNL     1      29.922  48.892  38.918  1.00  0.00     0.161 A 
ENDROOT
BRANCH   5   7
HETATM    7  C   UNL     1      28.118  47.295  38.072  1.00  0.00     0.193 C 
HETATM    8  O   UNL     1      28.201  46.511  37.128  1.00  0.00    -0.287 OA
BRANCH   7   9
HETATM    9  C   UNL     1      26.820  47.945  38.380  1.00  0.00     0.015 A 
HETATM   10  C   UNL     1      26.282  48.967  37.591  1.00  0.00     0.018 A 
HETATM   11  C   UNL     1      25.067  49.568  37.946  1.00  0.00     0.038 A 
HETATM   12  C   UNL     1      24.370  49.132  39.074  1.00  0.00     0.069 A 
HETATM   13  C   UNL     1      24.880  48.071  39.825  1.00  0.00     0.038 A 
HETATM   14  C   UNL     1      26.098  47.479  39.483  1.00  0.00     0.018 A 
BRANCH  12  15
HETATM   15  O   UNL     1      23.183  49.633  39.526  1.00  0.00    -0.347 OA
BRANCH  15  16
HETATM   16  C   UNL     1      22.182  49.907  38.546  1.00  0.00     0.214 C 
BRANCH  16  17
HETATM   17  C   UNL     1      20.995  50.546  39.226  1.00  0.00    -0.034 A 
HETATM   18  C   UNL     1      20.996  50.784  40.607  1.00  0.00     0.010 A 
HETATM   19  C   UNL     1      19.907  51.410  41.221  1.00  0.00     0.007 A 
HETATM   20  C   UNL     1      18.798  51.807  40.466  1.00  0.00    -0.062 A 
HETATM   21  C   UNL     1      17.631  52.496  41.109  1.00  0.00     0.048 C 
HETATM   22  C   UNL     1      18.796  51.574  39.086  1.00  0.00     0.007 A 
HETATM   23  C   UNL     1      19.883  50.950  38.473  1.00  0.00     0.010 A 
ENDBRANCH  16  17
ENDBRANCH  15  16
ENDBRANCH  12  15
ENDBRANCH   7   9
ENDBRANCH   5   7
BRANCH   4  24
HETATM   24  O   UNL     1      29.912  45.280  39.673  1.00  0.00    -0.355 OA
HETATM   25  H   UNL     1      30.702  44.868  39.272  1.00  0.00     0.218 HD
ENDBRANCH   4  24
BRANCH   6  26
HETATM   26  C   UNL     1      29.086  49.941  39.628  1.00  0.00    -0.030 A 
HETATM   27  C   UNL     1      28.818  51.201  39.062  1.00  0.00     0.012 A 
HETATM   28  C   UNL     1      28.039  52.140  39.745  1.00  0.00     0.037 A 
HETATM   29  C   UNL     1      27.523  51.822  40.997  1.00  0.00     0.065 A 
HETATM   30  C   UNL     1      27.777  50.588  41.576  1.00  0.00     0.037 A 
HETATM   31  C   UNL     1      28.559  49.652  40.898  1.00  0.00     0.012 A 
BRANCH  29  32
HETATM   32  O   UNL     1      26.758  52.703  41.698  1.00  0.00    -0.361 OA
HETATM   33  H   UNL     1      26.593  52.348  42.587  1.00  0.00     0.217 HD
ENDBRANCH  29  32
ENDBRANCH   6  26
BRANCH   1  34
HETATM   34  C   UNL     1      32.133  49.719  39.879  1.00  0.00     0.129 C 
BRANCH  34  35
HETATM   35  C   UNL     1      32.783  49.658  41.266  1.00  0.00     0.048 C 
BRANCH  35  36
HETATM   36  C   UNL     1      31.838  50.142  42.364  1.00  0.00     0.236 C 
BRANCH  36  37
HETATM   37  N   UNL     1      32.075  51.616  42.689  1.00  0.00    -0.072 N 
HETATM   38  H   UNL     1      32.856  51.945  42.106  1.00  0.00     0.279 HD
BRANCH  37  39
HETATM   39  C   UNL     1      32.468  51.808  44.146  1.00  0.00     0.230 C 
HETATM   40  C   UNL     1      33.965  52.015  44.284  1.00  0.00     0.034 C 
ENDBRANCH  37  39
BRANCH  37  41
HETATM   41  C   UNL     1      30.850  52.453  42.320  1.00  0.00     0.230 C 
HETATM   42  C   UNL     1      31.144  53.355  41.133  1.00  0.00     0.034 C 
ENDBRANCH  37  41
ENDBRANCH  36  37
ENDBRANCH  35  36
ENDBRANCH  34  35
ENDBRANCH   1  34
TORSDOF 14
ENDMDL
