MODEL 1
REMARK VINA RESULT:     -10.2      0.000      0.000
REMARK  6 active torsions:
REMARK  status: ('A' for Active; 'I' for Inactive)
REMARK    1  A    between atoms: O_2  and  C_3 
REMARK    2  A    between atoms: C_5  and  C_6 
REMARK    3  A    between atoms: C_12  and  C_13 
REMARK       I    between atoms: C_13  and  N_14 
REMARK    4  A    between atoms: N_14  and  C_15 
REMARK    5  A    between atoms: C_17  and  O_18 
REMARK    6  A    between atoms: C_23  and  C_24 
ROOT
HETATM    1  C   UNL     1      24.520  46.796  50.792  1.00  0.00     0.118 C 
HETATM    2  N   UNL     1      25.341  46.243  51.890  1.00  0.00    -0.365 N 
HETATM    3  C   UNL     1      26.213  45.230  51.603  1.00  0.00     0.138 A 
HETATM    4  N   UNL     1      26.112  44.520  50.429  1.00  0.00    -0.240 N 
HETATM    5  N   UNL     1      27.080  43.607  50.268  1.00  0.00    -0.181 NA
HETATM    6  C   UNL     1      27.767  43.680  51.411  1.00  0.00     0.160 A 
HETATM    7  C   UNL     1      27.278  44.678  52.291  1.00  0.00     0.096 A 
HETATM    8  C   UNL     1      25.083  44.728  49.426  1.00  0.00     0.221 C 
HETATM    9  C   UNL     1      23.951  45.606  50.002  1.00  0.00     0.066 C 
HETATM   10  H   UNL     1      24.812  46.161  52.762  1.00  0.00     0.161 HD
ENDROOT
BRANCH   7  11
HETATM   11  C   UNL     1      27.832  45.019  53.593  1.00  0.00     0.261 C 
HETATM   12  N   UNL     1      28.797  44.135  54.034  1.00  0.00    -0.323 N 
HETATM   13  H   UNL     1      28.930  43.317  53.447  1.00  0.00     0.169 HD
HETATM   14  O   UNL     1      27.436  46.010  54.195  1.00  0.00    -0.267 OA
BRANCH  12  15
HETATM   15  C   UNL     1      29.597  44.226  55.189  1.00  0.00     0.037 A 
HETATM   16  C   UNL     1      29.558  45.301  56.080  1.00  0.00     0.066 A 
HETATM   17  C   UNL     1      30.407  45.316  57.186  1.00  0.00     0.067 A 
HETATM   18  C   UNL     1      31.302  44.281  57.420  1.00  0.00     0.036 A 
HETATM   19  C   UNL     1      31.344  43.203  56.540  1.00  0.00     0.005 A 
HETATM   20  C   UNL     1      30.492  43.175  55.431  1.00  0.00     0.029 A 
BRANCH  17  21
HETATM   21  O   UNL     1      30.390  46.352  58.075  1.00  0.00    -0.361 OA
HETATM   22  H   UNL     1      30.972  46.126  58.821  1.00  0.00     0.217 HD
ENDBRANCH  17  21
ENDBRANCH  12  15
ENDBRANCH   7  11
BRANCH   1  23
HETATM   23  C   UNL     1      25.297  47.811  49.954  1.00  0.00    -0.033 A 
HETATM   24  C   UNL     1      24.648  48.626  49.008  1.00  0.00     0.046 A 
HETATM   25  C   UNL     1      25.345  49.584  48.267  1.00  0.00     0.068 A 
HETATM   26  C   UNL     1      26.724  49.702  48.408  1.00  0.00     0.037 A 
HETATM   27  C   UNL     1      27.398  48.872  49.302  1.00  0.00     0.003 A 
HETATM   28  C   UNL     1      26.693  47.931  50.061  1.00  0.00     0.009 A 
BRANCH  25  29
HETATM   29  O   UNL     1      24.596  50.323  47.393  1.00  0.00    -0.356 OA
HETATM   30  C   UNL     1      23.201  50.325  47.683  1.00  0.00     0.210 C 
ENDBRANCH  25  29
ENDBRANCH   1  23
BRANCH   8  31
HETATM   31  C   UNL     1      24.494  43.421  48.936  1.00  0.00     0.409 C 
HETATM   32  F   UNL     1      25.373  42.711  48.191  1.00  0.00    -0.169 F 
HETATM   33  F   UNL     1      24.181  42.639  50.007  1.00  0.00    -0.169 F 
HETATM   34  F   UNL     1      23.354  43.564  48.234  1.00  0.00    -0.169 F 
ENDBRANCH   8  31
TORSDOF 6
ENDMDL
MODEL 2
REMARK VINA RESULT:     -10.0      4.035      7.645
REMARK  6 active torsions:
REMARK  status: ('A' for Active; 'I' for Inactive)
REMARK    1  A    between atoms: O_2  and  C_3 
REMARK    2  A    between atoms: C_5  and  C_6 
REMARK    3  A    between atoms: C_12  and  C_13 
REMARK       I    between atoms: C_13  and  N_14 
REMARK    4  A    between atoms: N_14  and  C_15 
REMARK    5  A    between atoms: C_17  and  O_18 
REMARK    6  A    between atoms: C_23  and  C_24 
ROOT
HETATM    1  C   UNL     1      26.662  43.864  54.436  1.00  0.00     0.118 C 
HETATM    2  N   UNL     1      26.434  43.031  53.235  1.00  0.00    -0.365 N 
HETATM    3  C   UNL     1      26.635  43.594  52.005  1.00  0.00     0.138 A 
HETATM    4  N   UNL     1      26.726  44.959  51.858  1.00  0.00    -0.240 N 
HETATM    5  N   UNL     1      26.991  45.347  50.603  1.00  0.00    -0.181 NA
HETATM    6  C   UNL     1      26.985  44.201  49.917  1.00  0.00     0.160 A 
HETATM    7  C   UNL     1      26.769  43.064  50.735  1.00  0.00     0.096 A 
HETATM    8  C   UNL     1      26.578  45.916  52.939  1.00  0.00     0.221 C 
HETATM    9  C   UNL     1      25.988  45.222  54.185  1.00  0.00     0.066 C 
HETATM   10  H   UNL     1      25.614  42.428  53.336  1.00  0.00     0.161 HD
ENDROOT
BRANCH   7  11
HETATM   11  C   UNL     1      26.740  41.679  50.288  1.00  0.00     0.261 C 
HETATM   12  N   UNL     1      27.932  41.247  49.742  1.00  0.00    -0.323 N 
HETATM   13  H   UNL     1      28.641  41.967  49.635  1.00  0.00     0.169 HD
HETATM   14  O   UNL     1      25.720  41.011  50.409  1.00  0.00    -0.267 OA
BRANCH  12  15
HETATM   15  C   UNL     1      28.272  39.950  49.311  1.00  0.00     0.037 A 
HETATM   16  C   UNL     1      28.898  39.001  50.122  1.00  0.00     0.066 A 
HETATM   17  C   UNL     1      29.220  37.748  49.600  1.00  0.00     0.067 A 
HETATM   18  C   UNL     1      28.935  37.424  48.281  1.00  0.00     0.036 A 
HETATM   19  C   UNL     1      28.308  38.363  47.467  1.00  0.00     0.005 A 
HETATM   20  C   UNL     1      27.975  39.620  47.982  1.00  0.00     0.029 A 
BRANCH  17  21
HETATM   21  O   UNL     1      29.829  36.798  50.369  1.00  0.00    -0.361 OA
HETATM   22  H   UNL     1      29.316  36.691  51.189  1.00  0.00     0.217 HD
ENDBRANCH  17  21
ENDBRANCH  12  15
ENDBRANCH   7  11
BRANCH   1  23
HETATM   23  C   UNL     1      28.144  43.940  54.803  1.00  0.00    -0.033 A 
HETATM   24  C   UNL     1      28.649  44.997  55.582  1.00  0.00     0.046 A 
HETATM   25  C   UNL     1      29.994  45.053  55.956  1.00  0.00     0.068 A 
HETATM   26  C   UNL     1      30.882  44.083  55.500  1.00  0.00     0.037 A 
HETATM   27  C   UNL     1      30.416  43.053  54.686  1.00  0.00     0.003 A 
HETATM   28  C   UNL     1      29.063  42.986  54.335  1.00  0.00     0.009 A 
BRANCH  25  29
HETATM   29  O   UNL     1      30.355  46.123  56.727  1.00  0.00    -0.356 OA
HETATM   30  C   UNL     1      30.311  45.869  58.128  1.00  0.00     0.210 C 
ENDBRANCH  25  29
ENDBRANCH   1  23
BRANCH   8  31
HETATM   31  C   UNL     1      25.688  47.079  52.552  1.00  0.00     0.409 C 
HETATM   32  F   UNL     1      25.286  47.797  53.626  1.00  0.00    -0.169 F 
HETATM   33  F   UNL     1      26.389  47.937  51.759  1.00  0.00    -0.169 F 
HETATM   34  F   UNL     1      24.600  46.722  51.843  1.00  0.00    -0.169 F 
ENDBRANCH   8  31
TORSDOF 6
ENDMDL
MODEL 3
REMARK VINA RESULT:      -9.4      4.263      8.718
REMARK  6 active torsions:
REMARK  status: ('A' for Active; 'I' for Inactive)
REMARK    1  A    between atoms: O_2  and  C_3 
REMARK    2  A    between atoms: C_5  and  C_6 
REMARK    3  A    between atoms: C_12  and  C_13 
REMARK       I    between atoms: C_13  and  N_14 
REMARK    4  A    between atoms: N_14  and  C_15 
REMARK    5  A    between atoms: C_17  and  O_18 
REMARK    6  A    between atoms: C_23  and  C_24 
ROOT
HETATM    1  C   UNL     1      26.417  43.915  54.598  1.00  0.00     0.118 C 
HETATM    2  N   UNL     1      25.373  44.089  53.565  1.00  0.00    -0.365 N 
HETATM    3  C   UNL     1      25.439  45.185  52.752  1.00  0.00     0.138 A 
HETATM    4  N   UNL     1      26.239  46.258  53.073  1.00  0.00    -0.240 N 
HETATM    5  N   UNL     1      26.245  47.222  52.143  1.00  0.00    -0.181 NA
HETATM    6  C   UNL     1      25.359  46.788  51.242  1.00  0.00     0.160 A 
HETATM    7  C   UNL     1      24.817  45.517  51.562  1.00  0.00     0.096 A 
HETATM    8  C   UNL     1      27.032  46.361  54.285  1.00  0.00     0.221 C 
HETATM    9  C   UNL     1      26.603  45.273  55.293  1.00  0.00     0.066 C 
HETATM   10  H   UNL     1      24.445  43.827  53.908  1.00  0.00     0.161 HD
ENDROOT
BRANCH   7  11
HETATM   11  C   UNL     1      23.856  44.770  50.765  1.00  0.00     0.261 C 
HETATM   12  N   UNL     1      23.324  45.493  49.716  1.00  0.00    -0.323 N 
HETATM   13  H   UNL     1      23.594  46.471  49.688  1.00  0.00     0.169 HD
HETATM   14  O   UNL     1      23.584  43.610  51.051  1.00  0.00    -0.267 OA
BRANCH  12  15
HETATM   15  C   UNL     1      22.455  45.044  48.702  1.00  0.00     0.037 A 
HETATM   16  C   UNL     1      21.063  45.033  48.820  1.00  0.00     0.066 A 
HETATM   17  C   UNL     1      20.283  44.546  47.772  1.00  0.00     0.067 A 
HETATM   18  C   UNL     1      20.864  44.063  46.608  1.00  0.00     0.036 A 
HETATM   19  C   UNL     1      22.250  44.074  46.480  1.00  0.00     0.005 A 
HETATM   20  C   UNL     1      23.042  44.566  47.523  1.00  0.00     0.029 A 
BRANCH  17  21
HETATM   21  O   UNL     1      18.921  44.525  47.856  1.00  0.00    -0.361 OA
HETATM   22  H   UNL     1      18.555  44.752  46.984  1.00  0.00     0.217 HD
ENDBRANCH  17  21
ENDBRANCH  12  15
ENDBRANCH   7  11
BRANCH   1  23
HETATM   23  C   UNL     1      27.695  43.308  54.020  1.00  0.00    -0.033 A 
HETATM   24  C   UNL     1      27.646  42.328  53.012  1.00  0.00     0.046 A 
HETATM   25  C   UNL     1      28.811  41.798  52.450  1.00  0.00     0.068 A 
HETATM   26  C   UNL     1      30.055  42.189  52.934  1.00  0.00     0.037 A 
HETATM   27  C   UNL     1      30.129  43.121  53.967  1.00  0.00     0.003 A 
HETATM   28  C   UNL     1      28.962  43.669  54.510  1.00  0.00     0.009 A 
BRANCH  25  29
HETATM   29  O   UNL     1      28.627  40.864  51.467  1.00  0.00    -0.356 OA
HETATM   30  C   UNL     1      27.362  40.948  50.817  1.00  0.00     0.210 C 
ENDBRANCH  25  29
ENDBRANCH   1  23
BRANCH   8  31
HETATM   31  C   UNL     1      26.899  47.721  54.938  1.00  0.00     0.409 C 
HETATM   32  F   UNL     1      25.700  48.295  54.689  1.00  0.00    -0.169 F 
HETATM   33  F   UNL     1      26.982  47.580  56.291  1.00  0.00    -0.169 F 
HETATM   34  F   UNL     1      27.870  48.589  54.595  1.00  0.00    -0.169 F 
ENDBRANCH   8  31
TORSDOF 6
ENDMDL
MODEL 4
REMARK VINA RESULT:      -9.3      2.358      3.301
REMARK  6 active torsions:
REMARK  status: ('A' for Active; 'I' for Inactive)
REMARK    1  A    between atoms: O_2  and  C_3 
REMARK    2  A    between atoms: C_5  and  C_6 
REMARK    3  A    between atoms: C_12  and  C_13 
REMARK       I    between atoms: C_13  and  N_14 
REMARK    4  A    between atoms: N_14  and  C_15 
REMARK    5  A    between atoms: C_17  and  O_18 
REMARK    6  A    between atoms: C_23  and  C_24 
ROOT
HETATM    1  C   UNL     1      23.674  43.142  50.579  1.00  0.00     0.118 C 
HETATM    2  N   UNL     1      24.830  42.680  51.378  1.00  0.00    -0.365 N 
HETATM    3  C   UNL     1      25.990  42.369  50.724  1.00  0.00     0.138 A 
HETATM    4  N   UNL     1      26.004  42.173  49.362  1.00  0.00    -0.240 N 
HETATM    5  N   UNL     1      27.227  41.943  48.866  1.00  0.00    -0.181 NA
HETATM    6  C   UNL     1      28.002  41.908  49.954  1.00  0.00     0.160 A 
HETATM    7  C   UNL     1      27.290  42.170  51.152  1.00  0.00     0.096 A 
HETATM    8  C   UNL     1      24.830  42.224  48.510  1.00  0.00     0.221 C 
HETATM    9  C   UNL     1      23.548  42.201  49.370  1.00  0.00     0.066 C 
HETATM   10  H   UNL     1      24.547  42.054  52.135  1.00  0.00     0.161 HD
ENDROOT
BRANCH   7  11
HETATM   11  C   UNL     1      27.858  42.233  52.490  1.00  0.00     0.261 C 
HETATM   12  N   UNL     1      28.598  43.375  52.724  1.00  0.00    -0.323 N 
HETATM   13  H   UNL     1      28.731  43.973  51.915  1.00  0.00     0.169 HD
HETATM   14  O   UNL     1      27.664  41.324  53.289  1.00  0.00    -0.267 OA
BRANCH  12  15
HETATM   15  C   UNL     1      29.192  43.793  53.931  1.00  0.00     0.037 A 
HETATM   16  C   UNL     1      28.731  44.870  54.692  1.00  0.00     0.066 A 
HETATM   17  C   UNL     1      29.399  45.228  55.863  1.00  0.00     0.067 A 
HETATM   18  C   UNL     1      30.525  44.537  56.288  1.00  0.00     0.036 A 
HETATM   19  C   UNL     1      30.989  43.459  55.537  1.00  0.00     0.005 A 
HETATM   20  C   UNL     1      30.322  43.088  54.365  1.00  0.00     0.029 A 
BRANCH  17  21
HETATM   21  O   UNL     1      28.971  46.274  56.628  1.00  0.00    -0.361 OA
HETATM   22  H   UNL     1      28.058  46.093  56.913  1.00  0.00     0.217 HD
ENDBRANCH  17  21
ENDBRANCH  12  15
ENDBRANCH   7  11
BRANCH   1  23
HETATM   23  C   UNL     1      23.780  44.627  50.229  1.00  0.00    -0.033 A 
HETATM   24  C   UNL     1      24.585  45.499  50.984  1.00  0.00     0.046 A 
HETATM   25  C   UNL     1      24.719  46.848  50.647  1.00  0.00     0.068 A 
HETATM   26  C   UNL     1      23.993  47.372  49.582  1.00  0.00     0.037 A 
HETATM   27  C   UNL     1      23.149  46.540  48.849  1.00  0.00     0.003 A 
HETATM   28  C   UNL     1      23.038  45.184  49.174  1.00  0.00     0.009 A 
BRANCH  25  29
HETATM   29  O   UNL     1      25.544  47.585  51.451  1.00  0.00    -0.356 OA
HETATM   30  C   UNL     1      25.731  47.033  52.751  1.00  0.00     0.210 C 
ENDBRANCH  25  29
ENDBRANCH   1  23
BRANCH   8  31
HETATM   31  C   UNL     1      24.789  41.072  47.528  1.00  0.00     0.409 C 
HETATM   32  F   UNL     1      25.202  39.909  48.084  1.00  0.00    -0.169 F 
HETATM   33  F   UNL     1      23.502  40.868  47.129  1.00  0.00    -0.169 F 
HETATM   34  F   UNL     1      25.498  41.285  46.403  1.00  0.00    -0.169 F 
ENDBRANCH   8  31
TORSDOF 6
ENDMDL
MODEL 5
REMARK VINA RESULT:      -9.3      1.626      1.994
REMARK  6 active torsions:
REMARK  status: ('A' for Active; 'I' for Inactive)
REMARK    1  A    between atoms: O_2  and  C_3 
REMARK    2  A    between atoms: C_5  and  C_6 
REMARK    3  A    between atoms: C_12  and  C_13 
REMARK       I    between atoms: C_13  and  N_14 
REMARK    4  A    between atoms: N_14  and  C_15 
REMARK    5  A    between atoms: C_17  and  O_18 
REMARK    6  A    between atoms: C_23  and  C_24 
ROOT
HETATM    1  C   UNL     1      24.005  44.914  50.985  1.00  0.00     0.118 C 
HETATM    2  N   UNL     1      24.987  44.077  51.708  1.00  0.00    -0.365 N 
HETATM    3  C   UNL     1      25.809  43.263  50.979  1.00  0.00     0.138 A 
HETATM    4  N   UNL     1      25.533  42.974  49.662  1.00  0.00    -0.240 N 
HETATM    5  N   UNL     1      26.469  42.219  49.071  1.00  0.00    -0.181 NA
HETATM    6  C   UNL     1      27.322  41.950  50.063  1.00  0.00     0.160 A 
HETATM    7  C   UNL     1      26.969  42.575  51.285  1.00  0.00     0.096 A 
HETATM    8  C   UNL     1      24.362  43.443  48.943  1.00  0.00     0.221 C 
HETATM    9  C   UNL     1      23.328  44.021  49.933  1.00  0.00     0.066 C 
HETATM   10  H   UNL     1      24.597  43.685  52.568  1.00  0.00     0.161 HD
ENDROOT
BRANCH   7  11
HETATM   11  C   UNL     1      27.713  42.499  52.533  1.00  0.00     0.261 C 
HETATM   12  N   UNL     1      28.362  43.673  52.864  1.00  0.00    -0.323 N 
HETATM   13  H   UNL     1      28.317  44.402  52.158  1.00  0.00     0.169 HD
HETATM   14  O   UNL     1      27.728  41.462  53.184  1.00  0.00    -0.267 OA
BRANCH  12  15
HETATM   15  C   UNL     1      29.077  43.970  54.040  1.00  0.00     0.037 A 
HETATM   16  C   UNL     1      28.739  45.004  54.916  1.00  0.00     0.066 A 
HETATM   17  C   UNL     1      29.522  45.240  56.046  1.00  0.00     0.067 A 
HETATM   18  C   UNL     1      30.643  44.467  56.317  1.00  0.00     0.036 A 
HETATM   19  C   UNL     1      30.985  43.432  55.451  1.00  0.00     0.005 A 
HETATM   20  C   UNL     1      30.203  43.182  54.319  1.00  0.00     0.029 A 
BRANCH  17  21
HETATM   21  O   UNL     1      29.215  46.241  56.921  1.00  0.00    -0.361 OA
HETATM   22  H   UNL     1      28.252  46.243  57.061  1.00  0.00     0.217 HD
ENDBRANCH  17  21
ENDBRANCH  12  15
ENDBRANCH   7  11
BRANCH   1  23
HETATM   23  C   UNL     1      24.642  46.189  50.430  1.00  0.00    -0.033 A 
HETATM   24  C   UNL     1      23.956  47.009  49.516  1.00  0.00     0.046 A 
HETATM   25  C   UNL     1      24.514  48.196  49.036  1.00  0.00     0.068 A 
HETATM   26  C   UNL     1      25.805  48.557  49.410  1.00  0.00     0.037 A 
HETATM   27  C   UNL     1      26.525  47.736  50.276  1.00  0.00     0.003 A 
HETATM   28  C   UNL     1      25.953  46.561  50.775  1.00  0.00     0.009 A 
BRANCH  25  29
HETATM   29  O   UNL     1      23.739  48.912  48.165  1.00  0.00    -0.356 OA
HETATM   30  C   UNL     1      23.493  50.253  48.576  1.00  0.00     0.210 C 
ENDBRANCH  25  29
ENDBRANCH   1  23
BRANCH   8  31
HETATM   31  C   UNL     1      23.711  42.340  48.135  1.00  0.00     0.409 C 
HETATM   32  F   UNL     1      23.710  41.156  48.791  1.00  0.00    -0.169 F 
HETATM   33  F   UNL     1      22.405  42.656  47.914  1.00  0.00    -0.169 F 
HETATM   34  F   UNL     1      24.261  42.156  46.919  1.00  0.00    -0.169 F 
ENDBRANCH   8  31
TORSDOF 6
ENDMDL
MODEL 6
REMARK VINA RESULT:      -8.8      2.977      7.558
REMARK  6 active torsions:
REMARK  status: ('A' for Active; 'I' for Inactive)
REMARK    1  A    between atoms: O_2  and  C_3 
REMARK    2  A    between atoms: C_5  and  C_6 
REMARK    3  A    between atoms: C_12  and  C_13 
REMARK       I    between atoms: C_13  and  N_14 
REMARK    4  A    between atoms: N_14  and  C_15 
REMARK    5  A    between atoms: C_17  and  O_18 
REMARK    6  A    between atoms: C_23  and  C_24 
ROOT
HETATM    1  C   UNL     1      27.061  44.569  50.326  1.00  0.00     0.118 C 
HETATM    2  N   UNL     1      25.911  45.096  49.558  1.00  0.00    -0.365 N 
HETATM    3  C   UNL     1      24.724  44.421  49.620  1.00  0.00     0.138 A 
HETATM    4  N   UNL     1      24.666  43.133  50.101  1.00  0.00    -0.240 N 
HETATM    5  N   UNL     1      23.423  42.637  50.159  1.00  0.00    -0.181 NA
HETATM    6  C   UNL     1      22.677  43.606  49.621  1.00  0.00     0.160 A 
HETATM    7  C   UNL     1      23.430  44.753  49.263  1.00  0.00     0.096 A 
HETATM    8  C   UNL     1      25.818  42.362  50.534  1.00  0.00     0.221 C 
HETATM    9  C   UNL     1      27.120  43.053  50.078  1.00  0.00     0.066 C 
HETATM   10  H   UNL     1      26.192  45.448  48.640  1.00  0.00     0.161 HD
ENDROOT
BRANCH   7  11
HETATM   11  C   UNL     1      22.901  45.980  48.687  1.00  0.00     0.261 C 
HETATM   12  N   UNL     1      23.177  47.108  49.435  1.00  0.00    -0.323 N 
HETATM   13  H   UNL     1      23.625  46.931  50.329  1.00  0.00     0.169 HD
HETATM   14  O   UNL     1      22.274  45.950  47.635  1.00  0.00    -0.267 OA
BRANCH  12  15
HETATM   15  C   UNL     1      22.903  48.452  49.116  1.00  0.00     0.037 A 
HETATM   16  C   UNL     1      21.648  49.046  49.266  1.00  0.00     0.066 A 
HETATM   17  C   UNL     1      21.464  50.380  48.900  1.00  0.00     0.067 A 
HETATM   18  C   UNL     1      22.507  51.132  48.378  1.00  0.00     0.036 A 
HETATM   19  C   UNL     1      23.763  50.548  48.229  1.00  0.00     0.005 A 
HETATM   20  C   UNL     1      23.960  49.214  48.600  1.00  0.00     0.029 A 
BRANCH  17  21
HETATM   21  O   UNL     1      20.250  50.989  49.038  1.00  0.00    -0.361 OA
HETATM   22  H   UNL     1      20.381  51.951  48.978  1.00  0.00     0.217 HD
ENDBRANCH  17  21
ENDBRANCH  12  15
ENDBRANCH   7  11
BRANCH   1  23
HETATM   23  C   UNL     1      26.998  44.977  51.797  1.00  0.00    -0.033 A 
HETATM   24  C   UNL     1      26.359  46.164  52.199  1.00  0.00     0.046 A 
HETATM   25  C   UNL     1      26.263  46.524  53.545  1.00  0.00     0.068 A 
HETATM   26  C   UNL     1      26.866  45.734  54.520  1.00  0.00     0.037 A 
HETATM   27  C   UNL     1      27.548  44.580  54.143  1.00  0.00     0.003 A 
HETATM   28  C   UNL     1      27.620  44.209  52.796  1.00  0.00     0.009 A 
BRANCH  25  29
HETATM   29  O   UNL     1      25.602  47.694  53.805  1.00  0.00    -0.356 OA
HETATM   30  C   UNL     1      26.039  48.356  54.988  1.00  0.00     0.210 C 
ENDBRANCH  25  29
ENDBRANCH   1  23
BRANCH   8  31
HETATM   31  C   UNL     1      25.792  40.948  49.993  1.00  0.00     0.409 C 
HETATM   32  F   UNL     1      24.819  40.770  49.068  1.00  0.00    -0.169 F 
HETATM   33  F   UNL     1      26.971  40.686  49.362  1.00  0.00    -0.169 F 
HETATM   34  F   UNL     1      25.659  40.001  50.942  1.00  0.00    -0.169 F 
ENDBRANCH   8  31
TORSDOF 6
ENDMDL
MODEL 7
REMARK VINA RESULT:      -8.5      4.003      6.908
REMARK  6 active torsions:
REMARK  status: ('A' for Active; 'I' for Inactive)
REMARK    1  A    between atoms: O_2  and  C_3 
REMARK    2  A    between atoms: C_5  and  C_6 
REMARK    3  A    between atoms: C_12  and  C_13 
REMARK       I    between atoms: C_13  and  N_14 
REMARK    4  A    between atoms: N_14  and  C_15 
REMARK    5  A    between atoms: C_17  and  O_18 
REMARK    6  A    between atoms: C_23  and  C_24 
ROOT
HETATM    1  C   UNL     1      27.397  40.615  48.015  1.00  0.00     0.118 C 
HETATM    2  N   UNL     1      27.605  41.720  48.975  1.00  0.00    -0.365 N 
HETATM    3  C   UNL     1      26.565  42.080  49.787  1.00  0.00     0.138 A 
HETATM    4  N   UNL     1      25.280  41.670  49.516  1.00  0.00    -0.240 N 
HETATM    5  N   UNL     1      24.388  42.049  50.441  1.00  0.00    -0.181 NA
HETATM    6  C   UNL     1      25.112  42.793  51.282  1.00  0.00     0.160 A 
HETATM    7  C   UNL     1      26.485  42.852  50.931  1.00  0.00     0.096 A 
HETATM    8  C   UNL     1      24.893  40.882  48.359  1.00  0.00     0.221 C 
HETATM    9  C   UNL     1      26.043  40.853  47.329  1.00  0.00     0.066 C 
HETATM   10  H   UNL     1      28.157  42.480  48.572  1.00  0.00     0.161 HD
ENDROOT
BRANCH   7  11
HETATM   11  C   UNL     1      27.527  43.554  51.665  1.00  0.00     0.261 C 
HETATM   12  N   UNL     1      27.512  43.305  53.024  1.00  0.00    -0.323 N 
HETATM   13  H   UNL     1      26.728  42.748  53.349  1.00  0.00     0.169 HD
HETATM   14  O   UNL     1      28.314  44.285  51.077  1.00  0.00    -0.267 OA
BRANCH  12  15
HETATM   15  C   UNL     1      28.433  43.737  53.997  1.00  0.00     0.037 A 
HETATM   16  C   UNL     1      28.242  44.861  54.804  1.00  0.00     0.066 A 
HETATM   17  C   UNL     1      29.223  45.228  55.726  1.00  0.00     0.067 A 
HETATM   18  C   UNL     1      30.396  44.499  55.854  1.00  0.00     0.036 A 
HETATM   19  C   UNL     1      30.593  43.374  55.057  1.00  0.00     0.005 A 
HETATM   20  C   UNL     1      29.613  42.994  54.135  1.00  0.00     0.029 A 
BRANCH  17  21
HETATM   21  O   UNL     1      29.063  46.320  56.529  1.00  0.00    -0.361 OA
HETATM   22  H   UNL     1      28.555  46.052  57.315  1.00  0.00     0.217 HD
ENDBRANCH  17  21
ENDBRANCH  12  15
ENDBRANCH   7  11
BRANCH   1  23
HETATM   23  C   UNL     1      27.549  39.246  48.679  1.00  0.00    -0.033 A 
HETATM   24  C   UNL     1      28.728  38.892  49.360  1.00  0.00     0.046 A 
HETATM   25  C   UNL     1      28.859  37.659  50.004  1.00  0.00     0.068 A 
HETATM   26  C   UNL     1      27.833  36.722  49.924  1.00  0.00     0.037 A 
HETATM   27  C   UNL     1      26.675  37.029  49.214  1.00  0.00     0.003 A 
HETATM   28  C   UNL     1      26.537  38.275  48.591  1.00  0.00     0.009 A 
BRANCH  25  29
HETATM   29  O   UNL     1      30.049  37.444  50.644  1.00  0.00    -0.356 OA
HETATM   30  C   UNL     1      29.965  36.523  51.728  1.00  0.00     0.210 C 
ENDBRANCH  25  29
ENDBRANCH   1  23
BRANCH   8  31
HETATM   31  C   UNL     1      23.646  41.424  47.693  1.00  0.00     0.409 C 
HETATM   32  F   UNL     1      23.665  42.773  47.586  1.00  0.00    -0.169 F 
HETATM   33  F   UNL     1      23.569  40.941  46.421  1.00  0.00    -0.169 F 
HETATM   34  F   UNL     1      22.499  41.058  48.300  1.00  0.00    -0.169 F 
ENDBRANCH   8  31
TORSDOF 6
ENDMDL
MODEL 8
REMARK VINA RESULT:      -8.4      4.282      6.018
REMARK  6 active torsions:
REMARK  status: ('A' for Active; 'I' for Inactive)
REMARK    1  A    between atoms: O_2  and  C_3 
REMARK    2  A    between atoms: C_5  and  C_6 
REMARK    3  A    between atoms: C_12  and  C_13 
REMARK       I    between atoms: C_13  and  N_14 
REMARK    4  A    between atoms: N_14  and  C_15 
REMARK    5  A    between atoms: C_17  and  O_18 
REMARK    6  A    between atoms: C_23  and  C_24 
ROOT
HETATM    1  C   UNL     1      26.095  46.976  50.004  1.00  0.00     0.118 C 
HETATM    2  N   UNL     1      26.660  45.610  49.945  1.00  0.00    -0.365 N 
HETATM    3  C   UNL     1      26.375  44.744  50.963  1.00  0.00     0.138 A 
HETATM    4  N   UNL     1      25.862  45.198  52.157  1.00  0.00    -0.240 N 
HETATM    5  N   UNL     1      25.574  44.220  53.025  1.00  0.00    -0.181 NA
HETATM    6  C   UNL     1      25.994  43.117  52.399  1.00  0.00     0.160 A 
HETATM    7  C   UNL     1      26.505  43.374  51.101  1.00  0.00     0.096 A 
HETATM    8  C   UNL     1      25.621  46.595  52.471  1.00  0.00     0.221 C 
HETATM    9  C   UNL     1      26.315  47.501  51.431  1.00  0.00     0.066 C 
HETATM   10  H   UNL     1      27.621  45.607  49.594  1.00  0.00     0.161 HD
ENDROOT
BRANCH   7  11
HETATM   11  C   UNL     1      27.007  42.380  50.165  1.00  0.00     0.261 C 
HETATM   12  N   UNL     1      27.192  41.132  50.727  1.00  0.00    -0.323 N 
HETATM   13  H   UNL     1      27.047  41.088  51.731  1.00  0.00     0.169 HD
HETATM   14  O   UNL     1      27.229  42.684  48.999  1.00  0.00    -0.267 OA
BRANCH  12  15
HETATM   15  C   UNL     1      27.563  39.935  50.084  1.00  0.00     0.037 A 
HETATM   16  C   UNL     1      28.744  39.240  50.357  1.00  0.00     0.066 A 
HETATM   17  C   UNL     1      29.041  38.074  49.652  1.00  0.00     0.067 A 
HETATM   18  C   UNL     1      28.185  37.590  48.672  1.00  0.00     0.036 A 
HETATM   19  C   UNL     1      27.004  38.274  48.397  1.00  0.00     0.005 A 
HETATM   20  C   UNL     1      26.693  39.440  49.103  1.00  0.00     0.029 A 
BRANCH  17  21
HETATM   21  O   UNL     1      30.185  37.372  49.898  1.00  0.00    -0.361 OA
HETATM   22  H   UNL     1      30.275  37.259  50.860  1.00  0.00     0.217 HD
ENDBRANCH  17  21
ENDBRANCH  12  15
ENDBRANCH   7  11
BRANCH   1  23
HETATM   23  C   UNL     1      24.645  47.014  49.521  1.00  0.00    -0.033 A 
HETATM   24  C   UNL     1      23.892  48.202  49.566  1.00  0.00     0.046 A 
HETATM   25  C   UNL     1      22.580  48.255  49.090  1.00  0.00     0.068 A 
HETATM   26  C   UNL     1      21.966  47.099  48.618  1.00  0.00     0.037 A 
HETATM   27  C   UNL     1      22.673  45.899  48.610  1.00  0.00     0.003 A 
HETATM   28  C   UNL     1      23.996  45.855  49.063  1.00  0.00     0.009 A 
BRANCH  25  29
HETATM   29  O   UNL     1      21.963  49.473  49.176  1.00  0.00    -0.356 OA
HETATM   30  C   UNL     1      22.857  50.580  49.117  1.00  0.00     0.210 C 
ENDBRANCH  25  29
ENDBRANCH   1  23
BRANCH   8  31
HETATM   31  C   UNL     1      26.117  46.960  53.855  1.00  0.00     0.409 C 
HETATM   32  F   UNL     1      27.466  47.060  53.907  1.00  0.00    -0.169 F 
HETATM   33  F   UNL     1      25.630  48.185  54.199  1.00  0.00    -0.169 F 
HETATM   34  F   UNL     1      25.713  46.113  54.822  1.00  0.00    -0.169 F 
ENDBRANCH   8  31
TORSDOF 6
ENDMDL
MODEL 9
REMARK VINA RESULT:      -8.4      3.089      8.201
REMARK  6 active torsions:
REMARK  status: ('A' for Active; 'I' for Inactive)
REMARK    1  A    between atoms: O_2  and  C_3 
REMARK    2  A    between atoms: C_5  and  C_6 
REMARK    3  A    between atoms: C_12  and  C_13 
REMARK       I    between atoms: C_13  and  N_14 
REMARK    4  A    between atoms: N_14  and  C_15 
REMARK    5  A    between atoms: C_17  and  O_18 
REMARK    6  A    between atoms: C_23  and  C_24 
ROOT
HETATM    1  C   UNL     1      26.960  44.428  50.222  1.00  0.00     0.118 C 
HETATM    2  N   UNL     1      26.013  45.408  49.647  1.00  0.00    -0.365 N 
HETATM    3  C   UNL     1      24.708  45.035  49.489  1.00  0.00     0.138 A 
HETATM    4  N   UNL     1      24.337  43.711  49.548  1.00  0.00    -0.240 N 
HETATM    5  N   UNL     1      23.015  43.518  49.442  1.00  0.00    -0.181 NA
HETATM    6  C   UNL     1      22.539  44.748  49.225  1.00  0.00     0.160 A 
HETATM    7  C   UNL     1      23.546  45.745  49.244  1.00  0.00     0.096 A 
HETATM    8  C   UNL     1      25.259  42.605  49.730  1.00  0.00     0.221 C 
HETATM    9  C   UNL     1      26.711  43.084  49.518  1.00  0.00     0.066 C 
HETATM   10  H   UNL     1      26.433  45.946  48.885  1.00  0.00     0.161 HD
ENDROOT
BRANCH   7  11
HETATM   11  C   UNL     1      23.340  47.175  49.072  1.00  0.00     0.261 C 
HETATM   12  N   UNL     1      22.029  47.517  48.801  1.00  0.00    -0.323 N 
HETATM   13  H   UNL     1      21.401  46.732  48.664  1.00  0.00     0.169 HD
HETATM   14  O   UNL     1      24.281  47.953  49.167  1.00  0.00    -0.267 OA
BRANCH  12  15
HETATM   15  C   UNL     1      21.474  48.806  48.682  1.00  0.00     0.037 A 
HETATM   16  C   UNL     1      20.535  49.162  47.711  1.00  0.00     0.066 A 
HETATM   17  C   UNL     1      20.058  50.471  47.654  1.00  0.00     0.067 A 
HETATM   18  C   UNL     1      20.505  51.438  48.544  1.00  0.00     0.036 A 
HETATM   19  C   UNL     1      21.437  51.091  49.519  1.00  0.00     0.005 A 
HETATM   20  C   UNL     1      21.917  49.779  49.589  1.00  0.00     0.029 A 
BRANCH  17  21
HETATM   21  O   UNL     1      19.139  50.848  46.718  1.00  0.00    -0.361 OA
HETATM   22  H   UNL     1      18.438  50.174  46.687  1.00  0.00     0.217 HD
ENDBRANCH  17  21
ENDBRANCH  12  15
ENDBRANCH   7  11
BRANCH   1  23
HETATM   23  C   UNL     1      26.874  44.380  51.748  1.00  0.00    -0.033 A 
HETATM   24  C   UNL     1      26.264  45.416  52.478  1.00  0.00     0.046 A 
HETATM   25  C   UNL     1      26.146  45.360  53.868  1.00  0.00     0.068 A 
HETATM   26  C   UNL     1      26.697  44.293  54.570  1.00  0.00     0.037 A 
HETATM   27  C   UNL     1      27.351  43.277  53.874  1.00  0.00     0.003 A 
HETATM   28  C   UNL     1      27.445  43.324  52.479  1.00  0.00     0.009 A 
BRANCH  25  29
HETATM   29  O   UNL     1      25.518  46.424  54.457  1.00  0.00    -0.356 OA
HETATM   30  C   UNL     1      26.300  47.614  54.487  1.00  0.00     0.210 C 
ENDBRANCH  25  29
ENDBRANCH   1  23
BRANCH   8  31
HETATM   31  C   UNL     1      24.971  41.463  48.778  1.00  0.00     0.409 C 
HETATM   32  F   UNL     1      25.750  40.383  49.021  1.00  0.00    -0.169 F 
HETATM   33  F   UNL     1      23.684  41.051  48.946  1.00  0.00    -0.169 F 
HETATM   34  F   UNL     1      25.090  41.792  47.477  1.00  0.00    -0.169 F 
ENDBRANCH   8  31
TORSDOF 6
ENDMDL
MODEL 10
REMARK VINA RESULT:      -8.4      4.553      8.862
REMARK  6 active torsions:
REMARK  status: ('A' for Active; 'I' for Inactive)
REMARK    1  A    between atoms: O_2  and  C_3 
REMARK    2  A    between atoms: C_5  and  C_6 
REMARK    3  A    between atoms: C_12  and  C_13 
REMARK       I    between atoms: C_13  and  N_14 
REMARK    4  A    between atoms: N_14  and  C_15 
REMARK    5  A    between atoms: C_17  and  O_18 
REMARK    6  A    between atoms: C_23  and  C_24 
ROOT
HETATM    1  C   UNL     1      23.152  43.447  49.984  1.00  0.00     0.118 C 
HETATM    2  N   UNL     1      22.759  44.858  49.780  1.00  0.00    -0.365 N 
HETATM    3  C   UNL     1      23.744  45.801  49.689  1.00  0.00     0.138 A 
HETATM    4  N   UNL     1      25.031  45.523  50.092  1.00  0.00    -0.240 N 
HETATM    5  N   UNL     1      25.891  46.527  49.875  1.00  0.00    -0.181 NA
HETATM    6  C   UNL     1      25.113  47.503  49.398  1.00  0.00     0.160 A 
HETATM    7  C   UNL     1      23.757  47.114  49.254  1.00  0.00     0.096 A 
HETATM    8  C   UNL     1      25.456  44.265  50.679  1.00  0.00     0.221 C 
HETATM    9  C   UNL     1      24.226  43.425  51.084  1.00  0.00     0.066 C 
HETATM   10  H   UNL     1      21.932  45.109  50.328  1.00  0.00     0.161 HD
ENDROOT
BRANCH   7  11
HETATM   11  C   UNL     1      22.679  47.940  48.733  1.00  0.00     0.261 C 
HETATM   12  N   UNL     1      22.099  48.759  49.682  1.00  0.00    -0.323 N 
HETATM   13  H   UNL     1      22.430  48.616  50.631  1.00  0.00     0.169 HD
HETATM   14  O   UNL     1      22.359  47.868  47.553  1.00  0.00    -0.267 OA
BRANCH  12  15
HETATM   15  C   UNL     1      21.112  49.745  49.494  1.00  0.00     0.037 A 
HETATM   16  C   UNL     1      19.842  49.695  50.073  1.00  0.00     0.066 A 
HETATM   17  C   UNL     1      18.919  50.707  49.809  1.00  0.00     0.067 A 
HETATM   18  C   UNL     1      19.235  51.766  48.971  1.00  0.00     0.036 A 
HETATM   19  C   UNL     1      20.500  51.826  48.392  1.00  0.00     0.005 A 
HETATM   20  C   UNL     1      21.435  50.821  48.655  1.00  0.00     0.029 A 
BRANCH  17  21
HETATM   21  O   UNL     1      17.672  50.686  50.363  1.00  0.00    -0.361 OA
HETATM   22  H   UNL     1      17.125  50.053  49.867  1.00  0.00     0.217 HD
ENDBRANCH  17  21
ENDBRANCH  12  15
ENDBRANCH   7  11
BRANCH   1  23
HETATM   23  C   UNL     1      23.562  42.774  48.674  1.00  0.00    -0.033 A 
HETATM   24  C   UNL     1      24.406  41.649  48.664  1.00  0.00     0.046 A 
HETATM   25  C   UNL     1      24.752  41.005  47.474  1.00  0.00     0.068 A 
HETATM   26  C   UNL     1      24.313  41.514  46.256  1.00  0.00     0.037 A 
HETATM   27  C   UNL     1      23.517  42.656  46.235  1.00  0.00     0.003 A 
HETATM   28  C   UNL     1      23.151  43.285  47.431  1.00  0.00     0.009 A 
BRANCH  25  29
HETATM   29  O   UNL     1      25.567  39.913  47.601  1.00  0.00    -0.356 OA
HETATM   30  C   UNL     1      26.257  39.847  48.846  1.00  0.00     0.210 C 
ENDBRANCH  25  29
ENDBRANCH   1  23
BRANCH   8  31
HETATM   31  C   UNL     1      26.335  44.473  51.894  1.00  0.00     0.409 C 
HETATM   32  F   UNL     1      25.966  45.557  52.615  1.00  0.00    -0.169 F 
HETATM   33  F   UNL     1      26.213  43.401  52.727  1.00  0.00    -0.169 F 
HETATM   34  F   UNL     1      27.648  44.574  51.609  1.00  0.00    -0.169 F 
ENDBRANCH   8  31
TORSDOF 6
ENDMDL
