MODEL 1
REMARK VINA RESULT:      -9.0      0.000      0.000
REMARK  8 active torsions:
REMARK  status: ('A' for Active; 'I' for Inactive)
REMARK    1  A    between atoms: O_2  and  C_3 
REMARK    2  A    between atoms: C_6  and  C_7 
REMARK    3  A    between atoms: C_7  and  O_8 
REMARK    4  A    between atoms: C_7  and  C_9 
REMARK    5  A    between atoms: C_9  and  N_10 
REMARK    6  A    between atoms: C_11  and  N_12 
REMARK    7  A    between atoms: N_13  and  C_14 
REMARK    8  A    between atoms: C_14  and  C_15 
ROOT
HETATM    1  N   UNL     1      23.566  48.603  48.906  1.00  0.00    -0.178 N 
HETATM    2  C   UNL     1      23.434  47.351  49.326  1.00  0.00     0.681 C 
HETATM    3  N   UNL     1      24.599  46.911  49.779  1.00  0.00    -0.177 N 
HETATM    4  C   UNL     1      25.589  47.825  49.421  1.00  0.00     0.079 A 
HETATM    5  C   UNL     1      24.921  48.917  48.858  1.00  0.00     0.079 A 
HETATM    6  C   UNL     1      26.974  47.787  49.553  1.00  0.00     0.032 A 
HETATM    7  C   UNL     1      27.667  48.910  49.083  1.00  0.00     0.002 A 
HETATM    8  C   UNL     1      26.995  50.013  48.518  1.00  0.00     0.002 A 
HETATM    9  C   UNL     1      25.599  50.043  48.397  1.00  0.00     0.032 A 
ENDROOT
BRANCH   1  10
HETATM   10  C   UNL     1      22.450  49.517  48.612  1.00  0.00     0.184 C 
BRANCH  10  11
HETATM   11  C   UNL     1      21.867  50.191  49.874  1.00  0.00     0.170 C 
BRANCH  11  12
HETATM   12  C   UNL     1      20.536  50.840  49.567  1.00  0.00    -0.028 A 
HETATM   13  C   UNL     1      20.396  51.786  48.538  1.00  0.00     0.012 A 
HETATM   14  C   UNL     1      19.146  52.335  48.232  1.00  0.00     0.037 A 
HETATM   15  C   UNL     1      18.013  51.938  48.937  1.00  0.00     0.068 A 
HETATM   16  C   UNL     1      18.145  50.998  49.961  1.00  0.00     0.037 A 
HETATM   17  C   UNL     1      19.392  50.453  50.277  1.00  0.00     0.012 A 
BRANCH  15  18
HETATM   18  O   UNL     1      16.737  52.379  48.728  1.00  0.00    -0.356 OA
HETATM   19  C   UNL     1      15.901  52.514  49.872  1.00  0.00     0.210 C 
ENDBRANCH  15  18
ENDBRANCH  11  12
BRANCH  11  20
HETATM   20  O   UNL     1      22.795  51.176  50.375  1.00  0.00    -0.389 OA
HETATM   21  H   UNL     1      23.213  50.760  51.158  1.00  0.00     0.210 HD
ENDBRANCH  11  20
ENDBRANCH  10  11
ENDBRANCH   1  10
BRANCH   2  22
HETATM   22  N   UNL     1      22.307  46.646  49.285  1.00  0.00    -0.234 N 
HETATM   23  H   UNL     1      22.183  45.991  48.510  1.00  0.00     0.174 HD
HETATM   24  H   UNL     1      21.734  46.519  50.104  1.00  0.00     0.174 HD
ENDBRANCH   2  22
BRANCH   3  25
HETATM   25  C   UNL     1      24.800  45.716  50.584  1.00  0.00     0.186 C 
BRANCH  25  26
HETATM   26  C   UNL     1      25.545  45.992  51.867  1.00  0.00    -0.039 A 
HETATM   27  C   UNL     1      25.328  47.123  52.669  1.00  0.00     0.009 A 
HETATM   28  C   UNL     1      26.049  47.306  53.852  1.00  0.00     0.001 A 
HETATM   29  C   UNL     1      26.988  46.360  54.255  1.00  0.00     0.000 A 
HETATM   30  C   UNL     1      27.209  45.228  53.477  1.00  0.00     0.001 A 
HETATM   31  C   UNL     1      26.494  45.046  52.292  1.00  0.00     0.009 A 
ENDBRANCH  25  26
ENDBRANCH   3  25
TORSDOF 8
ENDMDL
MODEL 2
REMARK VINA RESULT:      -8.7      3.042      7.832
REMARK  8 active torsions:
REMARK  status: ('A' for Active; 'I' for Inactive)
REMARK    1  A    between atoms: O_2  and  C_3 
REMARK    2  A    between atoms: C_6  and  C_7 
REMARK    3  A    between atoms: C_7  and  O_8 
REMARK    4  A    between atoms: C_7  and  C_9 
REMARK    5  A    between atoms: C_9  and  N_10 
REMARK    6  A    between atoms: C_11  and  N_12 
REMARK    7  A    between atoms: N_13  and  C_14 
REMARK    8  A    between atoms: C_14  and  C_15 
ROOT
HETATM    1  N   UNL     1      24.692  46.388  49.684  1.00  0.00    -0.178 N 
HETATM    2  C   UNL     1      23.447  46.611  49.280  1.00  0.00     0.681 C 
HETATM    3  N   UNL     1      23.405  47.731  48.573  1.00  0.00    -0.177 N 
HETATM    4  C   UNL     1      24.621  48.396  48.721  1.00  0.00     0.079 A 
HETATM    5  C   UNL     1      25.452  47.528  49.438  1.00  0.00     0.079 A 
HETATM    6  C   UNL     1      25.050  49.647  48.288  1.00  0.00     0.032 A 
HETATM    7  C   UNL     1      26.368  49.993  48.615  1.00  0.00     0.002 A 
HETATM    8  C   UNL     1      27.206  49.118  49.334  1.00  0.00     0.002 A 
HETATM    9  C   UNL     1      26.766  47.858  49.759  1.00  0.00     0.032 A 
ENDROOT
BRANCH   1  10
HETATM   10  C   UNL     1      25.187  45.115  50.232  1.00  0.00     0.184 C 
BRANCH  10  11
HETATM   11  C   UNL     1      24.735  44.863  51.688  1.00  0.00     0.170 C 
BRANCH  11  12
HETATM   12  C   UNL     1      25.727  45.454  52.665  1.00  0.00    -0.028 A 
HETATM   13  C   UNL     1      25.634  46.788  53.093  1.00  0.00     0.012 A 
HETATM   14  C   UNL     1      26.527  47.303  54.040  1.00  0.00     0.037 A 
HETATM   15  C   UNL     1      27.517  46.490  54.586  1.00  0.00     0.068 A 
HETATM   16  C   UNL     1      27.614  45.163  54.166  1.00  0.00     0.037 A 
HETATM   17  C   UNL     1      26.731  44.645  53.214  1.00  0.00     0.012 A 
BRANCH  15  18
HETATM   18  O   UNL     1      28.436  46.859  55.526  1.00  0.00    -0.356 OA
HETATM   19  C   UNL     1      29.489  45.942  55.801  1.00  0.00     0.210 C 
ENDBRANCH  15  18
ENDBRANCH  11  12
BRANCH  11  20
HETATM   20  O   UNL     1      24.596  43.446  51.918  1.00  0.00    -0.389 OA
HETATM   21  H   UNL     1      25.513  43.101  51.964  1.00  0.00     0.210 HD
ENDBRANCH  11  20
ENDBRANCH  10  11
ENDBRANCH   1  10
BRANCH   2  22
HETATM   22  N   UNL     1      22.404  45.833  49.554  1.00  0.00    -0.234 N 
HETATM   23  H   UNL     1      22.549  45.051  50.196  1.00  0.00     0.174 HD
HETATM   24  H   UNL     1      21.458  46.144  49.398  1.00  0.00     0.174 HD
ENDBRANCH   2  22
BRANCH   3  25
HETATM   25  C   UNL     1      22.305  48.156  47.721  1.00  0.00     0.186 C 
BRANCH  25  26
HETATM   26  C   UNL     1      21.470  49.247  48.344  1.00  0.00    -0.039 A 
HETATM   27  C   UNL     1      21.511  50.590  47.940  1.00  0.00     0.009 A 
HETATM   28  C   UNL     1      20.699  51.545  48.557  1.00  0.00     0.001 A 
HETATM   29  C   UNL     1      19.828  51.172  49.577  1.00  0.00     0.000 A 
HETATM   30  C   UNL     1      19.766  49.843  49.983  1.00  0.00     0.001 A 
HETATM   31  C   UNL     1      20.581  48.888  49.373  1.00  0.00     0.009 A 
ENDBRANCH  25  26
ENDBRANCH   3  25
TORSDOF 8
ENDMDL
MODEL 3
REMARK VINA RESULT:      -8.6      3.229      6.150
REMARK  8 active torsions:
REMARK  status: ('A' for Active; 'I' for Inactive)
REMARK    1  A    between atoms: O_2  and  C_3 
REMARK    2  A    between atoms: C_6  and  C_7 
REMARK    3  A    between atoms: C_7  and  O_8 
REMARK    4  A    between atoms: C_7  and  C_9 
REMARK    5  A    between atoms: C_9  and  N_10 
REMARK    6  A    between atoms: C_11  and  N_12 
REMARK    7  A    between atoms: N_13  and  C_14 
REMARK    8  A    between atoms: C_14  and  C_15 
ROOT
HETATM    1  N   UNL     1      26.028  44.107  51.011  1.00  0.00    -0.178 N 
HETATM    2  C   UNL     1      25.827  44.130  52.323  1.00  0.00     0.681 C 
HETATM    3  N   UNL     1      26.554  43.183  52.898  1.00  0.00    -0.177 N 
HETATM    4  C   UNL     1      27.065  42.349  51.905  1.00  0.00     0.079 A 
HETATM    5  C   UNL     1      26.725  42.946  50.686  1.00  0.00     0.079 A 
HETATM    6  C   UNL     1      27.785  41.160  51.975  1.00  0.00     0.032 A 
HETATM    7  C   UNL     1      28.151  40.590  50.749  1.00  0.00     0.002 A 
HETATM    8  C   UNL     1      27.812  41.192  49.521  1.00  0.00     0.002 A 
HETATM    9  C   UNL     1      27.092  42.393  49.463  1.00  0.00     0.032 A 
ENDROOT
BRANCH   1  10
HETATM   10  C   UNL     1      25.633  45.175  50.077  1.00  0.00     0.184 C 
BRANCH  10  11
HETATM   11  C   UNL     1      26.596  46.382  50.092  1.00  0.00     0.170 C 
BRANCH  11  12
HETATM   12  C   UNL     1      25.900  47.627  49.589  1.00  0.00    -0.028 A 
HETATM   13  C   UNL     1      26.613  48.680  48.993  1.00  0.00     0.012 A 
HETATM   14  C   UNL     1      25.947  49.801  48.484  1.00  0.00     0.037 A 
HETATM   15  C   UNL     1      24.558  49.880  48.547  1.00  0.00     0.068 A 
HETATM   16  C   UNL     1      23.844  48.837  49.138  1.00  0.00     0.037 A 
HETATM   17  C   UNL     1      24.504  47.720  49.656  1.00  0.00     0.012 A 
BRANCH  15  18
HETATM   18  O   UNL     1      23.786  50.903  48.074  1.00  0.00    -0.356 OA
HETATM   19  C   UNL     1      22.409  50.898  48.432  1.00  0.00     0.210 C 
ENDBRANCH  15  18
ENDBRANCH  11  12
BRANCH  11  20
HETATM   20  O   UNL     1      27.751  46.096  49.276  1.00  0.00    -0.389 OA
HETATM   21  H   UNL     1      27.951  46.934  48.809  1.00  0.00     0.210 HD
ENDBRANCH  11  20
ENDBRANCH  10  11
ENDBRANCH   1  10
BRANCH   2  22
HETATM   22  N   UNL     1      25.013  44.969  52.956  1.00  0.00    -0.234 N 
HETATM   23  H   UNL     1      24.464  44.601  53.736  1.00  0.00     0.174 HD
HETATM   24  H   UNL     1      25.133  45.968  52.895  1.00  0.00     0.174 HD
ENDBRANCH   2  22
BRANCH   3  25
HETATM   25  C   UNL     1      26.837  43.078  54.321  1.00  0.00     0.186 C 
BRANCH  25  26
HETATM   26  C   UNL     1      28.112  43.779  54.718  1.00  0.00    -0.039 A 
HETATM   27  C   UNL     1      28.171  45.118  55.133  1.00  0.00     0.009 A 
HETATM   28  C   UNL     1      29.389  45.698  55.497  1.00  0.00     0.001 A 
HETATM   29  C   UNL     1      30.562  44.948  55.462  1.00  0.00     0.000 A 
HETATM   30  C   UNL     1      30.520  43.616  55.064  1.00  0.00     0.001 A 
HETATM   31  C   UNL     1      29.306  43.036  54.694  1.00  0.00     0.009 A 
ENDBRANCH  25  26
ENDBRANCH   3  25
TORSDOF 8
ENDMDL
MODEL 4
REMARK VINA RESULT:      -8.6      1.440      1.654
REMARK  8 active torsions:
REMARK  status: ('A' for Active; 'I' for Inactive)
REMARK    1  A    between atoms: O_2  and  C_3 
REMARK    2  A    between atoms: C_6  and  C_7 
REMARK    3  A    between atoms: C_7  and  O_8 
REMARK    4  A    between atoms: C_7  and  C_9 
REMARK    5  A    between atoms: C_9  and  N_10 
REMARK    6  A    between atoms: C_11  and  N_12 
REMARK    7  A    between atoms: N_13  and  C_14 
REMARK    8  A    between atoms: C_14  and  C_15 
ROOT
HETATM    1  N   UNL     1      23.886  47.932  49.375  1.00  0.00    -0.178 N 
HETATM    2  C   UNL     1      24.119  46.691  49.782  1.00  0.00     0.681 C 
HETATM    3  N   UNL     1      25.410  46.547  50.048  1.00  0.00    -0.177 N 
HETATM    4  C   UNL     1      26.090  47.664  49.567  1.00  0.00     0.079 A 
HETATM    5  C   UNL     1      25.105  48.559  49.133  1.00  0.00     0.079 A 
HETATM    6  C   UNL     1      27.448  47.959  49.490  1.00  0.00     0.032 A 
HETATM    7  C   UNL     1      27.776  49.208  48.947  1.00  0.00     0.002 A 
HETATM    8  C   UNL     1      26.786  50.111  48.513  1.00  0.00     0.002 A 
HETATM    9  C   UNL     1      25.421  49.806  48.601  1.00  0.00     0.032 A 
ENDROOT
BRANCH   1  10
HETATM   10  C   UNL     1      22.554  48.551  49.270  1.00  0.00     0.184 C 
BRANCH  10  11
HETATM   11  C   UNL     1      22.154  48.893  47.818  1.00  0.00     0.170 C 
BRANCH  11  12
HETATM   12  C   UNL     1      20.957  49.818  47.796  1.00  0.00    -0.028 A 
HETATM   13  C   UNL     1      19.763  49.461  47.151  1.00  0.00     0.012 A 
HETATM   14  C   UNL     1      18.646  50.304  47.188  1.00  0.00     0.037 A 
HETATM   15  C   UNL     1      18.701  51.510  47.883  1.00  0.00     0.068 A 
HETATM   16  C   UNL     1      19.884  51.870  48.528  1.00  0.00     0.037 A 
HETATM   17  C   UNL     1      21.005  51.036  48.487  1.00  0.00     0.012 A 
BRANCH  15  18
HETATM   18  O   UNL     1      17.683  52.412  48.014  1.00  0.00    -0.356 OA
HETATM   19  C   UNL     1      16.530  51.991  48.735  1.00  0.00     0.210 C 
ENDBRANCH  15  18
ENDBRANCH  11  12
BRANCH  11  20
HETATM   20  O   UNL     1      21.859  47.681  47.094  1.00  0.00    -0.389 OA
HETATM   21  H   UNL     1      22.474  47.009  47.455  1.00  0.00     0.210 HD
ENDBRANCH  11  20
ENDBRANCH  10  11
ENDBRANCH   1  10
BRANCH   2  22
HETATM   22  N   UNL     1      23.199  45.738  49.893  1.00  0.00    -0.234 N 
HETATM   23  H   UNL     1      22.267  46.011  50.212  1.00  0.00     0.174 HD
HETATM   24  H   UNL     1      23.293  44.854  49.417  1.00  0.00     0.174 HD
ENDBRANCH   2  22
BRANCH   3  25
HETATM   25  C   UNL     1      26.006  45.445  50.788  1.00  0.00     0.186 C 
BRANCH  25  26
HETATM   26  C   UNL     1      26.346  45.812  52.211  1.00  0.00    -0.039 A 
HETATM   27  C   UNL     1      25.876  46.968  52.854  1.00  0.00     0.009 A 
HETATM   28  C   UNL     1      26.224  47.236  54.180  1.00  0.00     0.001 A 
HETATM   29  C   UNL     1      27.037  46.352  54.885  1.00  0.00     0.000 A 
HETATM   30  C   UNL     1      27.504  45.197  54.267  1.00  0.00     0.001 A 
HETATM   31  C   UNL     1      27.162  44.929  52.940  1.00  0.00     0.009 A 
ENDBRANCH  25  26
ENDBRANCH   3  25
TORSDOF 8
ENDMDL
MODEL 5
REMARK VINA RESULT:      -8.6      4.876      9.646
REMARK  8 active torsions:
REMARK  status: ('A' for Active; 'I' for Inactive)
REMARK    1  A    between atoms: O_2  and  C_3 
REMARK    2  A    between atoms: C_6  and  C_7 
REMARK    3  A    between atoms: C_7  and  O_8 
REMARK    4  A    between atoms: C_7  and  C_9 
REMARK    5  A    between atoms: C_9  and  N_10 
REMARK    6  A    between atoms: C_11  and  N_12 
REMARK    7  A    between atoms: N_13  and  C_14 
REMARK    8  A    between atoms: C_14  and  C_15 
ROOT
HETATM    1  N   UNL     1      25.974  44.364  51.901  1.00  0.00    -0.178 N 
HETATM    2  C   UNL     1      25.778  45.674  51.806  1.00  0.00     0.681 C 
HETATM    3  N   UNL     1      24.995  45.930  50.768  1.00  0.00    -0.177 N 
HETATM    4  C   UNL     1      24.870  44.769  50.008  1.00  0.00     0.079 A 
HETATM    5  C   UNL     1      25.501  43.758  50.741  1.00  0.00     0.079 A 
HETATM    6  C   UNL     1      24.261  44.528  48.780  1.00  0.00     0.032 A 
HETATM    7  C   UNL     1      24.320  43.209  48.313  1.00  0.00     0.002 A 
HETATM    8  C   UNL     1      24.953  42.189  49.051  1.00  0.00     0.002 A 
HETATM    9  C   UNL     1      25.556  42.441  50.290  1.00  0.00     0.032 A 
ENDROOT
BRANCH   1  10
HETATM   10  C   UNL     1      26.534  43.677  53.076  1.00  0.00     0.184 C 
BRANCH  10  11
HETATM   11  C   UNL     1      28.021  43.294  52.905  1.00  0.00     0.170 C 
BRANCH  11  12
HETATM   12  C   UNL     1      28.842  43.806  54.067  1.00  0.00    -0.028 A 
HETATM   13  C   UNL     1      28.481  44.967  54.769  1.00  0.00     0.012 A 
HETATM   14  C   UNL     1      29.221  45.397  55.877  1.00  0.00     0.037 A 
HETATM   15  C   UNL     1      30.324  44.665  56.310  1.00  0.00     0.068 A 
HETATM   16  C   UNL     1      30.688  43.510  55.617  1.00  0.00     0.037 A 
HETATM   17  C   UNL     1      29.958  43.081  54.505  1.00  0.00     0.012 A 
BRANCH  15  18
HETATM   18  O   UNL     1      31.117  44.960  57.382  1.00  0.00    -0.356 OA
HETATM   19  C   UNL     1      30.657  45.971  58.272  1.00  0.00     0.210 C 
ENDBRANCH  15  18
ENDBRANCH  11  12
BRANCH  11  20
HETATM   20  O   UNL     1      28.525  43.833  51.665  1.00  0.00    -0.389 OA
HETATM   21  H   UNL     1      28.735  43.052  51.112  1.00  0.00     0.210 HD
ENDBRANCH  11  20
ENDBRANCH  10  11
ENDBRANCH   1  10
BRANCH   2  22
HETATM   22  N   UNL     1      26.297  46.585  52.624  1.00  0.00    -0.234 N 
HETATM   23  H   UNL     1      26.643  46.268  53.531  1.00  0.00     0.174 HD
HETATM   24  H   UNL     1      26.620  47.477  52.283  1.00  0.00     0.174 HD
ENDBRANCH   2  22
BRANCH   3  25
HETATM   25  C   UNL     1      24.318  47.191  50.508  1.00  0.00     0.186 C 
BRANCH  25  26
HETATM   26  C   UNL     1      25.154  48.149  49.697  1.00  0.00    -0.039 A 
HETATM   27  C   UNL     1      26.557  48.157  49.699  1.00  0.00     0.009 A 
HETATM   28  C   UNL     1      27.266  49.068  48.912  1.00  0.00     0.001 A 
HETATM   29  C   UNL     1      26.586  49.976  48.104  1.00  0.00     0.000 A 
HETATM   30  C   UNL     1      25.195  49.975  48.081  1.00  0.00     0.001 A 
HETATM   31  C   UNL     1      24.484  49.070  48.872  1.00  0.00     0.009 A 
ENDBRANCH  25  26
ENDBRANCH   3  25
TORSDOF 8
ENDMDL
MODEL 6
REMARK VINA RESULT:      -8.3     20.545     21.976
REMARK  8 active torsions:
REMARK  status: ('A' for Active; 'I' for Inactive)
REMARK    1  A    between atoms: O_2  and  C_3 
REMARK    2  A    between atoms: C_6  and  C_7 
REMARK    3  A    between atoms: C_7  and  O_8 
REMARK    4  A    between atoms: C_7  and  C_9 
REMARK    5  A    between atoms: C_9  and  N_10 
REMARK    6  A    between atoms: C_11  and  N_12 
REMARK    7  A    between atoms: N_13  and  C_14 
REMARK    8  A    between atoms: C_14  and  C_15 
ROOT
HETATM    1  N   UNL     1      37.642  45.442  65.355  1.00  0.00    -0.178 N 
HETATM    2  C   UNL     1      36.985  44.656  64.512  1.00  0.00     0.681 C 
HETATM    3  N   UNL     1      37.850  43.971  63.779  1.00  0.00    -0.177 N 
HETATM    4  C   UNL     1      39.122  44.504  63.978  1.00  0.00     0.079 A 
HETATM    5  C   UNL     1      38.987  45.455  64.996  1.00  0.00     0.079 A 
HETATM    6  C   UNL     1      40.345  44.231  63.373  1.00  0.00     0.032 A 
HETATM    7  C   UNL     1      41.441  44.968  63.842  1.00  0.00     0.002 A 
HETATM    8  C   UNL     1      41.308  45.922  64.869  1.00  0.00     0.002 A 
HETATM    9  C   UNL     1      40.072  46.185  65.476  1.00  0.00     0.032 A 
ENDROOT
BRANCH   1  10
HETATM   10  C   UNL     1      37.045  46.126  66.514  1.00  0.00     0.184 C 
BRANCH  10  11
HETATM   11  C   UNL     1      36.241  47.387  66.129  1.00  0.00     0.170 C 
BRANCH  11  12
HETATM   12  C   UNL     1      37.109  48.623  66.222  1.00  0.00    -0.028 A 
HETATM   13  C   UNL     1      38.001  48.975  65.196  1.00  0.00     0.012 A 
HETATM   14  C   UNL     1      38.756  50.151  65.272  1.00  0.00     0.037 A 
HETATM   15  C   UNL     1      38.621  51.001  66.367  1.00  0.00     0.068 A 
HETATM   16  C   UNL     1      37.736  50.658  67.389  1.00  0.00     0.037 A 
HETATM   17  C   UNL     1      36.986  49.481  67.322  1.00  0.00     0.012 A 
BRANCH  15  18
HETATM   18  O   UNL     1      39.280  52.182  66.557  1.00  0.00    -0.356 OA
HETATM   19  C   UNL     1      38.538  53.258  67.119  1.00  0.00     0.210 C 
ENDBRANCH  15  18
ENDBRANCH  11  12
BRANCH  11  20
HETATM   20  O   UNL     1      35.096  47.520  66.996  1.00  0.00    -0.389 OA
HETATM   21  H   UNL     1      35.457  47.823  67.855  1.00  0.00     0.210 HD
ENDBRANCH  11  20
ENDBRANCH  10  11
ENDBRANCH   1  10
BRANCH   2  22
HETATM   22  N   UNL     1      35.661  44.578  64.415  1.00  0.00    -0.234 N 
HETATM   23  H   UNL     1      35.223  44.953  63.571  1.00  0.00     0.174 HD
HETATM   24  H   UNL     1      35.127  43.931  64.974  1.00  0.00     0.174 HD
ENDBRANCH   2  22
BRANCH   3  25
HETATM   25  C   UNL     1      37.537  42.807  62.964  1.00  0.00     0.186 C 
BRANCH  25  26
HETATM   26  C   UNL     1      38.260  41.563  63.418  1.00  0.00    -0.039 A 
HETATM   27  C   UNL     1      38.185  41.046  64.720  1.00  0.00     0.009 A 
HETATM   28  C   UNL     1      38.875  39.880  65.065  1.00  0.00     0.001 A 
HETATM   29  C   UNL     1      39.640  39.211  64.114  1.00  0.00     0.000 A 
HETATM   30  C   UNL     1      39.718  39.703  62.816  1.00  0.00     0.001 A 
HETATM   31  C   UNL     1      39.035  40.870  62.470  1.00  0.00     0.009 A 
ENDBRANCH  25  26
ENDBRANCH   3  25
TORSDOF 8
ENDMDL
MODEL 7
REMARK VINA RESULT:      -8.3      1.572      2.428
REMARK  8 active torsions:
REMARK  status: ('A' for Active; 'I' for Inactive)
REMARK    1  A    between atoms: O_2  and  C_3 
REMARK    2  A    between atoms: C_6  and  C_7 
REMARK    3  A    between atoms: C_7  and  O_8 
REMARK    4  A    between atoms: C_7  and  C_9 
REMARK    5  A    between atoms: C_9  and  N_10 
REMARK    6  A    between atoms: C_11  and  N_12 
REMARK    7  A    between atoms: N_13  and  C_14 
REMARK    8  A    between atoms: C_14  and  C_15 
ROOT
HETATM    1  N   UNL     1      23.594  48.572  48.612  1.00  0.00    -0.178 N 
HETATM    2  C   UNL     1      23.437  47.428  49.267  1.00  0.00     0.681 C 
HETATM    3  N   UNL     1      24.537  47.156  49.954  1.00  0.00    -0.177 N 
HETATM    4  C   UNL     1      25.543  48.029  49.545  1.00  0.00     0.079 A 
HETATM    5  C   UNL     1      24.933  48.943  48.679  1.00  0.00     0.079 A 
HETATM    6  C   UNL     1      26.896  48.095  49.864  1.00  0.00     0.032 A 
HETATM    7  C   UNL     1      27.619  49.134  49.262  1.00  0.00     0.002 A 
HETATM    8  C   UNL     1      27.006  50.057  48.393  1.00  0.00     0.002 A 
HETATM    9  C   UNL     1      25.641  49.985  48.084  1.00  0.00     0.032 A 
ENDROOT
BRANCH   1  10
HETATM   10  C   UNL     1      22.507  49.343  47.986  1.00  0.00     0.184 C 
BRANCH  10  11
HETATM   11  C   UNL     1      21.774  50.275  48.976  1.00  0.00     0.170 C 
BRANCH  11  12
HETATM   12  C   UNL     1      20.488  50.792  48.371  1.00  0.00    -0.028 A 
HETATM   13  C   UNL     1      19.829  51.918  48.890  1.00  0.00     0.012 A 
HETATM   14  C   UNL     1      18.670  52.416  48.284  1.00  0.00     0.037 A 
HETATM   15  C   UNL     1      18.159  51.806  47.141  1.00  0.00     0.068 A 
HETATM   16  C   UNL     1      18.809  50.687  46.619  1.00  0.00     0.037 A 
HETATM   17  C   UNL     1      19.962  50.180  47.225  1.00  0.00     0.012 A 
BRANCH  15  18
HETATM   18  O   UNL     1      17.052  52.199  46.444  1.00  0.00    -0.356 OA
HETATM   19  C   UNL     1      17.239  52.568  45.082  1.00  0.00     0.210 C 
ENDBRANCH  15  18
ENDBRANCH  11  12
BRANCH  11  20
HETATM   20  O   UNL     1      22.632  51.378  49.335  1.00  0.00    -0.389 OA
HETATM   21  H   UNL     1      23.536  51.002  49.363  1.00  0.00     0.210 HD
ENDBRANCH  11  20
ENDBRANCH  10  11
ENDBRANCH   1  10
BRANCH   2  22
HETATM   22  N   UNL     1      22.345  46.669  49.227  1.00  0.00    -0.234 N 
HETATM   23  H   UNL     1      22.382  45.758  49.690  1.00  0.00     0.174 HD
HETATM   24  H   UNL     1      21.438  47.059  49.028  1.00  0.00     0.174 HD
ENDBRANCH   2  22
BRANCH   3  25
HETATM   25  C   UNL     1      24.652  46.166  51.013  1.00  0.00     0.186 C 
BRANCH  25  26
HETATM   26  C   UNL     1      25.435  44.947  50.593  1.00  0.00    -0.039 A 
HETATM   27  C   UNL     1      25.058  44.101  49.538  1.00  0.00     0.009 A 
HETATM   28  C   UNL     1      25.840  42.994  49.198  1.00  0.00     0.001 A 
HETATM   29  C   UNL     1      27.013  42.723  49.897  1.00  0.00     0.000 A 
HETATM   30  C   UNL     1      27.408  43.556  50.938  1.00  0.00     0.001 A 
HETATM   31  C   UNL     1      26.625  44.659  51.284  1.00  0.00     0.009 A 
ENDBRANCH  25  26
ENDBRANCH   3  25
TORSDOF 8
ENDMDL
MODEL 8
REMARK VINA RESULT:      -8.3      4.855      7.224
REMARK  8 active torsions:
REMARK  status: ('A' for Active; 'I' for Inactive)
REMARK    1  A    between atoms: O_2  and  C_3 
REMARK    2  A    between atoms: C_6  and  C_7 
REMARK    3  A    between atoms: C_7  and  O_8 
REMARK    4  A    between atoms: C_7  and  C_9 
REMARK    5  A    between atoms: C_9  and  N_10 
REMARK    6  A    between atoms: C_11  and  N_12 
REMARK    7  A    between atoms: N_13  and  C_14 
REMARK    8  A    between atoms: C_14  and  C_15 
ROOT
HETATM    1  N   UNL     1      27.176  43.043  50.477  1.00  0.00    -0.178 N 
HETATM    2  C   UNL     1      27.590  42.631  51.669  1.00  0.00     0.681 C 
HETATM    3  N   UNL     1      27.233  43.513  52.592  1.00  0.00    -0.177 N 
HETATM    4  C   UNL     1      26.781  44.666  51.952  1.00  0.00     0.079 A 
HETATM    5  C   UNL     1      26.744  44.362  50.587  1.00  0.00     0.079 A 
HETATM    6  C   UNL     1      26.403  45.910  52.447  1.00  0.00     0.032 A 
HETATM    7  C   UNL     1      25.983  46.849  51.495  1.00  0.00     0.002 A 
HETATM    8  C   UNL     1      25.942  46.543  50.121  1.00  0.00     0.002 A 
HETATM    9  C   UNL     1      26.319  45.284  49.634  1.00  0.00     0.032 A 
ENDROOT
BRANCH   1  10
HETATM   10  C   UNL     1      27.124  42.208  49.266  1.00  0.00     0.184 C 
BRANCH  10  11
HETATM   11  C   UNL     1      25.890  41.280  49.219  1.00  0.00     0.170 C 
BRANCH  11  12
HETATM   12  C   UNL     1      24.617  42.089  49.097  1.00  0.00    -0.028 A 
HETATM   13  C   UNL     1      23.874  42.469  50.226  1.00  0.00     0.012 A 
HETATM   14  C   UNL     1      22.729  43.264  50.099  1.00  0.00     0.037 A 
HETATM   15  C   UNL     1      22.317  43.705  48.844  1.00  0.00     0.068 A 
HETATM   16  C   UNL     1      23.052  43.331  47.718  1.00  0.00     0.037 A 
HETATM   17  C   UNL     1      24.191  42.531  47.838  1.00  0.00     0.012 A 
BRANCH  15  18
HETATM   18  O   UNL     1      21.235  44.496  48.582  1.00  0.00    -0.356 OA
HETATM   19  C   UNL     1      21.488  45.864  48.282  1.00  0.00     0.210 C 
ENDBRANCH  15  18
ENDBRANCH  11  12
BRANCH  11  20
HETATM   20  O   UNL     1      25.847  40.464  50.408  1.00  0.00    -0.389 OA
HETATM   21  H   UNL     1      25.860  39.539  50.086  1.00  0.00     0.210 HD
ENDBRANCH  11  20
ENDBRANCH  10  11
ENDBRANCH   1  10
BRANCH   2  22
HETATM   22  N   UNL     1      28.267  41.509  51.897  1.00  0.00    -0.234 N 
HETATM   23  H   UNL     1      27.745  40.631  51.903  1.00  0.00     0.174 HD
HETATM   24  H   UNL     1      29.267  41.462  51.773  1.00  0.00     0.174 HD
ENDBRANCH   2  22
BRANCH   3  25
HETATM   25  C   UNL     1      27.238  43.287  54.029  1.00  0.00     0.186 C 
BRANCH  25  26
HETATM   26  C   UNL     1      28.481  43.816  54.700  1.00  0.00    -0.039 A 
HETATM   27  C   UNL     1      28.573  45.089  55.284  1.00  0.00     0.009 A 
HETATM   28  C   UNL     1      29.756  45.507  55.900  1.00  0.00     0.001 A 
HETATM   29  C   UNL     1      30.858  44.658  55.950  1.00  0.00     0.000 A 
HETATM   30  C   UNL     1      30.782  43.389  55.386  1.00  0.00     0.001 A 
HETATM   31  C   UNL     1      29.603  42.971  54.765  1.00  0.00     0.009 A 
ENDBRANCH  25  26
ENDBRANCH   3  25
TORSDOF 8
ENDMDL
MODEL 9
REMARK VINA RESULT:      -8.3      7.388     10.481
REMARK  8 active torsions:
REMARK  status: ('A' for Active; 'I' for Inactive)
REMARK    1  A    between atoms: O_2  and  C_3 
REMARK    2  A    between atoms: C_6  and  C_7 
REMARK    3  A    between atoms: C_7  and  O_8 
REMARK    4  A    between atoms: C_7  and  C_9 
REMARK    5  A    between atoms: C_9  and  N_10 
REMARK    6  A    between atoms: C_11  and  N_12 
REMARK    7  A    between atoms: N_13  and  C_14 
REMARK    8  A    between atoms: C_14  and  C_15 
ROOT
HETATM    1  N   UNL     1      27.067  41.739  51.189  1.00  0.00    -0.178 N 
HETATM    2  C   UNL     1      27.390  41.739  52.477  1.00  0.00     0.681 C 
HETATM    3  N   UNL     1      27.145  42.934  52.995  1.00  0.00    -0.177 N 
HETATM    4  C   UNL     1      26.878  43.823  51.955  1.00  0.00     0.079 A 
HETATM    5  C   UNL     1      26.828  43.051  50.789  1.00  0.00     0.079 A 
HETATM    6  C   UNL     1      26.672  45.199  51.945  1.00  0.00     0.032 A 
HETATM    7  C   UNL     1      26.414  45.773  50.693  1.00  0.00     0.002 A 
HETATM    8  C   UNL     1      26.359  44.996  49.519  1.00  0.00     0.002 A 
HETATM    9  C   UNL     1      26.561  43.610  49.542  1.00  0.00     0.032 A 
ENDROOT
BRANCH   1  10
HETATM   10  C   UNL     1      26.921  40.535  50.354  1.00  0.00     0.184 C 
BRANCH  10  11
HETATM   11  C   UNL     1      28.270  39.977  49.849  1.00  0.00     0.170 C 
BRANCH  11  12
HETATM   12  C   UNL     1      28.228  39.747  48.355  1.00  0.00    -0.028 A 
HETATM   13  C   UNL     1      28.245  38.455  47.808  1.00  0.00     0.012 A 
HETATM   14  C   UNL     1      28.150  38.258  46.425  1.00  0.00     0.037 A 
HETATM   15  C   UNL     1      28.019  39.349  45.569  1.00  0.00     0.068 A 
HETATM   16  C   UNL     1      28.000  40.636  46.107  1.00  0.00     0.037 A 
HETATM   17  C   UNL     1      28.104  40.839  47.485  1.00  0.00     0.012 A 
BRANCH  15  18
HETATM   18  O   UNL     1      27.899  39.297  44.210  1.00  0.00    -0.356 OA
HETATM   19  C   UNL     1      29.100  39.334  43.449  1.00  0.00     0.210 C 
ENDBRANCH  15  18
ENDBRANCH  11  12
BRANCH  11  20
HETATM   20  O   UNL     1      28.576  38.744  50.533  1.00  0.00    -0.389 OA
HETATM   21  H   UNL     1      27.802  38.164  50.375  1.00  0.00     0.210 HD
ENDBRANCH  11  20
ENDBRANCH  10  11
ENDBRANCH   1  10
BRANCH   2  22
HETATM   22  N   UNL     1      27.893  40.701  53.138  1.00  0.00    -0.234 N 
HETATM   23  H   UNL     1      27.404  40.391  53.980  1.00  0.00     0.174 HD
HETATM   24  H   UNL     1      28.532  40.055  52.700  1.00  0.00     0.174 HD
ENDBRANCH   2  22
BRANCH   3  25
HETATM   25  C   UNL     1      27.085  43.246  54.414  1.00  0.00     0.186 C 
BRANCH  25  26
HETATM   26  C   UNL     1      28.356  43.875  54.929  1.00  0.00    -0.039 A 
HETATM   27  C   UNL     1      29.594  43.216  54.970  1.00  0.00     0.009 A 
HETATM   28  C   UNL     1      30.733  43.868  55.450  1.00  0.00     0.001 A 
HETATM   29  C   UNL     1      30.654  45.187  55.887  1.00  0.00     0.000 A 
HETATM   30  C   UNL     1      29.437  45.860  55.845  1.00  0.00     0.001 A 
HETATM   31  C   UNL     1      28.297  45.209  55.371  1.00  0.00     0.009 A 
ENDBRANCH  25  26
ENDBRANCH   3  25
TORSDOF 8
ENDMDL
MODEL 10
REMARK VINA RESULT:      -8.2      5.221      9.418
REMARK  8 active torsions:
REMARK  status: ('A' for Active; 'I' for Inactive)
REMARK    1  A    between atoms: O_2  and  C_3 
REMARK    2  A    between atoms: C_6  and  C_7 
REMARK    3  A    between atoms: C_7  and  O_8 
REMARK    4  A    between atoms: C_7  and  C_9 
REMARK    5  A    between atoms: C_9  and  N_10 
REMARK    6  A    between atoms: C_11  and  N_12 
REMARK    7  A    between atoms: N_13  and  C_14 
REMARK    8  A    between atoms: C_14  and  C_15 
ROOT
HETATM    1  N   UNL     1      26.195  43.515  49.814  1.00  0.00    -0.178 N 
HETATM    2  C   UNL     1      26.434  44.757  50.216  1.00  0.00     0.681 C 
HETATM    3  N   UNL     1      25.326  45.477  50.114  1.00  0.00    -0.177 N 
HETATM    4  C   UNL     1      24.386  44.746  49.391  1.00  0.00     0.079 A 
HETATM    5  C   UNL     1      24.947  43.478  49.198  1.00  0.00     0.079 A 
HETATM    6  C   UNL     1      23.122  45.079  48.914  1.00  0.00     0.032 A 
HETATM    7  C   UNL     1      22.440  44.070  48.222  1.00  0.00     0.002 A 
HETATM    8  C   UNL     1      23.002  42.793  48.030  1.00  0.00     0.002 A 
HETATM    9  C   UNL     1      24.273  42.466  48.520  1.00  0.00     0.032 A 
ENDROOT
BRANCH   1  10
HETATM   10  C   UNL     1      27.081  42.364  50.052  1.00  0.00     0.184 C 
BRANCH  10  11
HETATM   11  C   UNL     1      26.857  41.698  51.428  1.00  0.00     0.170 C 
BRANCH  11  12
HETATM   12  C   UNL     1      27.787  42.288  52.465  1.00  0.00    -0.028 A 
HETATM   13  C   UNL     1      29.180  42.146  52.372  1.00  0.00     0.012 A 
HETATM   14  C   UNL     1      30.028  42.745  53.310  1.00  0.00     0.037 A 
HETATM   15  C   UNL     1      29.498  43.508  54.348  1.00  0.00     0.068 A 
HETATM   16  C   UNL     1      28.114  43.654  54.446  1.00  0.00     0.037 A 
HETATM   17  C   UNL     1      27.262  43.051  53.517  1.00  0.00     0.012 A 
BRANCH  15  18
HETATM   18  O   UNL     1      30.210  44.159  55.315  1.00  0.00    -0.356 OA
HETATM   19  C   UNL     1      29.651  45.359  55.837  1.00  0.00     0.210 C 
ENDBRANCH  15  18
ENDBRANCH  11  12
BRANCH  11  20
HETATM   20  O   UNL     1      27.071  40.275  51.322  1.00  0.00    -0.389 OA
HETATM   21  H   UNL     1      26.295  39.934  50.829  1.00  0.00     0.210 HD
ENDBRANCH  11  20
ENDBRANCH  10  11
ENDBRANCH   1  10
BRANCH   2  22
HETATM   22  N   UNL     1      27.610  45.208  50.644  1.00  0.00    -0.234 N 
HETATM   23  H   UNL     1      28.306  45.463  49.942  1.00  0.00     0.174 HD
HETATM   24  H   UNL     1      27.728  45.571  51.578  1.00  0.00     0.174 HD
ENDBRANCH   2  22
BRANCH   3  25
HETATM   25  C   UNL     1      25.101  46.779  50.723  1.00  0.00     0.186 C 
BRANCH  25  26
HETATM   26  C   UNL     1      25.446  47.923  49.803  1.00  0.00    -0.039 A 
HETATM   27  C   UNL     1      26.757  48.346  49.538  1.00  0.00     0.009 A 
HETATM   28  C   UNL     1      27.001  49.408  48.663  1.00  0.00     0.001 A 
HETATM   29  C   UNL     1      25.941  50.056  48.034  1.00  0.00     0.000 A 
HETATM   30  C   UNL     1      24.635  49.643  48.277  1.00  0.00     0.001 A 
HETATM   31  C   UNL     1      24.388  48.586  49.155  1.00  0.00     0.009 A 
ENDBRANCH  25  26
ENDBRANCH   3  25
TORSDOF 8
ENDMDL
