MODEL 1
REMARK VINA RESULT:      -9.4      0.000      0.000
REMARK  3 active torsions:
REMARK  status: ('A' for Active; 'I' for Inactive)
REMARK    1  A    between atoms: C_13  and  C_14 
REMARK    2  A    between atoms: C_14  and  N_15 
REMARK       I    between atoms: N_15  and  C_16 
REMARK    3  A    between atoms: C_16  and  C_17 
ROOT
HETATM    1  C   UNL     1      29.256  42.704  53.497  1.00  0.00     0.002 A 
HETATM    2  C   UNL     1      30.082  43.027  54.588  1.00  0.00     0.018 A 
HETATM    3  C   UNL     1      29.801  44.218  55.251  1.00  0.00     0.045 A 
HETATM    4  C   UNL     1      28.752  45.014  54.817  1.00  0.00     0.017 A 
HETATM    5  C   UNL     1      27.924  44.755  53.764  1.00  0.00    -0.015 A 
HETATM    6  C   UNL     1      28.197  43.544  53.085  1.00  0.00     0.013 A 
HETATM    7  C   UNL     1      28.679  46.120  55.632  1.00  0.00     0.047 A 
HETATM    8  N   UNL     1      29.691  46.009  56.568  1.00  0.00    -0.322 N 
HETATM    9  C   UNL     1      30.443  44.838  56.394  1.00  0.00     0.257 A 
HETATM   10  O   UNL     1      31.391  44.509  57.091  1.00  0.00    -0.267 OA
HETATM   11  C   UNL     1      27.720  47.094  55.447  1.00  0.00     0.031 A 
HETATM   12  C   UNL     1      26.837  46.880  54.370  1.00  0.00     0.012 A 
HETATM   13  C   UNL     1      26.926  45.742  53.516  1.00  0.00    -0.029 A 
HETATM   14  H   UNL     1      29.891  46.671  57.302  1.00  0.00     0.169 HD
ENDROOT
BRANCH  13  15
HETATM   15  C   UNL     1      25.935  45.609  52.387  1.00  0.00     0.162 C 
BRANCH  15  16
HETATM   16  N   UNL     1      25.964  46.762  51.523  1.00  0.00    -0.351 N 
HETATM   17  C   UNL     1      26.491  46.726  50.252  1.00  0.00     0.275 C 
HETATM   18  O   UNL     1      26.932  45.698  49.746  1.00  0.00    -0.265 OA
HETATM   19  H   UNL     1      25.716  47.671  51.895  1.00  0.00     0.163 HD
BRANCH  17  20
HETATM   20  C   UNL     1      26.468  48.005  49.574  1.00  0.00     0.142 A 
HETATM   21  O   UNL     1      25.264  48.593  49.276  1.00  0.00    -0.317 OA
HETATM   22  C   UNL     1      25.536  49.761  48.637  1.00  0.00     0.143 A 
HETATM   23  C   UNL     1      26.894  49.942  48.519  1.00  0.00     0.027 A 
HETATM   24  C   UNL     1      27.496  48.813  49.123  1.00  0.00     0.045 A 
ENDBRANCH  17  20
ENDBRANCH  15  16
ENDBRANCH  13  15
TORSDOF 3
ENDMDL
MODEL 2
REMARK VINA RESULT:      -9.1      1.333      2.521
REMARK  3 active torsions:
REMARK  status: ('A' for Active; 'I' for Inactive)
REMARK    1  A    between atoms: C_13  and  C_14 
REMARK    2  A    between atoms: C_14  and  N_15 
REMARK       I    between atoms: N_15  and  C_16 
REMARK    3  A    between atoms: C_16  and  C_17 
ROOT
HETATM    1  C   UNL     1      27.965  46.524  55.807  1.00  0.00     0.002 A 
HETATM    2  C   UNL     1      29.148  45.942  56.295  1.00  0.00     0.018 A 
HETATM    3  C   UNL     1      29.656  44.865  55.574  1.00  0.00     0.045 A 
HETATM    4  C   UNL     1      28.991  44.424  54.441  1.00  0.00     0.017 A 
HETATM    5  C   UNL     1      27.839  44.944  53.926  1.00  0.00    -0.015 A 
HETATM    6  C   UNL     1      27.316  46.043  54.649  1.00  0.00     0.013 A 
HETATM    7  C   UNL     1      29.689  43.363  53.911  1.00  0.00     0.047 A 
HETATM    8  N   UNL     1      30.786  43.146  54.724  1.00  0.00    -0.322 N 
HETATM    9  C   UNL     1      30.836  44.051  55.795  1.00  0.00     0.257 A 
HETATM   10  O   UNL     1      31.705  44.068  56.654  1.00  0.00    -0.267 OA
HETATM   11  C   UNL     1      29.269  42.718  52.767  1.00  0.00     0.031 A 
HETATM   12  C   UNL     1      28.081  43.213  52.192  1.00  0.00     0.012 A 
HETATM   13  C   UNL     1      27.349  44.300  52.753  1.00  0.00    -0.029 A 
HETATM   14  H   UNL     1      31.486  42.433  54.592  1.00  0.00     0.169 HD
ENDROOT
BRANCH  13  15
HETATM   15  C   UNL     1      26.086  44.751  52.063  1.00  0.00     0.162 C 
BRANCH  15  16
HETATM   16  N   UNL     1      26.345  45.826  51.140  1.00  0.00    -0.351 N 
HETATM   17  C   UNL     1      25.820  47.088  51.302  1.00  0.00     0.275 C 
HETATM   18  O   UNL     1      25.130  47.400  52.268  1.00  0.00    -0.265 OA
HETATM   19  H   UNL     1      26.817  45.631  50.264  1.00  0.00     0.163 HD
BRANCH  17  20
HETATM   20  C   UNL     1      26.162  48.005  50.234  1.00  0.00     0.142 A 
HETATM   21  O   UNL     1      25.165  48.682  49.576  1.00  0.00    -0.317 OA
HETATM   22  C   UNL     1      25.762  49.450  48.627  1.00  0.00     0.143 A 
HETATM   23  C   UNL     1      27.126  49.285  48.660  1.00  0.00     0.027 A 
HETATM   24  C   UNL     1      27.386  48.356  49.695  1.00  0.00     0.045 A 
ENDBRANCH  17  20
ENDBRANCH  15  16
ENDBRANCH  13  15
TORSDOF 3
ENDMDL
MODEL 3
REMARK VINA RESULT:      -8.9      3.794      6.141
REMARK  3 active torsions:
REMARK  status: ('A' for Active; 'I' for Inactive)
REMARK    1  A    between atoms: C_13  and  C_14 
REMARK    2  A    between atoms: C_14  and  N_15 
REMARK       I    between atoms: N_15  and  C_16 
REMARK    3  A    between atoms: C_16  and  C_17 
ROOT
HETATM    1  C   UNL     1      27.173  46.535  54.823  1.00  0.00     0.002 A 
HETATM    2  C   UNL     1      28.014  46.735  55.932  1.00  0.00     0.018 A 
HETATM    3  C   UNL     1      29.059  45.831  56.093  1.00  0.00     0.045 A 
HETATM    4  C   UNL     1      29.220  44.799  55.181  1.00  0.00     0.017 A 
HETATM    5  C   UNL     1      28.433  44.552  54.094  1.00  0.00    -0.015 A 
HETATM    6  C   UNL     1      27.370  45.469  53.917  1.00  0.00     0.013 A 
HETATM    7  C   UNL     1      30.315  44.055  55.554  1.00  0.00     0.047 A 
HETATM    8  N   UNL     1      30.829  44.627  56.704  1.00  0.00    -0.322 N 
HETATM    9  C   UNL     1      30.092  45.750  57.107  1.00  0.00     0.257 A 
HETATM   10  O   UNL     1      30.342  46.430  58.091  1.00  0.00    -0.267 OA
HETATM   11  C   UNL     1      30.728  42.958  54.826  1.00  0.00     0.031 A 
HETATM   12  C   UNL     1      29.950  42.655  53.691  1.00  0.00     0.012 A 
HETATM   13  C   UNL     1      28.805  43.417  53.316  1.00  0.00    -0.029 A 
HETATM   14  H   UNL     1      31.635  44.301  57.215  1.00  0.00     0.169 HD
ENDROOT
BRANCH  13  15
HETATM   15  C   UNL     1      28.036  43.005  52.086  1.00  0.00     0.162 C 
BRANCH  15  16
HETATM   16  N   UNL     1      28.613  41.836  51.472  1.00  0.00    -0.351 N 
HETATM   17  C   UNL     1      27.850  40.794  50.996  1.00  0.00     0.275 C 
HETATM   18  O   UNL     1      26.622  40.806  51.019  1.00  0.00    -0.265 OA
HETATM   19  H   UNL     1      29.616  41.697  51.505  1.00  0.00     0.163 HD
BRANCH  17  20
HETATM   20  C   UNL     1      28.629  39.695  50.465  1.00  0.00     0.142 A 
HETATM   21  O   UNL     1      29.392  38.932  51.313  1.00  0.00    -0.317 OA
HETATM   22  C   UNL     1      30.020  37.995  50.555  1.00  0.00     0.143 A 
HETATM   23  C   UNL     1      29.674  38.135  49.231  1.00  0.00     0.027 A 
HETATM   24  C   UNL     1      28.778  39.228  49.171  1.00  0.00     0.045 A 
ENDBRANCH  17  20
ENDBRANCH  15  16
ENDBRANCH  13  15
TORSDOF 3
ENDMDL
MODEL 4
REMARK VINA RESULT:      -8.2      1.435      2.812
REMARK  3 active torsions:
REMARK  status: ('A' for Active; 'I' for Inactive)
REMARK    1  A    between atoms: C_13  and  C_14 
REMARK    2  A    between atoms: C_14  and  N_15 
REMARK       I    between atoms: N_15  and  C_16 
REMARK    3  A    between atoms: C_16  and  C_17 
ROOT
HETATM    1  C   UNL     1      27.176  46.710  55.139  1.00  0.00     0.002 A 
HETATM    2  C   UNL     1      28.125  46.722  56.176  1.00  0.00     0.018 A 
HETATM    3  C   UNL     1      29.122  45.753  56.120  1.00  0.00     0.045 A 
HETATM    4  C   UNL     1      29.133  44.841  55.076  1.00  0.00     0.017 A 
HETATM    5  C   UNL     1      28.237  44.777  54.049  1.00  0.00    -0.015 A 
HETATM    6  C   UNL     1      27.221  45.762  54.093  1.00  0.00     0.013 A 
HETATM    7  C   UNL     1      30.209  44.000  55.244  1.00  0.00     0.047 A 
HETATM    8  N   UNL     1      30.861  44.392  56.399  1.00  0.00    -0.322 N 
HETATM    9  C   UNL     1      30.236  45.489  57.009  1.00  0.00     0.257 A 
HETATM   10  O   UNL     1      30.616  46.023  58.041  1.00  0.00    -0.267 OA
HETATM   11  C   UNL     1      30.485  42.988  54.348  1.00  0.00     0.031 A 
HETATM   12  C   UNL     1      29.589  42.874  53.267  1.00  0.00     0.012 A 
HETATM   13  C   UNL     1      28.464  43.735  53.104  1.00  0.00    -0.029 A 
HETATM   14  H   UNL     1      31.688  43.963  56.784  1.00  0.00     0.169 HD
ENDROOT
BRANCH  13  15
HETATM   15  C   UNL     1      27.562  43.525  51.914  1.00  0.00     0.162 C 
BRANCH  15  16
HETATM   16  N   UNL     1      27.070  44.779  51.399  1.00  0.00    -0.351 N 
HETATM   17  C   UNL     1      25.920  44.874  50.649  1.00  0.00     0.275 C 
HETATM   18  O   UNL     1      25.207  43.906  50.403  1.00  0.00    -0.265 OA
HETATM   19  H   UNL     1      27.648  45.608  51.467  1.00  0.00     0.163 HD
BRANCH  17  20
HETATM   20  C   UNL     1      25.633  46.217  50.188  1.00  0.00     0.142 A 
HETATM   21  O   UNL     1      24.330  46.636  50.088  1.00  0.00    -0.317 OA
HETATM   22  C   UNL     1      24.354  47.913  49.624  1.00  0.00     0.143 A 
HETATM   23  C   UNL     1      25.649  48.330  49.425  1.00  0.00     0.027 A 
HETATM   24  C   UNL     1      26.475  47.239  49.789  1.00  0.00     0.045 A 
ENDBRANCH  17  20
ENDBRANCH  15  16
ENDBRANCH  13  15
TORSDOF 3
ENDMDL
MODEL 5
REMARK VINA RESULT:      -8.0      3.158      3.663
REMARK  3 active torsions:
REMARK  status: ('A' for Active; 'I' for Inactive)
REMARK    1  A    between atoms: C_13  and  C_14 
REMARK    2  A    between atoms: C_14  and  N_15 
REMARK       I    between atoms: N_15  and  C_16 
REMARK    3  A    between atoms: C_16  and  C_17 
ROOT
HETATM    1  C   UNL     1      30.782  43.009  54.808  1.00  0.00     0.002 A 
HETATM    2  C   UNL     1      30.759  43.916  55.883  1.00  0.00     0.018 A 
HETATM    3  C   UNL     1      29.734  44.857  55.882  1.00  0.00     0.045 A 
HETATM    4  C   UNL     1      28.807  44.861  54.851  1.00  0.00     0.017 A 
HETATM    5  C   UNL     1      28.784  44.012  53.783  1.00  0.00    -0.015 A 
HETATM    6  C   UNL     1      29.820  43.048  53.775  1.00  0.00     0.013 A 
HETATM    7  C   UNL     1      27.903  45.871  55.082  1.00  0.00     0.047 A 
HETATM    8  N   UNL     1      28.276  46.497  56.258  1.00  0.00    -0.322 N 
HETATM    9  C   UNL     1      29.421  45.916  56.822  1.00  0.00     0.257 A 
HETATM   10  O   UNL     1      29.951  46.285  57.860  1.00  0.00    -0.267 OA
HETATM   11  C   UNL     1      26.852  46.115  54.222  1.00  0.00     0.031 A 
HETATM   12  C   UNL     1      26.779  45.268  53.098  1.00  0.00     0.012 A 
HETATM   13  C   UNL     1      27.728  44.233  52.851  1.00  0.00    -0.029 A 
HETATM   14  H   UNL     1      27.804  47.278  56.686  1.00  0.00     0.169 HD
ENDROOT
BRANCH  13  15
HETATM   15  C   UNL     1      27.565  43.385  51.615  1.00  0.00     0.162 C 
BRANCH  15  16
HETATM   16  N   UNL     1      26.323  43.671  50.941  1.00  0.00    -0.351 N 
HETATM   17  C   UNL     1      25.469  42.683  50.505  1.00  0.00     0.275 C 
HETATM   18  O   UNL     1      25.682  41.489  50.699  1.00  0.00    -0.265 OA
HETATM   19  H   UNL     1      26.119  44.620  50.650  1.00  0.00     0.163 HD
BRANCH  17  20
HETATM   20  C   UNL     1      24.303  43.185  49.807  1.00  0.00     0.142 A 
HETATM   21  O   UNL     1      24.234  43.080  48.441  1.00  0.00    -0.317 OA
HETATM   22  C   UNL     1      23.055  43.636  48.056  1.00  0.00     0.143 A 
HETATM   23  C   UNL     1      22.358  44.095  49.149  1.00  0.00     0.027 A 
HETATM   24  C   UNL     1      23.160  43.804  50.278  1.00  0.00     0.045 A 
ENDBRANCH  17  20
ENDBRANCH  15  16
ENDBRANCH  13  15
TORSDOF 3
ENDMDL
MODEL 6
REMARK VINA RESULT:      -7.9      5.256      8.196
REMARK  3 active torsions:
REMARK  status: ('A' for Active; 'I' for Inactive)
REMARK    1  A    between atoms: C_13  and  C_14 
REMARK    2  A    between atoms: C_14  and  N_15 
REMARK       I    between atoms: N_15  and  C_16 
REMARK    3  A    between atoms: C_16  and  C_17 
ROOT
HETATM    1  C   UNL     1      25.054  46.391  50.420  1.00  0.00     0.002 A 
HETATM    2  C   UNL     1      26.290  47.015  50.171  1.00  0.00     0.018 A 
HETATM    3  C   UNL     1      26.254  48.200  49.443  1.00  0.00     0.045 A 
HETATM    4  C   UNL     1      25.038  48.699  49.004  1.00  0.00     0.017 A 
HETATM    5  C   UNL     1      23.812  48.135  49.209  1.00  0.00    -0.015 A 
HETATM    6  C   UNL     1      23.836  46.931  49.953  1.00  0.00     0.013 A 
HETATM    7  C   UNL     1      25.269  49.870  48.320  1.00  0.00     0.047 A 
HETATM    8  N   UNL     1      26.633  50.092  48.333  1.00  0.00    -0.322 N 
HETATM    9  C   UNL     1      27.324  49.083  49.020  1.00  0.00     0.257 A 
HETATM   10  O   UNL     1      28.536  49.047  49.173  1.00  0.00    -0.267 OA
HETATM   11  C   UNL     1      24.238  50.603  47.770  1.00  0.00     0.031 A 
HETATM   12  C   UNL     1      22.948  50.066  47.949  1.00  0.00     0.012 A 
HETATM   13  C   UNL     1      22.712  48.842  48.642  1.00  0.00    -0.029 A 
HETATM   14  H   UNL     1      27.108  50.874  47.910  1.00  0.00     0.169 HD
ENDROOT
BRANCH  13  15
HETATM   15  C   UNL     1      21.293  48.350  48.774  1.00  0.00     0.162 C 
BRANCH  15  16
HETATM   16  N   UNL     1      20.369  49.445  48.931  1.00  0.00    -0.351 N 
HETATM   17  C   UNL     1      19.241  49.359  49.716  1.00  0.00     0.275 C 
HETATM   18  O   UNL     1      18.965  48.359  50.374  1.00  0.00    -0.265 OA
HETATM   19  H   UNL     1      20.464  50.267  48.347  1.00  0.00     0.163 HD
BRANCH  17  20
HETATM   20  C   UNL     1      18.422  50.554  49.695  1.00  0.00     0.142 A 
HETATM   21  O   UNL     1      17.081  50.451  49.420  1.00  0.00    -0.317 OA
HETATM   22  C   UNL     1      16.569  51.710  49.451  1.00  0.00     0.143 A 
HETATM   23  C   UNL     1      17.553  52.624  49.745  1.00  0.00     0.027 A 
HETATM   24  C   UNL     1      18.747  51.881  49.903  1.00  0.00     0.045 A 
ENDBRANCH  17  20
ENDBRANCH  15  16
ENDBRANCH  13  15
TORSDOF 3
ENDMDL
MODEL 7
REMARK VINA RESULT:      -7.9      4.102      5.687
REMARK  3 active torsions:
REMARK  status: ('A' for Active; 'I' for Inactive)
REMARK    1  A    between atoms: C_13  and  C_14 
REMARK    2  A    between atoms: C_14  and  N_15 
REMARK       I    between atoms: N_15  and  C_16 
REMARK    3  A    between atoms: C_16  and  C_17 
ROOT
HETATM    1  C   UNL     1      30.514  43.394  55.206  1.00  0.00     0.002 A 
HETATM    2  C   UNL     1      29.944  44.644  55.506  1.00  0.00     0.018 A 
HETATM    3  C   UNL     1      28.811  45.001  54.783  1.00  0.00     0.045 A 
HETATM    4  C   UNL     1      28.307  44.137  53.824  1.00  0.00     0.017 A 
HETATM    5  C   UNL     1      28.821  42.918  53.486  1.00  0.00    -0.015 A 
HETATM    6  C   UNL     1      29.971  42.541  54.218  1.00  0.00     0.013 A 
HETATM    7  C   UNL     1      27.192  44.712  53.260  1.00  0.00     0.047 A 
HETATM    8  N   UNL     1      27.010  45.940  53.871  1.00  0.00    -0.322 N 
HETATM    9  C   UNL     1      27.989  46.195  54.841  1.00  0.00     0.257 A 
HETATM   10  O   UNL     1      28.050  47.210  55.521  1.00  0.00    -0.267 OA
HETATM   11  C   UNL     1      26.468  44.076  52.273  1.00  0.00     0.031 A 
HETATM   12  C   UNL     1      26.955  42.813  51.882  1.00  0.00     0.012 A 
HETATM   13  C   UNL     1      28.121  42.226  52.455  1.00  0.00    -0.029 A 
HETATM   14  H   UNL     1      26.272  46.596  53.667  1.00  0.00     0.169 HD
ENDROOT
BRANCH  13  15
HETATM   15  C   UNL     1      28.562  40.870  51.963  1.00  0.00     0.162 C 
BRANCH  15  16
HETATM   16  N   UNL     1      28.548  40.803  50.523  1.00  0.00    -0.351 N 
HETATM   17  C   UNL     1      27.554  40.162  49.818  1.00  0.00     0.275 C 
HETATM   18  O   UNL     1      26.585  39.641  50.363  1.00  0.00    -0.265 OA
HETATM   19  H   UNL     1      29.358  41.116  50.000  1.00  0.00     0.163 HD
BRANCH  17  20
HETATM   20  C   UNL     1      27.758  40.168  48.384  1.00  0.00     0.142 A 
HETATM   21  O   UNL     1      28.005  41.354  47.739  1.00  0.00    -0.317 OA
HETATM   22  C   UNL     1      28.141  41.070  46.418  1.00  0.00     0.143 A 
HETATM   23  C   UNL     1      27.991  39.722  46.195  1.00  0.00     0.027 A 
HETATM   24  C   UNL     1      27.745  39.139  47.461  1.00  0.00     0.045 A 
ENDBRANCH  17  20
ENDBRANCH  15  16
ENDBRANCH  13  15
TORSDOF 3
ENDMDL
MODEL 8
REMARK VINA RESULT:      -7.8      2.985      6.776
REMARK  3 active torsions:
REMARK  status: ('A' for Active; 'I' for Inactive)
REMARK    1  A    between atoms: C_13  and  C_14 
REMARK    2  A    between atoms: C_14  and  N_15 
REMARK       I    between atoms: N_15  and  C_16 
REMARK    3  A    between atoms: C_16  and  C_17 
ROOT
HETATM    1  C   UNL     1      28.174  41.349  53.022  1.00  0.00     0.002 A 
HETATM    2  C   UNL     1      28.040  41.041  51.656  1.00  0.00     0.018 A 
HETATM    3  C   UNL     1      27.491  42.029  50.845  1.00  0.00     0.045 A 
HETATM    4  C   UNL     1      27.108  43.239  51.402  1.00  0.00     0.017 A 
HETATM    5  C   UNL     1      27.208  43.591  52.717  1.00  0.00    -0.015 A 
HETATM    6  C   UNL     1      27.770  42.595  53.551  1.00  0.00     0.013 A 
HETATM    7  C   UNL     1      26.606  44.039  50.402  1.00  0.00     0.047 A 
HETATM    8  N   UNL     1      26.674  43.318  49.225  1.00  0.00    -0.322 N 
HETATM    9  C   UNL     1      27.219  42.041  49.421  1.00  0.00     0.257 A 
HETATM   10  O   UNL     1      27.386  41.211  48.539  1.00  0.00    -0.267 OA
HETATM   11  C   UNL     1      26.150  45.316  50.656  1.00  0.00     0.031 A 
HETATM   12  C   UNL     1      26.227  45.733  52.000  1.00  0.00     0.012 A 
HETATM   13  C   UNL     1      26.731  44.895  53.038  1.00  0.00    -0.029 A 
HETATM   14  H   UNL     1      26.377  43.641  48.317  1.00  0.00     0.169 HD
ENDROOT
BRANCH  13  15
HETATM   15  C   UNL     1      26.766  45.434  54.446  1.00  0.00     0.162 C 
BRANCH  15  16
HETATM   16  N   UNL     1      27.877  44.893  55.188  1.00  0.00    -0.351 N 
HETATM   17  C   UNL     1      29.008  45.625  55.472  1.00  0.00     0.275 C 
HETATM   18  O   UNL     1      29.133  46.804  55.153  1.00  0.00    -0.265 OA
HETATM   19  H   UNL     1      27.902  43.903  55.401  1.00  0.00     0.163 HD
BRANCH  17  20
HETATM   20  C   UNL     1      30.024  44.877  56.183  1.00  0.00     0.142 A 
HETATM   21  O   UNL     1      30.394  45.267  57.446  1.00  0.00    -0.317 OA
HETATM   22  C   UNL     1      31.361  44.409  57.863  1.00  0.00     0.143 A 
HETATM   23  C   UNL     1      31.622  43.468  56.895  1.00  0.00     0.027 A 
HETATM   24  C   UNL     1      30.761  43.767  55.813  1.00  0.00     0.045 A 
ENDBRANCH  17  20
ENDBRANCH  15  16
ENDBRANCH  13  15
TORSDOF 3
ENDMDL
MODEL 9
REMARK VINA RESULT:      -7.8      2.750      3.940
REMARK  3 active torsions:
REMARK  status: ('A' for Active; 'I' for Inactive)
REMARK    1  A    between atoms: C_13  and  C_14 
REMARK    2  A    between atoms: C_14  and  N_15 
REMARK       I    between atoms: N_15  and  C_16 
REMARK    3  A    between atoms: C_16  and  C_17 
ROOT
HETATM    1  C   UNL     1      29.980  42.738  54.033  1.00  0.00     0.002 A 
HETATM    2  C   UNL     1      30.603  43.153  55.223  1.00  0.00     0.018 A 
HETATM    3  C   UNL     1      30.104  44.308  55.817  1.00  0.00     0.045 A 
HETATM    4  C   UNL     1      29.046  44.981  55.226  1.00  0.00     0.017 A 
HETATM    5  C   UNL     1      28.409  44.630  54.072  1.00  0.00    -0.015 A 
HETATM    6  C   UNL     1      28.906  43.454  53.461  1.00  0.00     0.013 A 
HETATM    7  C   UNL     1      28.738  46.075  56.002  1.00  0.00     0.047 A 
HETATM    8  N   UNL     1      29.612  46.079  57.073  1.00  0.00    -0.322 N 
HETATM    9  C   UNL     1      30.505  44.999  57.028  1.00  0.00     0.257 A 
HETATM   10  O   UNL     1      31.375  44.778  57.857  1.00  0.00    -0.267 OA
HETATM   11  C   UNL     1      27.714  46.937  55.666  1.00  0.00     0.031 A 
HETATM   12  C   UNL     1      27.021  46.623  54.480  1.00  0.00     0.012 A 
HETATM   13  C   UNL     1      27.354  45.499  53.668  1.00  0.00    -0.029 A 
HETATM   14  H   UNL     1      29.633  46.762  57.815  1.00  0.00     0.169 HD
ENDROOT
BRANCH  13  15
HETATM   15  C   UNL     1      26.554  45.254  52.413  1.00  0.00     0.162 C 
BRANCH  15  16
HETATM   16  N   UNL     1      27.089  44.151  51.655  1.00  0.00    -0.351 N 
HETATM   17  C   UNL     1      26.332  43.425  50.763  1.00  0.00     0.275 C 
HETATM   18  O   UNL     1      25.159  43.694  50.516  1.00  0.00    -0.265 OA
HETATM   19  H   UNL     1      28.013  43.797  51.872  1.00  0.00     0.163 HD
BRANCH  17  20
HETATM   20  C   UNL     1      27.048  42.328  50.147  1.00  0.00     0.142 A 
HETATM   21  O   UNL     1      27.146  42.265  48.779  1.00  0.00    -0.317 OA
HETATM   22  C   UNL     1      27.848  41.141  48.479  1.00  0.00     0.143 A 
HETATM   23  C   UNL     1      28.209  40.477  49.627  1.00  0.00     0.027 A 
HETATM   24  C   UNL     1      27.696  41.240  50.703  1.00  0.00     0.045 A 
ENDBRANCH  17  20
ENDBRANCH  15  16
ENDBRANCH  13  15
TORSDOF 3
ENDMDL
MODEL 10
REMARK VINA RESULT:      -7.8      3.759      7.403
REMARK  3 active torsions:
REMARK  status: ('A' for Active; 'I' for Inactive)
REMARK    1  A    between atoms: C_13  and  C_14 
REMARK    2  A    between atoms: C_14  and  N_15 
REMARK       I    between atoms: N_15  and  C_16 
REMARK    3  A    between atoms: C_16  and  C_17 
ROOT
HETATM    1  C   UNL     1      24.888  42.924  50.478  1.00  0.00     0.002 A 
HETATM    2  C   UNL     1      25.161  41.671  49.900  1.00  0.00     0.018 A 
HETATM    3  C   UNL     1      26.304  41.015  50.346  1.00  0.00     0.045 A 
HETATM    4  C   UNL     1      27.104  41.609  51.310  1.00  0.00     0.017 A 
HETATM    5  C   UNL     1      26.893  42.821  51.899  1.00  0.00    -0.015 A 
HETATM    6  C   UNL     1      25.730  43.496  51.457  1.00  0.00     0.013 A 
HETATM    7  C   UNL     1      28.157  40.766  51.581  1.00  0.00     0.047 A 
HETATM    8  N   UNL     1      28.010  39.651  50.776  1.00  0.00    -0.322 N 
HETATM    9  C   UNL     1      26.867  39.733  49.968  1.00  0.00     0.257 A 
HETATM   10  O   UNL     1      26.514  38.877  49.170  1.00  0.00    -0.267 OA
HETATM   11  C   UNL     1      29.122  41.088  52.513  1.00  0.00     0.031 A 
HETATM   12  C   UNL     1      28.956  42.333  53.153  1.00  0.00     0.012 A 
HETATM   13  C   UNL     1      27.873  43.213  52.858  1.00  0.00    -0.029 A 
HETATM   14  H   UNL     1      28.630  38.857  50.749  1.00  0.00     0.169 HD
ENDROOT
BRANCH  13  15
HETATM   15  C   UNL     1      27.789  44.525  53.595  1.00  0.00     0.162 C 
BRANCH  15  16
HETATM   16  N   UNL     1      28.580  44.503  54.799  1.00  0.00    -0.351 N 
HETATM   17  C   UNL     1      29.001  45.651  55.433  1.00  0.00     0.275 C 
HETATM   18  O   UNL     1      28.694  46.774  55.044  1.00  0.00    -0.265 OA
HETATM   19  H   UNL     1      28.963  43.626  55.131  1.00  0.00     0.163 HD
BRANCH  17  20
HETATM   20  C   UNL     1      29.827  45.406  56.597  1.00  0.00     0.142 A 
HETATM   21  O   UNL     1      30.728  44.370  56.583  1.00  0.00    -0.317 OA
HETATM   22  C   UNL     1      31.349  44.363  57.792  1.00  0.00     0.143 A 
HETATM   23  C   UNL     1      30.870  45.378  58.586  1.00  0.00     0.027 A 
HETATM   24  C   UNL     1      29.890  46.051  57.819  1.00  0.00     0.045 A 
ENDBRANCH  17  20
ENDBRANCH  15  16
ENDBRANCH  13  15
TORSDOF 3
ENDMDL
