MODEL 1
REMARK VINA RESULT:      -9.3      0.000      0.000
REMARK  4 active torsions:
REMARK  status: ('A' for Active; 'I' for Inactive)
REMARK       I    between atoms: N_6  and  C_7 
REMARK    1  A    between atoms: C_7  and  C_8 
REMARK    2  A    between atoms: C_9  and  N_10 
REMARK       I    between atoms: N_10  and  C_11 
REMARK    3  A    between atoms: C_11  and  C_12 
REMARK    4  A    between atoms: N_20  and  C_21 
ROOT
HETATM    1  C   UNL     1      26.164  42.600  51.061  1.00  0.00     0.097 C 
HETATM    2  C   UNL     1      27.230  41.826  51.504  1.00  0.00     0.149 C 
HETATM    3  N   UNL     1      27.346  40.750  50.614  1.00  0.00    -0.217 N 
HETATM    4  N   UNL     1      26.350  40.797  49.684  1.00  0.00    -0.177 NA
HETATM    5  C   UNL     1      25.756  41.971  49.875  1.00  0.00     0.160 C 
ENDROOT
BRANCH   2   6
HETATM    6  N   UNL     1      27.947  42.156  52.658  1.00  0.00    -0.306 N 
HETATM    7  C   UNL     1      29.022  43.102  52.642  1.00  0.00     0.257 C 
HETATM    8  O   UNL     1      29.554  43.365  51.578  1.00  0.00    -0.267 OA
HETATM    9  H   UNL     1      27.811  41.549  53.465  1.00  0.00     0.170 HD
BRANCH   7  10
HETATM   10  C   UNL     1      29.453  43.687  53.940  1.00  0.00     0.032 A 
HETATM   11  C   UNL     1      30.516  43.164  54.690  1.00  0.00     0.018 A 
HETATM   12  C   UNL     1      30.841  43.725  55.932  1.00  0.00     0.020 A 
HETATM   13  C   UNL     1      30.100  44.797  56.429  1.00  0.00     0.011 A 
HETATM   14 BR   UNL     1      30.531  45.534  58.113  1.00  0.00    -0.051 Br
HETATM   15  C   UNL     1      29.037  45.319  55.694  1.00  0.00     0.020 A 
HETATM   16  C   UNL     1      28.716  44.766  54.451  1.00  0.00     0.018 A 
ENDBRANCH   7  10
ENDBRANCH   2   6
BRANCH   1  17
HETATM   17  C   UNL     1      25.670  43.783  51.739  1.00  0.00     0.259 C 
HETATM   18  N   UNL     1      26.315  45.014  51.563  1.00  0.00    -0.345 N 
HETATM   19  C   UNL     1      25.851  46.144  52.382  1.00  0.00     0.154 C 
HETATM   20  C   UNL     1      26.997  45.429  50.324  1.00  0.00     0.154 C 
HETATM   21  C   UNL     1      24.902  47.058  51.584  1.00  0.00     0.254 C 
HETATM   22  N   UNL     1      25.601  47.527  50.305  1.00  0.00    -0.072 N 
HETATM   23  C   UNL     1      24.732  48.450  49.495  1.00  0.00     0.269 C 
HETATM   24  H   UNL     1      26.422  48.079  50.591  1.00  0.00     0.279 HD
HETATM   25  C   UNL     1      26.103  46.355  49.472  1.00  0.00     0.254 C 
HETATM   26  O   UNL     1      24.651  43.699  52.430  1.00  0.00    -0.267 OA
ENDBRANCH   1  17
BRANCH   3  27
HETATM   27  C   UNL     1      28.347  39.747  50.492  1.00  0.00     0.060 A 
HETATM   28  C   UNL     1      29.058  39.274  51.601  1.00  0.00     0.031 A 
HETATM   29  C   UNL     1      30.000  38.252  51.440  1.00  0.00     0.002 A 
HETATM   30  C   UNL     1      30.251  37.720  50.177  1.00  0.00     0.000 A 
HETATM   31  C   UNL     1      29.583  38.223  49.063  1.00  0.00     0.002 A 
HETATM   32  C   UNL     1      28.642  39.241  49.216  1.00  0.00     0.031 A 
ENDBRANCH   3  27
TORSDOF 4
ENDMDL
MODEL 2
REMARK VINA RESULT:      -8.9      3.067      6.672
REMARK  4 active torsions:
REMARK  status: ('A' for Active; 'I' for Inactive)
REMARK       I    between atoms: N_6  and  C_7 
REMARK    1  A    between atoms: C_7  and  C_8 
REMARK    2  A    between atoms: C_9  and  N_10 
REMARK       I    between atoms: N_10  and  C_11 
REMARK    3  A    between atoms: C_11  and  C_12 
REMARK    4  A    between atoms: N_20  and  C_21 
ROOT
HETATM    1  C   UNL     1      26.471  42.233  51.440  1.00  0.00     0.097 C 
HETATM    2  C   UNL     1      26.882  43.364  52.135  1.00  0.00     0.149 C 
HETATM    3  N   UNL     1      27.762  42.928  53.135  1.00  0.00    -0.217 N 
HETATM    4  N   UNL     1      27.851  41.567  53.124  1.00  0.00    -0.177 NA
HETATM    5  C   UNL     1      27.202  41.189  52.028  1.00  0.00     0.160 C 
ENDROOT
BRANCH   2   6
HETATM    6  N   UNL     1      26.404  44.638  51.812  1.00  0.00    -0.306 N 
HETATM    7  C   UNL     1      26.761  45.299  50.594  1.00  0.00     0.257 C 
HETATM    8  O   UNL     1      27.750  44.923  49.992  1.00  0.00    -0.267 OA
HETATM    9  H   UNL     1      25.959  45.159  52.566  1.00  0.00     0.170 HD
BRANCH   7  10
HETATM   10  C   UNL     1      25.915  46.439  50.148  1.00  0.00     0.032 A 
HETATM   11  C   UNL     1      24.517  46.357  50.066  1.00  0.00     0.018 A 
HETATM   12  C   UNL     1      23.778  47.447  49.588  1.00  0.00     0.020 A 
HETATM   13  C   UNL     1      24.431  48.609  49.181  1.00  0.00     0.011 A 
HETATM   14 BR   UNL     1      23.429  50.064  48.517  1.00  0.00    -0.051 Br
HETATM   15  C   UNL     1      25.820  48.697  49.251  1.00  0.00     0.020 A 
HETATM   16  C   UNL     1      26.560  47.615  49.736  1.00  0.00     0.018 A 
ENDBRANCH   7  10
ENDBRANCH   2   6
BRANCH   1  17
HETATM   17  C   UNL     1      25.507  42.239  50.357  1.00  0.00     0.259 C 
HETATM   18  N   UNL     1      25.923  41.975  49.046  1.00  0.00    -0.345 N 
HETATM   19  C   UNL     1      24.927  42.130  47.976  1.00  0.00     0.154 C 
HETATM   20  C   UNL     1      27.032  41.073  48.687  1.00  0.00     0.154 C 
HETATM   21  C   UNL     1      24.335  40.769  47.563  1.00  0.00     0.254 C 
HETATM   22  N   UNL     1      25.468  39.823  47.157  1.00  0.00    -0.072 N 
HETATM   23  C   UNL     1      24.950  38.482  46.714  1.00  0.00     0.269 C 
HETATM   24  H   UNL     1      25.933  40.239  46.338  1.00  0.00     0.279 HD
HETATM   25  C   UNL     1      26.512  39.685  48.257  1.00  0.00     0.254 C 
HETATM   26  O   UNL     1      24.316  42.429  50.613  1.00  0.00    -0.267 OA
ENDBRANCH   1  17
BRANCH   3  27
HETATM   27  C   UNL     1      28.593  43.660  54.026  1.00  0.00     0.060 A 
HETATM   28  C   UNL     1      28.247  44.938  54.481  1.00  0.00     0.031 A 
HETATM   29  C   UNL     1      29.073  45.600  55.394  1.00  0.00     0.002 A 
HETATM   30  C   UNL     1      30.252  45.003  55.837  1.00  0.00     0.000 A 
HETATM   31  C   UNL     1      30.628  43.754  55.349  1.00  0.00     0.002 A 
HETATM   32  C   UNL     1      29.808  43.087  54.438  1.00  0.00     0.031 A 
ENDBRANCH   3  27
TORSDOF 4
ENDMDL
MODEL 3
REMARK VINA RESULT:      -8.8      2.862      7.319
REMARK  4 active torsions:
REMARK  status: ('A' for Active; 'I' for Inactive)
REMARK       I    between atoms: N_6  and  C_7 
REMARK    1  A    between atoms: C_7  and  C_8 
REMARK    2  A    between atoms: C_9  and  N_10 
REMARK       I    between atoms: N_10  and  C_11 
REMARK    3  A    between atoms: C_11  and  C_12 
REMARK    4  A    between atoms: N_20  and  C_21 
ROOT
HETATM    1  C   UNL     1      27.064  41.827  51.387  1.00  0.00     0.097 C 
HETATM    2  C   UNL     1      27.099  43.160  51.775  1.00  0.00     0.149 C 
HETATM    3  N   UNL     1      27.620  43.191  53.076  1.00  0.00    -0.217 N 
HETATM    4  N   UNL     1      27.840  41.922  53.525  1.00  0.00    -0.177 NA
HETATM    5  C   UNL     1      27.647  41.144  52.466  1.00  0.00     0.160 C 
ENDROOT
BRANCH   2   6
HETATM    6  N   UNL     1      26.637  44.181  50.937  1.00  0.00    -0.306 N 
HETATM    7  C   UNL     1      25.367  44.811  51.133  1.00  0.00     0.257 C 
HETATM    8  O   UNL     1      24.527  44.239  51.804  1.00  0.00    -0.267 OA
HETATM    9  H   UNL     1      27.147  44.317  50.066  1.00  0.00     0.170 HD
BRANCH   7  10
HETATM   10  C   UNL     1      25.133  46.124  50.473  1.00  0.00     0.032 A 
HETATM   11  C   UNL     1      23.893  46.485  49.925  1.00  0.00     0.018 A 
HETATM   12  C   UNL     1      23.748  47.713  49.268  1.00  0.00     0.020 A 
HETATM   13  C   UNL     1      24.839  48.573  49.147  1.00  0.00     0.011 A 
HETATM   14 BR   UNL     1      24.640  50.218  48.241  1.00  0.00    -0.051 Br
HETATM   15  C   UNL     1      26.076  48.220  49.681  1.00  0.00     0.020 A 
HETATM   16  C   UNL     1      26.222  46.999  50.345  1.00  0.00     0.018 A 
ENDBRANCH   7  10
ENDBRANCH   2   6
BRANCH   1  17
HETATM   17  C   UNL     1      26.534  41.351  50.123  1.00  0.00     0.259 C 
HETATM   18  N   UNL     1      27.355  40.634  49.244  1.00  0.00    -0.345 N 
HETATM   19  C   UNL     1      26.801  40.299  47.923  1.00  0.00     0.154 C 
HETATM   20  C   UNL     1      28.448  39.739  49.665  1.00  0.00     0.154 C 
HETATM   21  C   UNL     1      26.287  38.848  47.886  1.00  0.00     0.254 C 
HETATM   22  N   UNL     1      27.415  37.896  48.290  1.00  0.00    -0.072 N 
HETATM   23  C   UNL     1      26.982  36.456  48.244  1.00  0.00     0.269 C 
HETATM   24  H   UNL     1      28.164  37.996  47.591  1.00  0.00     0.279 HD
HETATM   25  C   UNL     1      28.004  38.261  49.647  1.00  0.00     0.254 C 
HETATM   26  O   UNL     1      25.345  41.546  49.858  1.00  0.00    -0.267 OA
ENDBRANCH   1  17
BRANCH   3  27
HETATM   27  C   UNL     1      28.019  44.284  53.892  1.00  0.00     0.060 A 
HETATM   28  C   UNL     1      27.301  45.485  53.925  1.00  0.00     0.031 A 
HETATM   29  C   UNL     1      27.704  46.515  54.780  1.00  0.00     0.002 A 
HETATM   30  C   UNL     1      28.833  46.361  55.583  1.00  0.00     0.000 A 
HETATM   31  C   UNL     1      29.581  45.188  55.517  1.00  0.00     0.002 A 
HETATM   32  C   UNL     1      29.184  44.155  54.667  1.00  0.00     0.031 A 
ENDBRANCH   3  27
TORSDOF 4
ENDMDL
MODEL 4
REMARK VINA RESULT:      -8.4      4.896      8.358
REMARK  4 active torsions:
REMARK  status: ('A' for Active; 'I' for Inactive)
REMARK       I    between atoms: N_6  and  C_7 
REMARK    1  A    between atoms: C_7  and  C_8 
REMARK    2  A    between atoms: C_9  and  N_10 
REMARK       I    between atoms: N_10  and  C_11 
REMARK    3  A    between atoms: C_11  and  C_12 
REMARK    4  A    between atoms: N_20  and  C_21 
ROOT
HETATM    1  C   UNL     1      25.510  45.769  50.917  1.00  0.00     0.097 C 
HETATM    2  C   UNL     1      24.416  45.902  50.070  1.00  0.00     0.149 C 
HETATM    3  N   UNL     1      24.425  44.789  49.218  1.00  0.00    -0.217 N 
HETATM    4  N   UNL     1      25.521  44.016  49.465  1.00  0.00    -0.177 NA
HETATM    5  C   UNL     1      26.065  44.530  50.563  1.00  0.00     0.160 C 
ENDROOT
BRANCH   2   6
HETATM    6  N   UNL     1      23.563  47.008  50.141  1.00  0.00    -0.306 N 
HETATM    7  C   UNL     1      23.732  48.156  49.302  1.00  0.00     0.257 C 
HETATM    8  O   UNL     1      24.813  48.337  48.770  1.00  0.00    -0.267 OA
HETATM    9  H   UNL     1      22.944  47.052  50.949  1.00  0.00     0.170 HD
BRANCH   7  10
HETATM   10  C   UNL     1      22.580  49.085  49.154  1.00  0.00     0.032 A 
HETATM   11  C   UNL     1      21.251  48.641  49.107  1.00  0.00     0.018 A 
HETATM   12  C   UNL     1      20.211  49.560  48.912  1.00  0.00     0.020 A 
HETATM   13  C   UNL     1      20.498  50.915  48.754  1.00  0.00     0.011 A 
HETATM   14 BR   UNL     1      19.092  52.144  48.471  1.00  0.00    -0.051 Br
HETATM   15  C   UNL     1      21.816  51.365  48.793  1.00  0.00     0.020 A 
HETATM   16  C   UNL     1      22.855  50.452  48.995  1.00  0.00     0.018 A 
ENDBRANCH   7  10
ENDBRANCH   2   6
BRANCH   1  17
HETATM   17  C   UNL     1      25.898  46.745  51.917  1.00  0.00     0.259 C 
HETATM   18  N   UNL     1      25.783  46.438  53.279  1.00  0.00    -0.345 N 
HETATM   19  C   UNL     1      26.062  47.514  54.241  1.00  0.00     0.154 C 
HETATM   20  C   UNL     1      25.945  45.087  53.847  1.00  0.00     0.154 C 
HETATM   21  C   UNL     1      27.487  47.393  54.814  1.00  0.00     0.254 C 
HETATM   22  N   UNL     1      27.669  46.007  55.438  1.00  0.00    -0.072 N 
HETATM   23  C   UNL     1      29.036  45.837  56.043  1.00  0.00     0.269 C 
HETATM   24  H   UNL     1      26.997  45.931  56.214  1.00  0.00     0.279 HD
HETATM   25  C   UNL     1      27.354  44.894  54.447  1.00  0.00     0.254 C 
HETATM   26  O   UNL     1      26.375  47.823  51.553  1.00  0.00    -0.267 OA
ENDBRANCH   1  17
BRANCH   3  27
HETATM   27  C   UNL     1      23.465  44.333  48.274  1.00  0.00     0.060 A 
HETATM   28  C   UNL     1      22.706  45.221  47.502  1.00  0.00     0.031 A 
HETATM   29  C   UNL     1      21.809  44.725  46.551  1.00  0.00     0.002 A 
HETATM   30  C   UNL     1      21.647  43.351  46.386  1.00  0.00     0.000 A 
HETATM   31  C   UNL     1      22.361  42.463  47.187  1.00  0.00     0.002 A 
HETATM   32  C   UNL     1      23.260  42.950  48.137  1.00  0.00     0.031 A 
ENDBRANCH   3  27
TORSDOF 4
ENDMDL
MODEL 5
REMARK VINA RESULT:      -8.4      6.858     10.006
REMARK  4 active torsions:
REMARK  status: ('A' for Active; 'I' for Inactive)
REMARK       I    between atoms: N_6  and  C_7 
REMARK    1  A    between atoms: C_7  and  C_8 
REMARK    2  A    between atoms: C_9  and  N_10 
REMARK       I    between atoms: N_10  and  C_11 
REMARK    3  A    between atoms: C_11  and  C_12 
REMARK    4  A    between atoms: N_20  and  C_21 
ROOT
HETATM    1  C   UNL     1      20.917  49.453  49.462  1.00  0.00     0.097 C 
HETATM    2  C   UNL     1      21.993  48.605  49.230  1.00  0.00     0.149 C 
HETATM    3  N   UNL     1      23.143  49.404  49.212  1.00  0.00    -0.217 N 
HETATM    4  N   UNL     1      22.806  50.718  49.354  1.00  0.00    -0.177 NA
HETATM    5  C   UNL     1      21.510  50.711  49.647  1.00  0.00     0.160 C 
ENDROOT
BRANCH   2   6
HETATM    6  N   UNL     1      21.816  47.231  49.036  1.00  0.00    -0.306 N 
HETATM    7  C   UNL     1      22.038  46.606  47.767  1.00  0.00     0.257 C 
HETATM    8  O   UNL     1      22.041  47.300  46.765  1.00  0.00    -0.267 OA
HETATM    9  H   UNL     1      21.328  46.728  49.776  1.00  0.00     0.170 HD
BRANCH   7  10
HETATM   10  C   UNL     1      22.220  45.130  47.741  1.00  0.00     0.032 A 
HETATM   11  C   UNL     1      23.066  44.456  48.634  1.00  0.00     0.018 A 
HETATM   12  C   UNL     1      23.239  43.070  48.526  1.00  0.00     0.020 A 
HETATM   13  C   UNL     1      22.579  42.361  47.523  1.00  0.00     0.011 A 
HETATM   14 BR   UNL     1      22.835  40.496  47.372  1.00  0.00    -0.051 Br
HETATM   15  C   UNL     1      21.743  43.022  46.627  1.00  0.00     0.020 A 
HETATM   16  C   UNL     1      21.561  44.404  46.737  1.00  0.00     0.018 A 
ENDBRANCH   7  10
ENDBRANCH   2   6
BRANCH   1  17
HETATM   17  C   UNL     1      19.530  49.031  49.497  1.00  0.00     0.259 C 
HETATM   18  N   UNL     1      18.676  49.339  48.431  1.00  0.00    -0.345 N 
HETATM   19  C   UNL     1      17.252  49.005  48.587  1.00  0.00     0.154 C 
HETATM   20  C   UNL     1      19.102  49.447  47.024  1.00  0.00     0.154 C 
HETATM   21  C   UNL     1      16.907  47.686  47.869  1.00  0.00     0.254 C 
HETATM   22  N   UNL     1      17.313  47.786  46.397  1.00  0.00    -0.072 N 
HETATM   23  C   UNL     1      16.974  46.535  45.633  1.00  0.00     0.269 C 
HETATM   24  H   UNL     1      16.755  48.542  45.976  1.00  0.00     0.279 HD
HETATM   25  C   UNL     1      18.782  48.157  46.238  1.00  0.00     0.254 C 
HETATM   26  O   UNL     1      19.129  48.359  50.451  1.00  0.00    -0.267 OA
ENDBRANCH   1  17
BRANCH   3  27
HETATM   27  C   UNL     1      24.520  49.053  49.173  1.00  0.00     0.060 A 
HETATM   28  C   UNL     1      25.463  49.826  48.486  1.00  0.00     0.031 A 
HETATM   29  C   UNL     1      26.814  49.467  48.516  1.00  0.00     0.002 A 
HETATM   30  C   UNL     1      27.224  48.330  49.208  1.00  0.00     0.000 A 
HETATM   31  C   UNL     1      26.284  47.528  49.851  1.00  0.00     0.002 A 
HETATM   32  C   UNL     1      24.934  47.880  49.826  1.00  0.00     0.031 A 
ENDBRANCH   3  27
TORSDOF 4
ENDMDL
MODEL 6
REMARK VINA RESULT:      -8.4      1.704      6.257
REMARK  4 active torsions:
REMARK  status: ('A' for Active; 'I' for Inactive)
REMARK       I    between atoms: N_6  and  C_7 
REMARK    1  A    between atoms: C_7  and  C_8 
REMARK    2  A    between atoms: C_9  and  N_10 
REMARK       I    between atoms: N_10  and  C_11 
REMARK    3  A    between atoms: C_11  and  C_12 
REMARK    4  A    between atoms: N_20  and  C_21 
ROOT
HETATM    1  C   UNL     1      25.809  42.278  49.967  1.00  0.00     0.097 C 
HETATM    2  C   UNL     1      26.285  43.546  50.283  1.00  0.00     0.149 C 
HETATM    3  N   UNL     1      25.561  44.457  49.502  1.00  0.00    -0.217 N 
HETATM    4  N   UNL     1      24.710  43.792  48.670  1.00  0.00    -0.177 NA
HETATM    5  C   UNL     1      24.765  42.524  49.062  1.00  0.00     0.160 C 
ENDROOT
BRANCH   2   6
HETATM    6  N   UNL     1      27.320  43.732  51.204  1.00  0.00    -0.306 N 
HETATM    7  C   UNL     1      27.104  44.348  52.479  1.00  0.00     0.257 C 
HETATM    8  O   UNL     1      26.108  45.030  52.638  1.00  0.00    -0.267 OA
HETATM    9  H   UNL     1      28.268  43.599  50.854  1.00  0.00     0.170 HD
BRANCH   7  10
HETATM   10  C   UNL     1      28.135  44.146  53.532  1.00  0.00     0.032 A 
HETATM   11  C   UNL     1      28.371  45.082  54.550  1.00  0.00     0.018 A 
HETATM   12  C   UNL     1      29.392  44.861  55.483  1.00  0.00     0.020 A 
HETATM   13  C   UNL     1      30.183  43.717  55.394  1.00  0.00     0.011 A 
HETATM   14 BR   UNL     1      31.571  43.438  56.643  1.00  0.00    -0.051 Br
HETATM   15  C   UNL     1      29.962  42.785  54.382  1.00  0.00     0.020 A 
HETATM   16  C   UNL     1      28.938  42.998  53.454  1.00  0.00     0.018 A 
ENDBRANCH   7  10
ENDBRANCH   2   6
BRANCH   1  17
HETATM   17  C   UNL     1      26.335  41.042  50.513  1.00  0.00     0.259 C 
HETATM   18  N   UNL     1      26.606  39.960  49.667  1.00  0.00    -0.345 N 
HETATM   19  C   UNL     1      27.006  38.693  50.297  1.00  0.00     0.154 C 
HETATM   20  C   UNL     1      27.052  40.086  48.268  1.00  0.00     0.154 C 
HETATM   21  C   UNL     1      28.535  38.507  50.252  1.00  0.00     0.254 C 
HETATM   22  N   UNL     1      29.018  38.603  48.802  1.00  0.00    -0.072 N 
HETATM   23  C   UNL     1      30.504  38.399  48.689  1.00  0.00     0.269 C 
HETATM   24  H   UNL     1      28.579  37.830  48.283  1.00  0.00     0.279 HD
HETATM   25  C   UNL     1      28.579  39.905  48.145  1.00  0.00     0.254 C 
HETATM   26  O   UNL     1      26.585  40.977  51.720  1.00  0.00    -0.267 OA
ENDBRANCH   1  17
BRANCH   3  27
HETATM   27  C   UNL     1      25.519  45.878  49.530  1.00  0.00     0.060 A 
HETATM   28  C   UNL     1      26.685  46.652  49.561  1.00  0.00     0.031 A 
HETATM   29  C   UNL     1      26.596  48.047  49.539  1.00  0.00     0.002 A 
HETATM   30  C   UNL     1      25.350  48.671  49.510  1.00  0.00     0.000 A 
HETATM   31  C   UNL     1      24.186  47.907  49.531  1.00  0.00     0.002 A 
HETATM   32  C   UNL     1      24.268  46.514  49.552  1.00  0.00     0.031 A 
ENDBRANCH   3  27
TORSDOF 4
ENDMDL
MODEL 7
REMARK VINA RESULT:      -8.2      6.205      9.763
REMARK  4 active torsions:
REMARK  status: ('A' for Active; 'I' for Inactive)
REMARK       I    between atoms: N_6  and  C_7 
REMARK    1  A    between atoms: C_7  and  C_8 
REMARK    2  A    between atoms: C_9  and  N_10 
REMARK       I    between atoms: N_10  and  C_11 
REMARK    3  A    between atoms: C_11  and  C_12 
REMARK    4  A    between atoms: N_20  and  C_21 
ROOT
HETATM    1  C   UNL     1      22.127  45.432  47.302  1.00  0.00     0.097 C 
HETATM    2  C   UNL     1      22.421  45.994  48.538  1.00  0.00     0.149 C 
HETATM    3  N   UNL     1      23.470  45.244  49.086  1.00  0.00    -0.217 N 
HETATM    4  N   UNL     1      23.783  44.202  48.264  1.00  0.00    -0.177 NA
HETATM    5  C   UNL     1      23.085  44.417  47.154  1.00  0.00     0.160 C 
ENDROOT
BRANCH   2   6
HETATM    6  N   UNL     1      21.702  47.085  49.038  1.00  0.00    -0.306 N 
HETATM    7  C   UNL     1      21.922  48.421  48.569  1.00  0.00     0.257 C 
HETATM    8  O   UNL     1      22.965  48.675  47.995  1.00  0.00    -0.267 OA
HETATM    9  H   UNL     1      21.165  46.923  49.888  1.00  0.00     0.170 HD
BRANCH   7  10
HETATM   10  C   UNL     1      20.869  49.435  48.843  1.00  0.00     0.032 A 
HETATM   11  C   UNL     1      19.719  49.149  49.593  1.00  0.00     0.018 A 
HETATM   12  C   UNL     1      18.736  50.131  49.772  1.00  0.00     0.020 A 
HETATM   13  C   UNL     1      18.895  51.390  49.196  1.00  0.00     0.011 A 
HETATM   14 BR   UNL     1      17.556  52.701  49.425  1.00  0.00    -0.051 Br
HETATM   15  C   UNL     1      20.031  51.682  48.444  1.00  0.00     0.020 A 
HETATM   16  C   UNL     1      21.017  50.707  48.269  1.00  0.00     0.018 A 
ENDBRANCH   7  10
ENDBRANCH   2   6
BRANCH   1  17
HETATM   17  C   UNL     1      21.058  45.877  46.429  1.00  0.00     0.259 C 
HETATM   18  N   UNL     1      19.768  45.351  46.576  1.00  0.00    -0.345 N 
HETATM   19  C   UNL     1      18.762  45.739  45.575  1.00  0.00     0.154 C 
HETATM   20  C   UNL     1      19.183  44.918  47.857  1.00  0.00     0.154 C 
HETATM   21  C   UNL     1      17.855  46.866  46.105  1.00  0.00     0.254 C 
HETATM   22  N   UNL     1      17.212  46.427  47.422  1.00  0.00    -0.072 N 
HETATM   23  C   UNL     1      16.289  47.478  47.976  1.00  0.00     0.269 C 
HETATM   24  H   UNL     1      16.626  45.606  47.217  1.00  0.00     0.279 HD
HETATM   25  C   UNL     1      18.255  46.001  48.447  1.00  0.00     0.254 C 
HETATM   26  O   UNL     1      21.288  46.756  45.594  1.00  0.00    -0.267 OA
ENDBRANCH   1  17
BRANCH   3  27
HETATM   27  C   UNL     1      24.264  45.463  50.244  1.00  0.00     0.060 A 
HETATM   28  C   UNL     1      24.880  46.695  50.497  1.00  0.00     0.031 A 
HETATM   29  C   UNL     1      25.612  46.879  51.674  1.00  0.00     0.002 A 
HETATM   30  C   UNL     1      25.753  45.834  52.585  1.00  0.00     0.000 A 
HETATM   31  C   UNL     1      25.186  44.591  52.315  1.00  0.00     0.002 A 
HETATM   32  C   UNL     1      24.453  44.400  51.143  1.00  0.00     0.031 A 
ENDBRANCH   3  27
TORSDOF 4
ENDMDL
MODEL 8
REMARK VINA RESULT:      -8.1     16.170     19.197
REMARK  4 active torsions:
REMARK  status: ('A' for Active; 'I' for Inactive)
REMARK       I    between atoms: N_6  and  C_7 
REMARK    1  A    between atoms: C_7  and  C_8 
REMARK    2  A    between atoms: C_9  and  N_10 
REMARK       I    between atoms: N_10  and  C_11 
REMARK    3  A    between atoms: C_11  and  C_12 
REMARK    4  A    between atoms: N_20  and  C_21 
ROOT
HETATM    1  C   UNL     1      37.880  45.711  64.212  1.00  0.00     0.097 C 
HETATM    2  C   UNL     1      38.429  46.865  64.760  1.00  0.00     0.149 C 
HETATM    3  N   UNL     1      37.364  47.615  65.276  1.00  0.00    -0.217 N 
HETATM    4  N   UNL     1      36.178  46.999  65.005  1.00  0.00    -0.177 NA
HETATM    5  C   UNL     1      36.512  45.812  64.510  1.00  0.00     0.160 C 
ENDROOT
BRANCH   2   6
HETATM    6  N   UNL     1      39.803  47.120  64.707  1.00  0.00    -0.306 N 
HETATM    7  C   UNL     1      40.667  46.871  65.821  1.00  0.00     0.257 C 
HETATM    8  O   UNL     1      40.176  46.771  66.931  1.00  0.00    -0.267 OA
HETATM    9  H   UNL     1      40.131  47.678  63.920  1.00  0.00     0.170 HD
BRANCH   7  10
HETATM   10  C   UNL     1      42.129  46.784  65.562  1.00  0.00     0.032 A 
HETATM   11  C   UNL     1      43.082  47.415  66.375  1.00  0.00     0.018 A 
HETATM   12  C   UNL     1      44.442  47.341  66.049  1.00  0.00     0.020 A 
HETATM   13  C   UNL     1      44.850  46.650  64.909  1.00  0.00     0.011 A 
HETATM   14 BR   UNL     1      46.683  46.574  64.465  1.00  0.00    -0.051 Br
HETATM   15  C   UNL     1      43.911  46.026  64.090  1.00  0.00     0.020 A 
HETATM   16  C   UNL     1      42.553  46.091  64.417  1.00  0.00     0.018 A 
ENDBRANCH   7  10
ENDBRANCH   2   6
BRANCH   1  17
HETATM   17  C   UNL     1      38.639  44.688  63.519  1.00  0.00     0.259 C 
HETATM   18  N   UNL     1      39.449  43.804  64.243  1.00  0.00    -0.345 N 
HETATM   19  C   UNL     1      40.298  42.881  63.475  1.00  0.00     0.154 C 
HETATM   20  C   UNL     1      39.158  43.333  65.609  1.00  0.00     0.154 C 
HETATM   21  C   UNL     1      39.659  41.482  63.384  1.00  0.00     0.254 C 
HETATM   22  N   UNL     1      39.375  40.958  64.794  1.00  0.00    -0.072 N 
HETATM   23  C   UNL     1      38.776  39.579  64.772  1.00  0.00     0.269 C 
HETATM   24  H   UNL     1      40.281  40.873  65.276  1.00  0.00     0.279 HD
HETATM   25  C   UNL     1      38.518  41.929  65.596  1.00  0.00     0.254 C 
HETATM   26  O   UNL     1      38.523  44.578  62.296  1.00  0.00    -0.267 OA
ENDBRANCH   1  17
BRANCH   3  27
HETATM   27  C   UNL     1      37.356  48.790  66.076  1.00  0.00     0.060 A 
HETATM   28  C   UNL     1      36.888  48.783  67.396  1.00  0.00     0.031 A 
HETATM   29  C   UNL     1      36.945  49.952  68.160  1.00  0.00     0.002 A 
HETATM   30  C   UNL     1      37.442  51.131  67.608  1.00  0.00     0.000 A 
HETATM   31  C   UNL     1      37.861  51.157  66.280  1.00  0.00     0.002 A 
HETATM   32  C   UNL     1      37.808  49.994  65.510  1.00  0.00     0.031 A 
ENDBRANCH   3  27
TORSDOF 4
ENDMDL
MODEL 9
REMARK VINA RESULT:      -8.0      3.261      6.486
REMARK  4 active torsions:
REMARK  status: ('A' for Active; 'I' for Inactive)
REMARK       I    between atoms: N_6  and  C_7 
REMARK    1  A    between atoms: C_7  and  C_8 
REMARK    2  A    between atoms: C_9  and  N_10 
REMARK       I    between atoms: N_10  and  C_11 
REMARK    3  A    between atoms: C_11  and  C_12 
REMARK    4  A    between atoms: N_20  and  C_21 
ROOT
HETATM    1  C   UNL     1      27.765  40.945  49.151  1.00  0.00     0.097 C 
HETATM    2  C   UNL     1      27.585  42.037  49.991  1.00  0.00     0.149 C 
HETATM    3  N   UNL     1      28.075  41.664  51.250  1.00  0.00    -0.217 N 
HETATM    4  N   UNL     1      28.485  40.364  51.231  1.00  0.00    -0.177 NA
HETATM    5  C   UNL     1      28.431  40.005  49.952  1.00  0.00     0.160 C 
ENDROOT
BRANCH   2   6
HETATM    6  N   UNL     1      26.983  43.217  49.543  1.00  0.00    -0.306 N 
HETATM    7  C   UNL     1      25.726  43.672  50.054  1.00  0.00     0.257 C 
HETATM    8  O   UNL     1      25.000  42.874  50.619  1.00  0.00    -0.267 OA
HETATM    9  H   UNL     1      27.373  43.631  48.697  1.00  0.00     0.170 HD
BRANCH   7  10
HETATM   10  C   UNL     1      25.360  45.098  49.834  1.00  0.00     0.032 A 
HETATM   11  C   UNL     1      24.048  45.509  49.558  1.00  0.00     0.018 A 
HETATM   12  C   UNL     1      23.775  46.859  49.307  1.00  0.00     0.020 A 
HETATM   13  C   UNL     1      24.809  47.794  49.318  1.00  0.00     0.011 A 
HETATM   14 BR   UNL     1      24.435  49.610  48.957  1.00  0.00    -0.051 Br
HETATM   15  C   UNL     1      26.117  47.395  49.583  1.00  0.00     0.020 A 
HETATM   16  C   UNL     1      26.392  46.049  49.843  1.00  0.00     0.018 A 
ENDBRANCH   7  10
ENDBRANCH   2   6
BRANCH   1  17
HETATM   17  C   UNL     1      27.334  40.893  47.766  1.00  0.00     0.259 C 
HETATM   18  N   UNL     1      26.143  40.240  47.426  1.00  0.00    -0.345 N 
HETATM   19  C   UNL     1      25.833  40.103  45.995  1.00  0.00     0.154 C 
HETATM   20  C   UNL     1      24.954  40.165  48.294  1.00  0.00     0.154 C 
HETATM   21  C   UNL     1      24.826  41.176  45.538  1.00  0.00     0.254 C 
HETATM   22  N   UNL     1      23.568  41.098  46.407  1.00  0.00    -0.072 N 
HETATM   23  C   UNL     1      22.532  42.106  45.989  1.00  0.00     0.269 C 
HETATM   24  H   UNL     1      23.149  40.171  46.254  1.00  0.00     0.279 HD
HETATM   25  C   UNL     1      23.896  41.214  47.890  1.00  0.00     0.254 C 
HETATM   26  O   UNL     1      28.004  41.472  46.907  1.00  0.00    -0.267 OA
ENDBRANCH   1  17
BRANCH   3  27
HETATM   27  C   UNL     1      28.288  42.430  52.429  1.00  0.00     0.060 A 
HETATM   28  C   UNL     1      27.223  42.942  53.180  1.00  0.00     0.031 A 
HETATM   29  C   UNL     1      27.479  43.648  54.360  1.00  0.00     0.002 A 
HETATM   30  C   UNL     1      28.790  43.865  54.779  1.00  0.00     0.000 A 
HETATM   31  C   UNL     1      29.854  43.402  54.009  1.00  0.00     0.002 A 
HETATM   32  C   UNL     1      29.607  42.696  52.831  1.00  0.00     0.031 A 
ENDBRANCH   3  27
TORSDOF 4
ENDMDL
MODEL 10
REMARK VINA RESULT:      -7.7      4.896      9.817
REMARK  4 active torsions:
REMARK  status: ('A' for Active; 'I' for Inactive)
REMARK       I    between atoms: N_6  and  C_7 
REMARK    1  A    between atoms: C_7  and  C_8 
REMARK    2  A    between atoms: C_9  and  N_10 
REMARK       I    between atoms: N_10  and  C_11 
REMARK    3  A    between atoms: C_11  and  C_12 
REMARK    4  A    between atoms: N_20  and  C_21 
ROOT
HETATM    1  C   UNL     1      24.699  45.144  50.587  1.00  0.00     0.097 C 
HETATM    2  C   UNL     1      24.074  45.828  49.551  1.00  0.00     0.149 C 
HETATM    3  N   UNL     1      24.054  47.182  49.913  1.00  0.00    -0.217 N 
HETATM    4  N   UNL     1      24.580  47.344  51.161  1.00  0.00    -0.177 NA
HETATM    5  C   UNL     1      25.087  46.158  51.477  1.00  0.00     0.160 C 
ENDROOT
BRANCH   2   6
HETATM    6  N   UNL     1      23.574  45.161  48.428  1.00  0.00    -0.306 N 
HETATM    7  C   UNL     1      22.184  44.856  48.279  1.00  0.00     0.257 C 
HETATM    8  O   UNL     1      21.475  44.855  49.270  1.00  0.00    -0.267 OA
HETATM    9  H   UNL     1      24.263  44.722  47.819  1.00  0.00     0.170 HD
BRANCH   7  10
HETATM   10  C   UNL     1      21.687  44.523  46.917  1.00  0.00     0.032 A 
HETATM   11  C   UNL     1      21.320  43.222  46.542  1.00  0.00     0.018 A 
HETATM   12  C   UNL     1      20.911  42.960  45.229  1.00  0.00     0.020 A 
HETATM   13  C   UNL     1      20.878  43.989  44.289  1.00  0.00     0.011 A 
HETATM   14 BR   UNL     1      20.346  43.622  42.515  1.00  0.00    -0.051 Br
HETATM   15  C   UNL     1      21.248  45.283  44.649  1.00  0.00     0.020 A 
HETATM   16  C   UNL     1      21.649  45.550  45.962  1.00  0.00     0.018 A 
ENDBRANCH   7  10
ENDBRANCH   2   6
BRANCH   1  17
HETATM   17  C   UNL     1      24.872  43.705  50.636  1.00  0.00     0.259 C 
HETATM   18  N   UNL     1      26.100  43.134  50.280  1.00  0.00    -0.345 N 
HETATM   19  C   UNL     1      26.171  41.667  50.218  1.00  0.00     0.154 C 
HETATM   20  C   UNL     1      27.411  43.775  50.488  1.00  0.00     0.154 C 
HETATM   21  C   UNL     1      26.802  41.084  51.497  1.00  0.00     0.254 C 
HETATM   22  N   UNL     1      28.180  41.714  51.718  1.00  0.00    -0.072 N 
HETATM   23  C   UNL     1      28.862  41.162  52.940  1.00  0.00     0.269 C 
HETATM   24  H   UNL     1      28.768  41.452  50.915  1.00  0.00     0.279 HD
HETATM   25  C   UNL     1      28.107  43.235  51.755  1.00  0.00     0.254 C 
HETATM   26  O   UNL     1      23.943  43.001  51.040  1.00  0.00    -0.267 OA
ENDBRANCH   1  17
BRANCH   3  27
HETATM   27  C   UNL     1      23.685  48.337  49.171  1.00  0.00     0.060 A 
HETATM   28  C   UNL     1      24.629  49.288  48.764  1.00  0.00     0.031 A 
HETATM   29  C   UNL     1      24.226  50.384  47.995  1.00  0.00     0.002 A 
HETATM   30  C   UNL     1      22.885  50.548  47.652  1.00  0.00     0.000 A 
HETATM   31  C   UNL     1      21.934  49.633  48.098  1.00  0.00     0.002 A 
HETATM   32  C   UNL     1      22.328  48.537  48.865  1.00  0.00     0.031 A 
ENDBRANCH   3  27
TORSDOF 4
ENDMDL
