MODEL 1
REMARK VINA RESULT:      -9.6      0.000      0.000
REMARK  6 active torsions:
REMARK  status: ('A' for Active; 'I' for Inactive)
REMARK    1  A    between atoms: C_4  and  C_5 
REMARK    2  A    between atoms: C_5  and  N_6 
REMARK    3  A    between atoms: C_10  and  C_11 
REMARK    4  A    between atoms: C_11  and  C_12 
REMARK    5  A    between atoms: N_21  and  C_22 
REMARK    6  A    between atoms: C_22  and  C_23 
ROOT
HETATM    1  C   UNL     1      26.056  44.277  51.943  1.00  0.00     0.164 A 
HETATM    2  N   UNL     1      26.519  45.387  51.121  1.00  0.00    -0.319 N 
HETATM    3  C   UNL     1      25.934  45.391  49.876  1.00  0.00     0.326 A 
HETATM    4  O   UNL     1      26.237  46.192  49.011  1.00  0.00    -0.247 OA
HETATM    5  N   UNL     1      24.990  44.423  49.827  1.00  0.00    -0.265 N 
HETATM    6  C   UNL     1      25.019  43.671  50.970  1.00  0.00     0.263 A 
HETATM    7  O   UNL     1      24.295  42.717  51.219  1.00  0.00    -0.270 OA
HETATM    8  H   UNL     1      27.511  45.613  51.123  1.00  0.00     0.166 HD
ENDROOT
BRANCH   1   9
HETATM    9  C   UNL     1      25.347  44.758  53.261  1.00  0.00     0.033 C 
HETATM   10  C   UNL     1      25.362  46.279  53.502  1.00  0.00     0.036 C 
HETATM   11  C   UNL     1      26.726  46.839  53.875  1.00  0.00     0.235 C 
HETATM   12  N   UNL     1      27.366  46.082  55.013  1.00  0.00    -0.067 N 
HETATM   13  H   UNL     1      26.887  46.402  55.863  1.00  0.00     0.280 HD
HETATM   14  C   UNL     1      27.250  44.573  54.969  1.00  0.00     0.235 C 
HETATM   15  C   UNL     1      25.856  44.118  54.566  1.00  0.00     0.036 C 
BRANCH  12  16
HETATM   16  C   UNL     1      28.841  46.460  55.190  1.00  0.00     0.274 C 
BRANCH  16  17
HETATM   17  C   UNL     1      29.540  45.792  56.348  1.00  0.00    -0.026 A 
HETATM   18  C   UNL     1      30.527  44.824  56.059  1.00  0.00     0.016 A 
HETATM   19  C   UNL     1      31.253  44.194  57.073  1.00  0.00    -0.061 A 
HETATM   20  C   UNL     1      32.318  43.185  56.755  1.00  0.00     0.048 C 
HETATM   21  C   UNL     1      30.982  44.530  58.400  1.00  0.00     0.007 A 
HETATM   22  C   UNL     1      29.997  45.470  58.704  1.00  0.00     0.008 A 
HETATM   23  C   UNL     1      29.273  46.121  57.692  1.00  0.00    -0.054 A 
HETATM   24  C   UNL     1      28.183  47.077  58.094  1.00  0.00     0.049 C 
ENDBRANCH  16  17
ENDBRANCH  12  16
ENDBRANCH   1   9
BRANCH   1  25
HETATM   25  C   UNL     1      27.238  43.357  52.227  1.00  0.00     0.072 A 
HETATM   26  N   UNL     1      26.915  42.035  52.367  1.00  0.00    -0.262 NA
HETATM   27  C   UNL     1      27.924  41.167  52.619  1.00  0.00     0.117 A 
HETATM   28  C   UNL     1      29.249  41.542  52.732  1.00  0.00     0.019 A 
HETATM   29  C   UNL     1      29.564  42.885  52.575  1.00  0.00     0.003 A 
HETATM   30  C   UNL     1      28.553  43.806  52.310  1.00  0.00     0.030 A 
ENDBRANCH   1  25
BRANCH   5  31
HETATM   31  C   UNL     1      24.071  44.226  48.724  1.00  0.00     0.168 C 
BRANCH  31  32
HETATM   32  C   UNL     1      22.702  44.877  48.917  1.00  0.00     0.140 C 
HETATM   33  O   UNL     1      21.688  43.983  48.416  1.00  0.00    -0.384 OA
HETATM   34  C   UNL     1      20.774  44.735  47.605  1.00  0.00     0.168 C 
HETATM   35  C   UNL     1      21.039  46.194  47.903  1.00  0.00     0.029 C 
HETATM   36  C   UNL     1      22.523  46.190  48.169  1.00  0.00     0.036 C 
ENDBRANCH  31  32
ENDBRANCH   5  31
TORSDOF 6
ENDMDL
MODEL 2
REMARK VINA RESULT:      -9.4      1.831      2.103
REMARK  6 active torsions:
REMARK  status: ('A' for Active; 'I' for Inactive)
REMARK    1  A    between atoms: C_4  and  C_5 
REMARK    2  A    between atoms: C_5  and  N_6 
REMARK    3  A    between atoms: C_10  and  C_11 
REMARK    4  A    between atoms: C_11  and  C_12 
REMARK    5  A    between atoms: N_21  and  C_22 
REMARK    6  A    between atoms: C_22  and  C_23 
ROOT
HETATM    1  C   UNL     1      25.655  44.613  51.580  1.00  0.00     0.164 A 
HETATM    2  N   UNL     1      26.631  45.647  51.266  1.00  0.00    -0.319 N 
HETATM    3  C   UNL     1      26.213  46.461  50.239  1.00  0.00     0.326 A 
HETATM    4  O   UNL     1      26.911  47.344  49.775  1.00  0.00    -0.247 OA
HETATM    5  N   UNL     1      24.943  46.136  49.905  1.00  0.00    -0.265 N 
HETATM    6  C   UNL     1      24.540  45.024  50.593  1.00  0.00     0.263 A 
HETATM    7  O   UNL     1      23.448  44.480  50.500  1.00  0.00    -0.270 OA
HETATM    8  H   UNL     1      27.616  45.392  51.230  1.00  0.00     0.166 HD
ENDROOT
BRANCH   1   9
HETATM    9  C   UNL     1      25.132  44.706  53.059  1.00  0.00     0.033 C 
HETATM   10  C   UNL     1      25.190  46.110  53.692  1.00  0.00     0.036 C 
HETATM   11  C   UNL     1      26.595  46.591  54.019  1.00  0.00     0.235 C 
HETATM   12  N   UNL     1      27.377  45.579  54.821  1.00  0.00    -0.067 N 
HETATM   13  H   UNL     1      27.018  45.648  55.780  1.00  0.00     0.280 HD
HETATM   14  C   UNL     1      27.246  44.133  54.393  1.00  0.00     0.235 C 
HETATM   15  C   UNL     1      25.808  43.759  54.068  1.00  0.00     0.036 C 
BRANCH  12  16
HETATM   16  C   UNL     1      28.865  45.940  54.898  1.00  0.00     0.274 C 
BRANCH  16  17
HETATM   17  C   UNL     1      29.572  45.485  56.150  1.00  0.00    -0.026 A 
HETATM   18  C   UNL     1      30.576  44.499  56.024  1.00  0.00     0.016 A 
HETATM   19  C   UNL     1      31.310  44.058  57.128  1.00  0.00    -0.061 A 
HETATM   20  C   UNL     1      32.393  43.029  56.980  1.00  0.00     0.048 C 
HETATM   21  C   UNL     1      31.030  44.603  58.381  1.00  0.00     0.007 A 
HETATM   22  C   UNL     1      30.027  45.563  58.527  1.00  0.00     0.008 A 
HETATM   23  C   UNL     1      29.296  46.025  57.421  1.00  0.00    -0.054 A 
HETATM   24  C   UNL     1      28.188  47.016  57.660  1.00  0.00     0.049 C 
ENDBRANCH  16  17
ENDBRANCH  12  16
ENDBRANCH   1   9
BRANCH   1  25
HETATM   25  C   UNL     1      26.273  43.253  51.272  1.00  0.00     0.072 A 
HETATM   26  N   UNL     1      25.374  42.275  50.947  1.00  0.00    -0.262 NA
HETATM   27  C   UNL     1      25.863  41.045  50.660  1.00  0.00     0.117 A 
HETATM   28  C   UNL     1      27.208  40.732  50.671  1.00  0.00     0.019 A 
HETATM   29  C   UNL     1      28.111  41.738  50.990  1.00  0.00     0.003 A 
HETATM   30  C   UNL     1      27.645  43.017  51.286  1.00  0.00     0.030 A 
ENDBRANCH   1  25
BRANCH   5  31
HETATM   31  C   UNL     1      24.125  46.875  48.963  1.00  0.00     0.168 C 
BRANCH  31  32
HETATM   32  C   UNL     1      23.627  48.224  49.480  1.00  0.00     0.140 C 
HETATM   33  O   UNL     1      22.204  48.306  49.267  1.00  0.00    -0.384 OA
HETATM   34  C   UNL     1      21.899  49.586  48.696  1.00  0.00     0.168 C 
HETATM   35  C   UNL     1      23.130  50.444  48.888  1.00  0.00     0.029 C 
HETATM   36  C   UNL     1      24.236  49.426  48.774  1.00  0.00     0.036 C 
ENDBRANCH  31  32
ENDBRANCH   5  31
TORSDOF 6
ENDMDL
MODEL 3
REMARK VINA RESULT:      -9.0      2.092      3.827
REMARK  6 active torsions:
REMARK  status: ('A' for Active; 'I' for Inactive)
REMARK    1  A    between atoms: C_4  and  C_5 
REMARK    2  A    between atoms: C_5  and  N_6 
REMARK    3  A    between atoms: C_10  and  C_11 
REMARK    4  A    between atoms: C_11  and  C_12 
REMARK    5  A    between atoms: N_21  and  C_22 
REMARK    6  A    between atoms: C_22  and  C_23 
ROOT
HETATM    1  C   UNL     1      25.404  43.375  50.055  1.00  0.00     0.164 A 
HETATM    2  N   UNL     1      26.708  43.929  49.718  1.00  0.00    -0.319 N 
HETATM    3  C   UNL     1      26.692  45.303  49.670  1.00  0.00     0.326 A 
HETATM    4  O   UNL     1      27.661  45.960  49.336  1.00  0.00    -0.247 OA
HETATM    5  N   UNL     1      25.482  45.746  50.082  1.00  0.00    -0.265 N 
HETATM    6  C   UNL     1      24.630  44.693  50.277  1.00  0.00     0.263 A 
HETATM    7  O   UNL     1      23.464  44.772  50.640  1.00  0.00    -0.270 OA
HETATM    8  H   UNL     1      27.249  43.485  48.979  1.00  0.00     0.166 HD
ENDROOT
BRANCH   1   9
HETATM    9  C   UNL     1      25.431  42.531  51.381  1.00  0.00     0.033 C 
HETATM   10  C   UNL     1      25.186  43.329  52.676  1.00  0.00     0.036 C 
HETATM   11  C   UNL     1      26.337  44.240  53.076  1.00  0.00     0.235 C 
HETATM   12  N   UNL     1      27.660  43.515  53.103  1.00  0.00    -0.067 N 
HETATM   13  H   UNL     1      27.658  42.965  53.969  1.00  0.00     0.280 HD
HETATM   14  C   UNL     1      27.929  42.559  51.961  1.00  0.00     0.235 C 
HETATM   15  C   UNL     1      26.711  41.711  51.626  1.00  0.00     0.036 C 
BRANCH  12  16
HETATM   16  C   UNL     1      28.839  44.488  53.221  1.00  0.00     0.274 C 
BRANCH  16  17
HETATM   17  C   UNL     1      29.327  44.736  54.627  1.00  0.00    -0.026 A 
HETATM   18  C   UNL     1      30.253  43.823  55.179  1.00  0.00     0.016 A 
HETATM   19  C   UNL     1      30.789  44.008  56.456  1.00  0.00    -0.061 A 
HETATM   20  C   UNL     1      31.792  43.046  57.025  1.00  0.00     0.048 C 
HETATM   21  C   UNL     1      30.386  45.118  57.199  1.00  0.00     0.007 A 
HETATM   22  C   UNL     1      29.457  46.019  56.676  1.00  0.00     0.008 A 
HETATM   23  C   UNL     1      28.925  45.852  55.388  1.00  0.00    -0.054 A 
HETATM   24  C   UNL     1      27.882  46.826  54.912  1.00  0.00     0.049 C 
ENDBRANCH  16  17
ENDBRANCH  12  16
ENDBRANCH   1   9
BRANCH   1  25
HETATM   25  C   UNL     1      24.900  42.563  48.866  1.00  0.00     0.072 A 
HETATM   26  N   UNL     1      24.124  43.263  47.982  1.00  0.00    -0.262 NA
HETATM   27  C   UNL     1      23.649  42.596  46.903  1.00  0.00     0.117 A 
HETATM   28  C   UNL     1      23.909  41.264  46.647  1.00  0.00     0.019 A 
HETATM   29  C   UNL     1      24.709  40.570  47.546  1.00  0.00     0.003 A 
HETATM   30  C   UNL     1      25.220  41.223  48.665  1.00  0.00     0.030 A 
ENDBRANCH   1  25
BRANCH   5  31
HETATM   31  C   UNL     1      25.147  47.140  50.298  1.00  0.00     0.168 C 
BRANCH  31  32
HETATM   32  C   UNL     1      24.556  47.845  49.077  1.00  0.00     0.140 C 
HETATM   33  O   UNL     1      25.245  49.096  48.885  1.00  0.00    -0.384 OA
HETATM   34  C   UNL     1      24.273  50.125  48.652  1.00  0.00     0.168 C 
HETATM   35  C   UNL     1      22.969  49.419  48.348  1.00  0.00     0.029 C 
HETATM   36  C   UNL     1      23.079  48.185  49.208  1.00  0.00     0.036 C 
ENDBRANCH  31  32
ENDBRANCH   5  31
TORSDOF 6
ENDMDL
MODEL 4
REMARK VINA RESULT:      -8.7      2.317      3.344
REMARK  6 active torsions:
REMARK  status: ('A' for Active; 'I' for Inactive)
REMARK    1  A    between atoms: C_4  and  C_5 
REMARK    2  A    between atoms: C_5  and  N_6 
REMARK    3  A    between atoms: C_10  and  C_11 
REMARK    4  A    between atoms: C_11  and  C_12 
REMARK    5  A    between atoms: N_21  and  C_22 
REMARK    6  A    between atoms: C_22  and  C_23 
ROOT
HETATM    1  C   UNL     1      25.760  42.579  49.703  1.00  0.00     0.164 A 
HETATM    2  N   UNL     1      26.644  43.736  49.717  1.00  0.00    -0.319 N 
HETATM    3  C   UNL     1      25.988  44.895  49.375  1.00  0.00     0.326 A 
HETATM    4  O   UNL     1      26.559  45.964  49.257  1.00  0.00    -0.247 OA
HETATM    5  N   UNL     1      24.665  44.635  49.250  1.00  0.00    -0.265 N 
HETATM    6  C   UNL     1      24.432  43.292  49.366  1.00  0.00     0.263 A 
HETATM    7  O   UNL     1      23.340  42.745  49.288  1.00  0.00    -0.270 OA
HETATM    8  H   UNL     1      27.575  43.642  49.316  1.00  0.00     0.166 HD
ENDROOT
BRANCH   1   9
HETATM    9  C   UNL     1      25.659  41.880  51.108  1.00  0.00     0.033 C 
HETATM   10  C   UNL     1      25.356  42.818  52.292  1.00  0.00     0.036 C 
HETATM   11  C   UNL     1      26.512  43.728  52.680  1.00  0.00     0.235 C 
HETATM   12  N   UNL     1      27.800  42.967  52.880  1.00  0.00    -0.067 N 
HETATM   13  H   UNL     1      27.714  42.511  53.796  1.00  0.00     0.280 HD
HETATM   14  C   UNL     1      28.109  41.886  51.866  1.00  0.00     0.235 C 
HETATM   15  C   UNL     1      26.885  41.048  51.530  1.00  0.00     0.036 C 
BRANCH  12  16
HETATM   16  C   UNL     1      29.006  43.907  52.985  1.00  0.00     0.274 C 
BRANCH  16  17
HETATM   17  C   UNL     1      29.393  44.300  54.389  1.00  0.00    -0.026 A 
HETATM   18  C   UNL     1      30.372  43.525  55.049  1.00  0.00     0.016 A 
HETATM   19  C   UNL     1      30.819  43.850  56.332  1.00  0.00    -0.061 A 
HETATM   20  C   UNL     1      31.878  43.035  57.016  1.00  0.00     0.048 C 
HETATM   21  C   UNL     1      30.273  44.964  56.971  1.00  0.00     0.007 A 
HETATM   22  C   UNL     1      29.290  45.729  56.341  1.00  0.00     0.008 A 
HETATM   23  C   UNL     1      28.846  45.420  55.045  1.00  0.00    -0.054 A 
HETATM   24  C   UNL     1      27.741  46.251  54.451  1.00  0.00     0.049 C 
ENDBRANCH  16  17
ENDBRANCH  12  16
ENDBRANCH   1   9
BRANCH   1  25
HETATM   25  C   UNL     1      26.233  41.620  48.616  1.00  0.00     0.072 A 
HETATM   26  N   UNL     1      27.523  41.814  48.201  1.00  0.00    -0.262 NA
HETATM   27  C   UNL     1      28.001  40.990  47.238  1.00  0.00     0.117 A 
HETATM   28  C   UNL     1      27.266  39.971  46.664  1.00  0.00     0.019 A 
HETATM   29  C   UNL     1      25.963  39.778  47.104  1.00  0.00     0.003 A 
HETATM   30  C   UNL     1      25.438  40.601  48.097  1.00  0.00     0.030 A 
ENDBRANCH   1  25
BRANCH   5  31
HETATM   31  C   UNL     1      23.645  45.643  49.039  1.00  0.00     0.168 C 
BRANCH  31  32
HETATM   32  C   UNL     1      22.571  45.252  48.025  1.00  0.00     0.140 C 
HETATM   33  O   UNL     1      22.596  46.195  46.936  1.00  0.00    -0.384 OA
HETATM   34  C   UNL     1      21.250  46.597  46.645  1.00  0.00     0.168 C 
HETATM   35  C   UNL     1      20.348  45.607  47.348  1.00  0.00     0.029 C 
HETATM   36  C   UNL     1      21.154  45.274  48.578  1.00  0.00     0.036 C 
ENDBRANCH  31  32
ENDBRANCH   5  31
TORSDOF 6
ENDMDL
MODEL 5
REMARK VINA RESULT:      -8.5      5.705      9.867
REMARK  6 active torsions:
REMARK  status: ('A' for Active; 'I' for Inactive)
REMARK    1  A    between atoms: C_4  and  C_5 
REMARK    2  A    between atoms: C_5  and  N_6 
REMARK    3  A    between atoms: C_10  and  C_11 
REMARK    4  A    between atoms: C_11  and  C_12 
REMARK    5  A    between atoms: N_21  and  C_22 
REMARK    6  A    between atoms: C_22  and  C_23 
ROOT
HETATM    1  C   UNL     1      18.394  47.295  47.107  1.00  0.00     0.164 A 
HETATM    2  N   UNL     1      19.313  48.261  46.522  1.00  0.00    -0.319 N 
HETATM    3  C   UNL     1      18.709  49.472  46.279  1.00  0.00     0.326 A 
HETATM    4  O   UNL     1      19.283  50.394  45.728  1.00  0.00    -0.247 OA
HETATM    5  N   UNL     1      17.453  49.450  46.783  1.00  0.00    -0.265 N 
HETATM    6  C   UNL     1      17.146  48.197  47.240  1.00  0.00     0.263 A 
HETATM    7  O   UNL     1      16.083  47.858  47.741  1.00  0.00    -0.270 OA
HETATM    8  H   UNL     1      19.945  47.948  45.788  1.00  0.00     0.166 HD
ENDROOT
BRANCH   1   9
HETATM    9  C   UNL     1      18.859  46.801  48.525  1.00  0.00     0.033 C 
HETATM   10  C   UNL     1      19.169  47.915  49.543  1.00  0.00     0.036 C 
HETATM   11  C   UNL     1      20.443  48.693  49.250  1.00  0.00     0.235 C 
HETATM   12  N   UNL     1      21.630  47.788  49.027  1.00  0.00    -0.067 N 
HETATM   13  H   UNL     1      21.916  47.470  49.960  1.00  0.00     0.280 HD
HETATM   14  C   UNL     1      21.389  46.555  48.182  1.00  0.00     0.235 C 
HETATM   15  C   UNL     1      20.082  45.864  48.539  1.00  0.00     0.036 C 
BRANCH  12  16
HETATM   16  C   UNL     1      22.829  48.553  48.454  1.00  0.00     0.274 C 
BRANCH  16  17
HETATM   17  C   UNL     1      24.138  48.319  49.166  1.00  0.00    -0.026 A 
HETATM   18  C   UNL     1      24.173  47.346  50.189  1.00  0.00     0.016 A 
HETATM   19  C   UNL     1      25.356  47.037  50.864  1.00  0.00    -0.061 A 
HETATM   20  C   UNL     1      25.388  45.983  51.934  1.00  0.00     0.048 C 
HETATM   21  C   UNL     1      26.524  47.717  50.519  1.00  0.00     0.007 A 
HETATM   22  C   UNL     1      26.503  48.696  49.523  1.00  0.00     0.008 A 
HETATM   23  C   UNL     1      25.323  49.002  48.827  1.00  0.00    -0.054 A 
HETATM   24  C   UNL     1      25.360  50.110  47.810  1.00  0.00     0.049 C 
ENDBRANCH  16  17
ENDBRANCH  12  16
ENDBRANCH   1   9
BRANCH   1  25
HETATM   25  C   UNL     1      18.212  46.142  46.127  1.00  0.00     0.072 A 
HETATM   26  N   UNL     1      19.068  46.157  45.059  1.00  0.00    -0.262 NA
HETATM   27  C   UNL     1      18.957  45.156  44.153  1.00  0.00     0.117 A 
HETATM   28  C   UNL     1      18.041  44.127  44.255  1.00  0.00     0.019 A 
HETATM   29  C   UNL     1      17.188  44.116  45.351  1.00  0.00     0.003 A 
HETATM   30  C   UNL     1      17.276  45.126  46.306  1.00  0.00     0.030 A 
ENDBRANCH   1  25
BRANCH   5  31
HETATM   31  C   UNL     1      16.569  50.597  46.839  1.00  0.00     0.168 C 
BRANCH  31  32
HETATM   32  C   UNL     1      16.905  51.600  47.943  1.00  0.00     0.140 C 
HETATM   33  O   UNL     1      18.044  52.380  47.530  1.00  0.00    -0.384 OA
HETATM   34  C   UNL     1      18.974  52.448  48.620  1.00  0.00     0.168 C 
HETATM   35  C   UNL     1      18.224  51.987  49.851  1.00  0.00     0.029 C 
HETATM   36  C   UNL     1      17.283  50.961  49.272  1.00  0.00     0.036 C 
ENDBRANCH  31  32
ENDBRANCH   5  31
TORSDOF 6
ENDMDL
MODEL 6
REMARK VINA RESULT:      -8.5     12.460     14.378
REMARK  6 active torsions:
REMARK  status: ('A' for Active; 'I' for Inactive)
REMARK    1  A    between atoms: C_4  and  C_5 
REMARK    2  A    between atoms: C_5  and  N_6 
REMARK    3  A    between atoms: C_10  and  C_11 
REMARK    4  A    between atoms: C_11  and  C_12 
REMARK    5  A    between atoms: N_21  and  C_22 
REMARK    6  A    between atoms: C_22  and  C_23 
ROOT
HETATM    1  C   UNL     1      28.646  49.796  39.387  1.00  0.00     0.164 A 
HETATM    2  N   UNL     1      28.307  48.846  40.437  1.00  0.00    -0.319 N 
HETATM    3  C   UNL     1      27.009  48.404  40.338  1.00  0.00     0.326 A 
HETATM    4  O   UNL     1      26.503  47.660  41.160  1.00  0.00    -0.247 OA
HETATM    5  N   UNL     1      26.461  48.889  39.200  1.00  0.00    -0.265 N 
HETATM    6  C   UNL     1      27.319  49.767  38.596  1.00  0.00     0.263 A 
HETATM    7  O   UNL     1      27.106  50.378  37.557  1.00  0.00    -0.270 OA
HETATM    8  H   UNL     1      28.616  49.041  41.388  1.00  0.00     0.166 HD
ENDROOT
BRANCH   1   9
HETATM    9  C   UNL     1      29.829  49.295  38.481  1.00  0.00     0.033 C 
HETATM   10  C   UNL     1      30.228  47.820  38.672  1.00  0.00     0.036 C 
HETATM   11  C   UNL     1      30.938  47.529  39.986  1.00  0.00     0.235 C 
HETATM   12  N   UNL     1      32.098  48.463  40.231  1.00  0.00    -0.067 N 
HETATM   13  H   UNL     1      32.857  48.127  39.627  1.00  0.00     0.280 HD
HETATM   14  C   UNL     1      31.870  49.923  39.900  1.00  0.00     0.235 C 
HETATM   15  C   UNL     1      31.136  50.103  38.581  1.00  0.00     0.036 C 
BRANCH  12  16
HETATM   16  C   UNL     1      32.621  48.357  41.668  1.00  0.00     0.274 C 
BRANCH  16  17
HETATM   17  C   UNL     1      33.156  49.640  42.253  1.00  0.00    -0.026 A 
HETATM   18  C   UNL     1      32.352  50.329  43.187  1.00  0.00     0.016 A 
HETATM   19  C   UNL     1      32.794  51.499  43.810  1.00  0.00    -0.061 A 
HETATM   20  C   UNL     1      31.942  52.211  44.821  1.00  0.00     0.048 C 
HETATM   21  C   UNL     1      34.058  51.995  43.487  1.00  0.00     0.007 A 
HETATM   22  C   UNL     1      34.857  51.337  42.551  1.00  0.00     0.008 A 
HETATM   23  C   UNL     1      34.429  50.152  41.932  1.00  0.00    -0.054 A 
HETATM   24  C   UNL     1      35.315  49.529  40.888  1.00  0.00     0.049 C 
ENDBRANCH  16  17
ENDBRANCH  12  16
ENDBRANCH   1   9
BRANCH   1  25
HETATM   25  C   UNL     1      28.945  51.145  40.030  1.00  0.00     0.072 A 
HETATM   26  N   UNL     1      29.195  51.097  41.375  1.00  0.00    -0.262 NA
HETATM   27  C   UNL     1      29.470  52.265  42.003  1.00  0.00     0.117 A 
HETATM   28  C   UNL     1      29.519  53.488  41.363  1.00  0.00     0.019 A 
HETATM   29  C   UNL     1      29.276  53.521  39.996  1.00  0.00     0.003 A 
HETATM   30  C   UNL     1      28.995  52.339  39.315  1.00  0.00     0.030 A 
ENDBRANCH   1  25
BRANCH   5  31
HETATM   31  C   UNL     1      25.155  48.517  38.692  1.00  0.00     0.168 C 
BRANCH  31  32
HETATM   32  C   UNL     1      24.003  49.367  39.228  1.00  0.00     0.140 C 
HETATM   33  O   UNL     1      23.172  48.544  40.070  1.00  0.00    -0.384 OA
HETATM   34  C   UNL     1      21.799  48.768  39.719  1.00  0.00     0.168 C 
HETATM   35  C   UNL     1      21.773  50.024  38.875  1.00  0.00     0.029 C 
HETATM   36  C   UNL     1      23.092  49.935  38.150  1.00  0.00     0.036 C 
ENDBRANCH  31  32
ENDBRANCH   5  31
TORSDOF 6
ENDMDL
MODEL 7
REMARK VINA RESULT:      -8.5     15.497     18.397
REMARK  6 active torsions:
REMARK  status: ('A' for Active; 'I' for Inactive)
REMARK    1  A    between atoms: C_4  and  C_5 
REMARK    2  A    between atoms: C_5  and  N_6 
REMARK    3  A    between atoms: C_10  and  C_11 
REMARK    4  A    between atoms: C_11  and  C_12 
REMARK    5  A    between atoms: N_21  and  C_22 
REMARK    6  A    between atoms: C_22  and  C_23 
ROOT
HETATM    1  C   UNL     1      38.805  45.533  64.982  1.00  0.00     0.164 A 
HETATM    2  N   UNL     1      38.969  44.980  66.319  1.00  0.00    -0.319 N 
HETATM    3  C   UNL     1      37.948  44.123  66.656  1.00  0.00     0.326 A 
HETATM    4  O   UNL     1      37.858  43.609  67.756  1.00  0.00    -0.247 OA
HETATM    5  N   UNL     1      37.147  43.944  65.580  1.00  0.00    -0.265 N 
HETATM    6  C   UNL     1      37.528  44.772  64.560  1.00  0.00     0.263 A 
HETATM    7  O   UNL     1      36.993  44.850  63.463  1.00  0.00    -0.270 OA
HETATM    8  H   UNL     1      39.266  45.601  67.069  1.00  0.00     0.166 HD
ENDROOT
BRANCH   1   9
HETATM    9  C   UNL     1      39.997  45.165  64.026  1.00  0.00     0.033 C 
HETATM   10  C   UNL     1      39.799  43.889  63.187  1.00  0.00     0.036 C 
HETATM   11  C   UNL     1      39.870  42.597  63.987  1.00  0.00     0.235 C 
HETATM   12  N   UNL     1      41.108  42.520  64.847  1.00  0.00    -0.067 N 
HETATM   13  H   UNL     1      41.876  42.287  64.207  1.00  0.00     0.280 HD
HETATM   14  C   UNL     1      41.499  43.786  65.580  1.00  0.00     0.235 C 
HETATM   15  C   UNL     1      41.374  45.020  64.700  1.00  0.00     0.036 C 
BRANCH  12  16
HETATM   16  C   UNL     1      41.031  41.368  65.854  1.00  0.00     0.274 C 
BRANCH  16  17
HETATM   17  C   UNL     1      41.474  40.025  65.329  1.00  0.00    -0.026 A 
HETATM   18  C   UNL     1      42.860  39.760  65.270  1.00  0.00     0.016 A 
HETATM   19  C   UNL     1      43.350  38.525  64.840  1.00  0.00    -0.061 A 
HETATM   20  C   UNL     1      44.825  38.244  64.804  1.00  0.00     0.048 C 
HETATM   21  C   UNL     1      42.442  37.540  64.453  1.00  0.00     0.007 A 
HETATM   22  C   UNL     1      41.069  37.792  64.486  1.00  0.00     0.008 A 
HETATM   23  C   UNL     1      40.566  39.024  64.932  1.00  0.00    -0.054 A 
HETATM   24  C   UNL     1      39.079  39.249  64.884  1.00  0.00     0.049 C 
ENDBRANCH  16  17
ENDBRANCH  12  16
ENDBRANCH   1   9
BRANCH   1  25
HETATM   25  C   UNL     1      38.606  47.040  65.102  1.00  0.00     0.072 A 
HETATM   26  N   UNL     1      37.397  47.421  65.617  1.00  0.00    -0.262 NA
HETATM   27  C   UNL     1      37.163  48.748  65.750  1.00  0.00     0.117 A 
HETATM   28  C   UNL     1      38.074  49.727  65.404  1.00  0.00     0.019 A 
HETATM   29  C   UNL     1      39.302  49.327  64.894  1.00  0.00     0.003 A 
HETATM   30  C   UNL     1      39.581  47.970  64.748  1.00  0.00     0.030 A 
ENDBRANCH   1  25
BRANCH   5  31
HETATM   31  C   UNL     1      36.052  42.995  65.519  1.00  0.00     0.168 C 
BRANCH  31  32
HETATM   32  C   UNL     1      34.725  43.528  66.058  1.00  0.00     0.140 C 
HETATM   33  O   UNL     1      34.743  43.447  67.497  1.00  0.00    -0.384 OA
HETATM   34  C   UNL     1      33.502  42.880  67.940  1.00  0.00     0.168 C 
HETATM   35  C   UNL     1      32.559  42.938  66.758  1.00  0.00     0.029 C 
HETATM   36  C   UNL     1      33.505  42.742  65.600  1.00  0.00     0.036 C 
ENDBRANCH  31  32
ENDBRANCH   5  31
TORSDOF 6
ENDMDL
MODEL 8
REMARK VINA RESULT:      -8.5      3.034      8.088
REMARK  6 active torsions:
REMARK  status: ('A' for Active; 'I' for Inactive)
REMARK    1  A    between atoms: C_4  and  C_5 
REMARK    2  A    between atoms: C_5  and  N_6 
REMARK    3  A    between atoms: C_10  and  C_11 
REMARK    4  A    between atoms: C_11  and  C_12 
REMARK    5  A    between atoms: N_21  and  C_22 
REMARK    6  A    between atoms: C_22  and  C_23 
ROOT
HETATM    1  C   UNL     1      24.149  44.617  49.703  1.00  0.00     0.164 A 
HETATM    2  N   UNL     1      25.375  44.880  48.961  1.00  0.00    -0.319 N 
HETATM    3  C   UNL     1      26.395  45.307  49.778  1.00  0.00     0.326 A 
HETATM    4  O   UNL     1      27.482  45.649  49.349  1.00  0.00    -0.247 OA
HETATM    5  N   UNL     1      25.991  45.232  51.068  1.00  0.00    -0.265 N 
HETATM    6  C   UNL     1      24.667  44.893  51.133  1.00  0.00     0.263 A 
HETATM    7  O   UNL     1      24.011  44.758  52.157  1.00  0.00    -0.270 OA
HETATM    8  H   UNL     1      25.309  45.373  48.073  1.00  0.00     0.166 HD
ENDROOT
BRANCH   1   9
HETATM    9  C   UNL     1      23.676  43.124  49.577  1.00  0.00     0.033 C 
HETATM   10  C   UNL     1      24.290  42.148  50.599  1.00  0.00     0.036 C 
HETATM   11  C   UNL     1      25.761  41.840  50.364  1.00  0.00     0.235 C 
HETATM   12  N   UNL     1      26.039  41.416  48.942  1.00  0.00    -0.067 N 
HETATM   13  H   UNL     1      25.718  40.443  48.875  1.00  0.00     0.280 HD
HETATM   14  C   UNL     1      25.337  42.199  47.855  1.00  0.00     0.235 C 
HETATM   15  C   UNL     1      23.880  42.473  48.195  1.00  0.00     0.036 C 
BRANCH  12  16
HETATM   16  C   UNL     1      27.542  41.388  48.640  1.00  0.00     0.274 C 
BRANCH  16  17
HETATM   17  C   UNL     1      28.158  40.013  48.574  1.00  0.00    -0.026 A 
HETATM   18  C   UNL     1      28.764  39.500  49.743  1.00  0.00     0.016 A 
HETATM   19  C   UNL     1      29.315  38.217  49.777  1.00  0.00    -0.061 A 
HETATM   20  C   UNL     1      29.935  37.671  51.031  1.00  0.00     0.048 C 
HETATM   21  C   UNL     1      29.269  37.434  48.623  1.00  0.00     0.007 A 
HETATM   22  C   UNL     1      28.691  37.933  47.454  1.00  0.00     0.008 A 
HETATM   23  C   UNL     1      28.119  39.215  47.414  1.00  0.00    -0.054 A 
HETATM   24  C   UNL     1      27.569  39.711  46.104  1.00  0.00     0.049 C 
ENDBRANCH  16  17
ENDBRANCH  12  16
ENDBRANCH   1   9
BRANCH   1  25
HETATM   25  C   UNL     1      23.081  45.601  49.240  1.00  0.00     0.072 A 
HETATM   26  N   UNL     1      23.444  46.919  49.311  1.00  0.00    -0.262 NA
HETATM   27  C   UNL     1      22.537  47.841  48.910  1.00  0.00     0.117 A 
HETATM   28  C   UNL     1      21.281  47.524  48.430  1.00  0.00     0.019 A 
HETATM   29  C   UNL     1      20.930  46.183  48.351  1.00  0.00     0.003 A 
HETATM   30  C   UNL     1      21.839  45.206  48.749  1.00  0.00     0.030 A 
ENDBRANCH   1  25
BRANCH   5  31
HETATM   31  C   UNL     1      26.849  45.464  52.213  1.00  0.00     0.168 C 
BRANCH  31  32
HETATM   32  C   UNL     1      27.383  44.192  52.870  1.00  0.00     0.140 C 
HETATM   33  O   UNL     1      27.822  44.510  54.206  1.00  0.00    -0.384 OA
HETATM   34  C   UNL     1      29.110  43.916  54.420  1.00  0.00     0.168 C 
HETATM   35  C   UNL     1      29.310  42.916  53.302  1.00  0.00     0.029 C 
HETATM   36  C   UNL     1      28.582  43.580  52.161  1.00  0.00     0.036 C 
ENDBRANCH  31  32
ENDBRANCH   5  31
TORSDOF 6
ENDMDL
MODEL 9
REMARK VINA RESULT:      -8.5     12.739     16.448
REMARK  6 active torsions:
REMARK  status: ('A' for Active; 'I' for Inactive)
REMARK    1  A    between atoms: C_4  and  C_5 
REMARK    2  A    between atoms: C_5  and  N_6 
REMARK    3  A    between atoms: C_10  and  C_11 
REMARK    4  A    between atoms: C_11  and  C_12 
REMARK    5  A    between atoms: N_21  and  C_22 
REMARK    6  A    between atoms: C_22  and  C_23 
ROOT
HETATM    1  C   UNL     1      33.153  50.480  41.649  1.00  0.00     0.164 A 
HETATM    2  N   UNL     1      34.073  50.122  40.579  1.00  0.00    -0.319 N 
HETATM    3  C   UNL     1      35.354  50.557  40.828  1.00  0.00     0.326 A 
HETATM    4  O   UNL     1      36.261  50.423  40.027  1.00  0.00    -0.247 OA
HETATM    5  N   UNL     1      35.408  51.083  42.073  1.00  0.00    -0.265 N 
HETATM    6  C   UNL     1      34.156  51.140  42.621  1.00  0.00     0.263 A 
HETATM    7  O   UNL     1      33.878  51.576  43.730  1.00  0.00    -0.270 OA
HETATM    8  H   UNL     1      33.767  50.238  39.615  1.00  0.00     0.166 HD
ENDROOT
BRANCH   1   9
HETATM    9  C   UNL     1      32.493  49.222  42.322  1.00  0.00     0.033 C 
HETATM   10  C   UNL     1      32.578  47.917  41.509  1.00  0.00     0.036 C 
HETATM   11  C   UNL     1      31.687  47.888  40.276  1.00  0.00     0.235 C 
HETATM   12  N   UNL     1      30.259  48.264  40.591  1.00  0.00    -0.067 N 
HETATM   13  H   UNL     1      29.847  47.436  41.036  1.00  0.00     0.280 HD
HETATM   14  C   UNL     1      30.061  49.430  41.535  1.00  0.00     0.235 C 
HETATM   15  C   UNL     1      31.013  49.376  42.720  1.00  0.00     0.036 C 
BRANCH  12  16
HETATM   16  C   UNL     1      29.443  48.512  39.318  1.00  0.00     0.274 C 
BRANCH  16  17
HETATM   17  C   UNL     1      27.946  48.429  39.489  1.00  0.00    -0.026 A 
HETATM   18  C   UNL     1      27.410  47.264  40.082  1.00  0.00     0.016 A 
HETATM   19  C   UNL     1      26.040  47.129  40.318  1.00  0.00    -0.061 A 
HETATM   20  C   UNL     1      25.483  45.897  40.972  1.00  0.00     0.048 C 
HETATM   21  C   UNL     1      25.189  48.170  39.948  1.00  0.00     0.007 A 
HETATM   22  C   UNL     1      25.700  49.320  39.343  1.00  0.00     0.008 A 
HETATM   23  C   UNL     1      27.076  49.473  39.116  1.00  0.00    -0.054 A 
HETATM   24  C   UNL     1      27.551  50.710  38.404  1.00  0.00     0.049 C 
ENDBRANCH  16  17
ENDBRANCH  12  16
ENDBRANCH   1   9
BRANCH   1  25
HETATM   25  C   UNL     1      32.114  51.447  41.092  1.00  0.00     0.072 A 
HETATM   26  N   UNL     1      31.667  52.385  41.983  1.00  0.00    -0.262 NA
HETATM   27  C   UNL     1      30.745  53.275  41.547  1.00  0.00     0.117 A 
HETATM   28  C   UNL     1      30.242  53.290  40.260  1.00  0.00     0.019 A 
HETATM   29  C   UNL     1      30.714  52.342  39.362  1.00  0.00     0.003 A 
HETATM   30  C   UNL     1      31.667  51.413  39.774  1.00  0.00     0.030 A 
ENDBRANCH   1  25
BRANCH   5  31
HETATM   31  C   UNL     1      36.627  51.511  42.733  1.00  0.00     0.168 C 
BRANCH  31  32
HETATM   32  C   UNL     1      36.715  53.016  42.982  1.00  0.00     0.140 C 
HETATM   33  O   UNL     1      36.547  53.705  41.727  1.00  0.00    -0.384 OA
HETATM   34  C   UNL     1      37.560  54.715  41.619  1.00  0.00     0.168 C 
HETATM   35  C   UNL     1      38.148  54.880  43.004  1.00  0.00     0.029 C 
HETATM   36  C   UNL     1      38.049  53.478  43.549  1.00  0.00     0.036 C 
ENDBRANCH  31  32
ENDBRANCH   5  31
TORSDOF 6
ENDMDL
MODEL 10
REMARK VINA RESULT:      -8.4      3.797      8.498
REMARK  6 active torsions:
REMARK  status: ('A' for Active; 'I' for Inactive)
REMARK    1  A    between atoms: C_4  and  C_5 
REMARK    2  A    between atoms: C_5  and  N_6 
REMARK    3  A    between atoms: C_10  and  C_11 
REMARK    4  A    between atoms: C_11  and  C_12 
REMARK    5  A    between atoms: N_21  and  C_22 
REMARK    6  A    between atoms: C_22  and  C_23 
ROOT
HETATM    1  C   UNL     1      25.819  44.274  50.993  1.00  0.00     0.164 A 
HETATM    2  N   UNL     1      27.237  43.968  50.863  1.00  0.00    -0.319 N 
HETATM    3  C   UNL     1      27.843  43.788  52.084  1.00  0.00     0.326 A 
HETATM    4  O   UNL     1      29.040  43.595  52.202  1.00  0.00    -0.247 OA
HETATM    5  N   UNL     1      26.901  43.821  53.055  1.00  0.00    -0.265 N 
HETATM    6  C   UNL     1      25.685  44.159  52.527  1.00  0.00     0.263 A 
HETATM    7  O   UNL     1      24.641  44.280  53.154  1.00  0.00    -0.270 OA
HETATM    8  H   UNL     1      27.789  44.496  50.190  1.00  0.00     0.166 HD
ENDROOT
BRANCH   1   9
HETATM    9  C   UNL     1      24.905  43.208  50.287  1.00  0.00     0.033 C 
HETATM   10  C   UNL     1      24.993  41.780  50.859  1.00  0.00     0.036 C 
HETATM   11  C   UNL     1      26.297  41.062  50.548  1.00  0.00     0.235 C 
HETATM   12  N   UNL     1      26.640  41.101  49.079  1.00  0.00    -0.067 N 
HETATM   13  H   UNL     1      26.030  40.406  48.633  1.00  0.00     0.280 HD
HETATM   14  C   UNL     1      26.416  42.420  48.370  1.00  0.00     0.235 C 
HETATM   15  C   UNL     1      25.097  43.066  48.765  1.00  0.00     0.036 C 
BRANCH  12  16
HETATM   16  C   UNL     1      28.076  40.636  48.816  1.00  0.00     0.274 C 
BRANCH  16  17
HETATM   17  C   UNL     1      28.220  39.559  47.770  1.00  0.00    -0.026 A 
HETATM   18  C   UNL     1      27.955  39.900  46.426  1.00  0.00     0.016 A 
HETATM   19  C   UNL     1      28.110  38.972  45.392  1.00  0.00    -0.061 A 
HETATM   20  C   UNL     1      27.849  39.352  43.962  1.00  0.00     0.048 C 
HETATM   21  C   UNL     1      28.530  37.680  45.707  1.00  0.00     0.007 A 
HETATM   22  C   UNL     1      28.778  37.321  47.033  1.00  0.00     0.008 A 
HETATM   23  C   UNL     1      28.640  38.249  48.077  1.00  0.00    -0.054 A 
HETATM   24  C   UNL     1      28.865  37.777  49.488  1.00  0.00     0.049 C 
ENDBRANCH  16  17
ENDBRANCH  12  16
ENDBRANCH   1   9
BRANCH   1  25
HETATM   25  C   UNL     1      25.576  45.683  50.462  1.00  0.00     0.072 A 
HETATM   26  N   UNL     1      26.705  46.354  50.077  1.00  0.00    -0.262 NA
HETATM   27  C   UNL     1      26.553  47.610  49.594  1.00  0.00     0.117 A 
HETATM   28  C   UNL     1      25.330  48.240  49.464  1.00  0.00     0.019 A 
HETATM   29  C   UNL     1      24.191  47.542  49.846  1.00  0.00     0.003 A 
HETATM   30  C   UNL     1      24.308  46.246  50.342  1.00  0.00     0.030 A 
ENDBRANCH   1  25
BRANCH   5  31
HETATM   31  C   UNL     1      27.150  43.524  54.453  1.00  0.00     0.168 C 
BRANCH  31  32
HETATM   32  C   UNL     1      27.560  44.735  55.292  1.00  0.00     0.140 C 
HETATM   33  O   UNL     1      26.923  45.910  54.752  1.00  0.00    -0.384 OA
HETATM   34  C   UNL     1      27.899  46.956  54.654  1.00  0.00     0.168 C 
HETATM   35  C   UNL     1      29.085  46.513  55.482  1.00  0.00     0.029 C 
HETATM   36  C   UNL     1      29.054  45.018  55.289  1.00  0.00     0.036 C 
ENDBRANCH  31  32
ENDBRANCH   5  31
TORSDOF 6
ENDMDL
