MODEL 1
REMARK VINA RESULT:      -8.3      0.000      0.000
REMARK  3 active torsions:
REMARK  status: ('A' for Active; 'I' for Inactive)
REMARK    1  A    between atoms: C_2  and  N_3 
REMARK    2  A    between atoms: N_3  and  C_4 
REMARK    3  A    between atoms: C_12  and  C_13 
ROOT
HETATM    1  C   UNL     1      26.890  43.551  52.388  1.00  0.00     0.139 A 
HETATM    2  N   UNL     1      26.591  42.917  51.233  1.00  0.00    -0.224 NA
HETATM    3  C   UNL     1      25.950  43.575  50.261  1.00  0.00     0.236 A 
HETATM    4  N   UNL     1      25.550  44.844  50.274  1.00  0.00    -0.234 NA
HETATM    5  C   UNL     1      25.883  45.469  51.414  1.00  0.00     0.113 A 
HETATM    6  C   UNL     1      26.553  44.924  52.504  1.00  0.00     0.055 A 
HETATM    7  S   UNL     1      25.477  47.107  51.622  1.00  0.00    -0.081 SA
HETATM    8  C   UNL     1      26.217  47.154  53.152  1.00  0.00     0.062 A 
HETATM    9  C   UNL     1      26.779  45.942  53.525  1.00  0.00    -0.003 A 
ENDROOT
BRANCH   9  10
HETATM   10  C   UNL     1      27.527  45.781  54.829  1.00  0.00     0.188 C 
HETATM   11  O   UNL     1      28.881  45.342  54.610  1.00  0.00    -0.336 OA
HETATM   12  C   UNL     1      29.551  45.258  55.806  1.00  0.00     0.103 A 
HETATM   13  C   UNL     1      29.137  45.935  56.960  1.00  0.00     0.102 A 
HETATM   14  C   UNL     1      30.685  44.450  55.837  1.00  0.00     0.040 A 
HETATM   15  O   UNL     1      28.038  46.755  57.005  1.00  0.00    -0.345 OA
HETATM   16  C   UNL     1      29.837  45.766  58.153  1.00  0.00     0.039 A 
HETATM   17  C   UNL     1      27.526  47.044  55.694  1.00  0.00     0.213 C 
HETATM   18  C   UNL     1      30.961  44.941  58.190  1.00  0.00     0.003 A 
HETATM   19  C   UNL     1      31.387  44.287  57.032  1.00  0.00     0.003 A 
ENDBRANCH   9  10
BRANCH   1  20
HETATM   20  N   UNL     1      27.520  42.863  53.416  1.00  0.00    -0.366 N 
HETATM   21  H   UNL     1      26.837  42.369  53.991  1.00  0.00     0.162 HD
BRANCH  20  22
HETATM   22  C   UNL     1      28.790  42.139  53.259  1.00  0.00     0.021 C 
HETATM   23  C   UNL     1      29.853  43.011  52.574  1.00  0.00     0.037 C 
HETATM   24  C   UNL     1      28.598  40.806  52.524  1.00  0.00     0.037 C 
HETATM   25  C   UNL     1      29.292  41.830  54.686  1.00  0.00     0.037 C 
ENDBRANCH  20  22
ENDBRANCH   1  20
TORSDOF 3
ENDMDL
MODEL 2
REMARK VINA RESULT:      -8.1     13.477     15.181
REMARK  3 active torsions:
REMARK  status: ('A' for Active; 'I' for Inactive)
REMARK    1  A    between atoms: C_2  and  N_3 
REMARK    2  A    between atoms: N_3  and  C_4 
REMARK    3  A    between atoms: C_12  and  C_13 
ROOT
HETATM    1  C   UNL     1      28.858  50.943  38.975  1.00  0.00     0.139 A 
HETATM    2  N   UNL     1      27.720  51.159  38.279  1.00  0.00    -0.224 NA
HETATM    3  C   UNL     1      26.854  50.155  38.095  1.00  0.00     0.236 A 
HETATM    4  N   UNL     1      26.964  48.905  38.535  1.00  0.00    -0.234 NA
HETATM    5  C   UNL     1      28.082  48.715  39.252  1.00  0.00     0.113 A 
HETATM    6  C   UNL     1      29.066  49.656  39.535  1.00  0.00     0.055 A 
HETATM    7  S   UNL     1      28.401  47.185  39.920  1.00  0.00    -0.081 SA
HETATM    8  C   UNL     1      29.838  47.738  40.644  1.00  0.00     0.062 A 
HETATM    9  C   UNL     1      30.095  49.077  40.393  1.00  0.00    -0.003 A 
ENDROOT
BRANCH   9  10
HETATM   10  C   UNL     1      31.298  49.779  40.981  1.00  0.00     0.188 C 
HETATM   11  O   UNL     1      31.095  50.099  42.371  1.00  0.00    -0.336 OA
HETATM   12  C   UNL     1      32.224  50.683  42.892  1.00  0.00     0.103 A 
HETATM   13  C   UNL     1      33.490  50.550  42.308  1.00  0.00     0.102 A 
HETATM   14  C   UNL     1      32.063  51.440  44.049  1.00  0.00     0.040 A 
HETATM   15  O   UNL     1      33.729  49.814  41.175  1.00  0.00    -0.345 OA
HETATM   16  C   UNL     1      34.584  51.211  42.863  1.00  0.00     0.039 A 
HETATM   17  C   UNL     1      32.603  48.997  40.815  1.00  0.00     0.213 C 
HETATM   18  C   UNL     1      34.420  51.986  44.011  1.00  0.00     0.003 A 
HETATM   19  C   UNL     1      33.161  52.098  44.606  1.00  0.00     0.003 A 
ENDBRANCH   9  10
BRANCH   1  20
HETATM   20  N   UNL     1      29.779  51.969  39.136  1.00  0.00    -0.366 N 
HETATM   21  H   UNL     1      30.078  52.331  38.231  1.00  0.00     0.162 HD
BRANCH  20  22
HETATM   22  C   UNL     1      29.681  53.001  40.179  1.00  0.00     0.021 C 
HETATM   23  C   UNL     1      31.065  53.379  40.727  1.00  0.00     0.037 C 
HETATM   24  C   UNL     1      28.725  52.583  41.305  1.00  0.00     0.037 C 
HETATM   25  C   UNL     1      29.094  54.254  39.495  1.00  0.00     0.037 C 
ENDBRANCH  20  22
ENDBRANCH   1  20
TORSDOF 3
ENDMDL
MODEL 3
REMARK VINA RESULT:      -7.7      2.042      3.198
REMARK  3 active torsions:
REMARK  status: ('A' for Active; 'I' for Inactive)
REMARK    1  A    between atoms: C_2  and  N_3 
REMARK    2  A    between atoms: N_3  and  C_4 
REMARK    3  A    between atoms: C_12  and  C_13 
ROOT
HETATM    1  C   UNL     1      24.852  42.771  50.161  1.00  0.00     0.139 A 
HETATM    2  N   UNL     1      24.200  42.243  49.104  1.00  0.00    -0.224 NA
HETATM    3  C   UNL     1      23.513  43.043  48.280  1.00  0.00     0.236 A 
HETATM    4  N   UNL     1      23.383  44.364  48.362  1.00  0.00    -0.234 NA
HETATM    5  C   UNL     1      24.064  44.877  49.398  1.00  0.00     0.113 A 
HETATM    6  C   UNL     1      24.826  44.180  50.329  1.00  0.00     0.055 A 
HETATM    7  S   UNL     1      24.042  46.556  49.667  1.00  0.00    -0.081 SA
HETATM    8  C   UNL     1      25.080  46.411  51.006  1.00  0.00     0.062 A 
HETATM    9  C   UNL     1      25.457  45.102  51.267  1.00  0.00    -0.003 A 
ENDROOT
BRANCH   9  10
HETATM   10  C   UNL     1      26.413  44.758  52.386  1.00  0.00     0.188 C 
HETATM   11  O   UNL     1      27.677  44.294  51.876  1.00  0.00    -0.336 OA
HETATM   12  C   UNL     1      28.543  44.043  52.914  1.00  0.00     0.103 A 
HETATM   13  C   UNL     1      28.382  44.596  54.190  1.00  0.00     0.102 A 
HETATM   14  C   UNL     1      29.612  43.192  52.648  1.00  0.00     0.040 A 
HETATM   15  O   UNL     1      27.362  45.449  54.525  1.00  0.00    -0.345 OA
HETATM   16  C   UNL     1      29.271  44.260  55.209  1.00  0.00     0.039 A 
HETATM   17  C   UNL     1      26.643  45.910  53.369  1.00  0.00     0.213 C 
HETATM   18  C   UNL     1      30.332  43.391  54.949  1.00  0.00     0.003 A 
HETATM   19  C   UNL     1      30.505  42.861  53.669  1.00  0.00     0.003 A 
ENDBRANCH   9  10
BRANCH   1  20
HETATM   20  N   UNL     1      25.534  41.943  51.042  1.00  0.00    -0.366 N 
HETATM   21  H   UNL     1      24.890  41.516  51.708  1.00  0.00     0.162 HD
BRANCH  20  22
HETATM   22  C   UNL     1      26.641  41.059  50.645  1.00  0.00     0.021 C 
HETATM   23  C   UNL     1      27.575  41.746  49.638  1.00  0.00     0.037 C 
HETATM   24  C   UNL     1      26.132  39.714  50.112  1.00  0.00     0.037 C 
HETATM   25  C   UNL     1      27.459  40.787  51.926  1.00  0.00     0.037 C 
ENDBRANCH  20  22
ENDBRANCH   1  20
TORSDOF 3
ENDMDL
MODEL 4
REMARK VINA RESULT:      -7.7      3.163      6.562
REMARK  3 active torsions:
REMARK  status: ('A' for Active; 'I' for Inactive)
REMARK    1  A    between atoms: C_2  and  N_3 
REMARK    2  A    between atoms: N_3  and  C_4 
REMARK    3  A    between atoms: C_12  and  C_13 
ROOT
HETATM    1  C   UNL     1      27.905  43.507  52.708  1.00  0.00     0.139 A 
HETATM    2  N   UNL     1      28.920  42.914  53.372  1.00  0.00    -0.224 NA
HETATM    3  C   UNL     1      29.143  41.604  53.212  1.00  0.00     0.236 A 
HETATM    4  N   UNL     1      28.467  40.760  52.439  1.00  0.00    -0.234 NA
HETATM    5  C   UNL     1      27.483  41.369  51.760  1.00  0.00     0.113 A 
HETATM    6  C   UNL     1      27.137  42.715  51.814  1.00  0.00     0.055 A 
HETATM    7  S   UNL     1      26.510  40.465  50.699  1.00  0.00    -0.081 SA
HETATM    8  C   UNL     1      25.626  41.845  50.245  1.00  0.00     0.062 A 
HETATM    9  C   UNL     1      26.050  43.001  50.883  1.00  0.00    -0.003 A 
ENDROOT
BRANCH   9  10
HETATM   10  C   UNL     1      25.427  44.346  50.588  1.00  0.00     0.188 C 
HETATM   11  O   UNL     1      26.385  45.257  50.018  1.00  0.00    -0.336 OA
HETATM   12  C   UNL     1      25.778  46.451  49.708  1.00  0.00     0.103 A 
HETATM   13  C   UNL     1      24.394  46.579  49.536  1.00  0.00     0.102 A 
HETATM   14  C   UNL     1      26.607  47.562  49.574  1.00  0.00     0.040 A 
HETATM   15  O   UNL     1      23.516  45.530  49.642  1.00  0.00    -0.345 OA
HETATM   16  C   UNL     1      23.840  47.830  49.271  1.00  0.00     0.039 A 
HETATM   17  C   UNL     1      24.192  44.263  49.687  1.00  0.00     0.213 C 
HETATM   18  C   UNL     1      24.668  48.947  49.156  1.00  0.00     0.003 A 
HETATM   19  C   UNL     1      26.050  48.813  49.304  1.00  0.00     0.003 A 
ENDBRANCH   9  10
BRANCH   1  20
HETATM   20  N   UNL     1      27.643  44.856  52.898  1.00  0.00    -0.366 N 
HETATM   21  H   UNL     1      27.537  45.333  52.003  1.00  0.00     0.162 HD
BRANCH  20  22
HETATM   22  C   UNL     1      26.758  45.377  53.951  1.00  0.00     0.021 C 
HETATM   23  C   UNL     1      25.814  44.289  54.481  1.00  0.00     0.037 C 
HETATM   24  C   UNL     1      25.982  46.615  53.481  1.00  0.00     0.037 C 
HETATM   25  C   UNL     1      27.676  45.804  55.117  1.00  0.00     0.037 C 
ENDBRANCH  20  22
ENDBRANCH   1  20
TORSDOF 3
ENDMDL
MODEL 5
REMARK VINA RESULT:      -7.6      2.475      4.592
REMARK  3 active torsions:
REMARK  status: ('A' for Active; 'I' for Inactive)
REMARK    1  A    between atoms: C_2  and  N_3 
REMARK    2  A    between atoms: N_3  and  C_4 
REMARK    3  A    between atoms: C_12  and  C_13 
ROOT
HETATM    1  C   UNL     1      24.885  43.805  50.833  1.00  0.00     0.139 A 
HETATM    2  N   UNL     1      23.668  43.855  50.248  1.00  0.00    -0.224 NA
HETATM    3  C   UNL     1      23.250  42.829  49.498  1.00  0.00     0.236 A 
HETATM    4  N   UNL     1      23.902  41.699  49.240  1.00  0.00    -0.234 NA
HETATM    5  C   UNL     1      25.095  41.651  49.854  1.00  0.00     0.113 A 
HETATM    6  C   UNL     1      25.659  42.627  50.667  1.00  0.00     0.055 A 
HETATM    7  S   UNL     1      26.080  40.278  49.667  1.00  0.00    -0.081 SA
HETATM    8  C   UNL     1      27.270  40.922  50.696  1.00  0.00     0.062 A 
HETATM    9  C   UNL     1      26.943  42.175  51.194  1.00  0.00    -0.003 A 
ENDROOT
BRANCH   9  10
HETATM   10  C   UNL     1      27.843  42.905  52.164  1.00  0.00     0.188 C 
HETATM   11  O   UNL     1      27.098  43.445  53.271  1.00  0.00    -0.336 OA
HETATM   12  C   UNL     1      27.949  44.052  54.164  1.00  0.00     0.103 A 
HETATM   13  C   UNL     1      29.320  43.774  54.219  1.00  0.00     0.102 A 
HETATM   14  C   UNL     1      27.388  44.986  55.031  1.00  0.00     0.040 A 
HETATM   15  O   UNL     1      29.942  42.861  53.406  1.00  0.00    -0.345 OA
HETATM   16  C   UNL     1      30.133  44.463  55.116  1.00  0.00     0.039 A 
HETATM   17  C   UNL     1      29.000  42.049  52.687  1.00  0.00     0.213 C 
HETATM   18  C   UNL     1      29.575  45.414  55.972  1.00  0.00     0.003 A 
HETATM   19  C   UNL     1      28.203  45.672  55.932  1.00  0.00     0.003 A 
ENDBRANCH   9  10
BRANCH   1  20
HETATM   20  N   UNL     1      25.342  44.882  51.579  1.00  0.00    -0.366 N 
HETATM   21  H   UNL     1      25.952  44.565  52.333  1.00  0.00     0.162 HD
BRANCH  20  22
HETATM   22  C   UNL     1      25.748  46.170  50.996  1.00  0.00     0.021 C 
HETATM   23  C   UNL     1      24.537  46.952  50.465  1.00  0.00     0.037 C 
HETATM   24  C   UNL     1      26.821  45.991  49.914  1.00  0.00     0.037 C 
HETATM   25  C   UNL     1      26.363  46.993  52.148  1.00  0.00     0.037 C 
ENDBRANCH  20  22
ENDBRANCH   1  20
TORSDOF 3
ENDMDL
MODEL 6
REMARK VINA RESULT:      -7.6      2.535      6.014
REMARK  3 active torsions:
REMARK  status: ('A' for Active; 'I' for Inactive)
REMARK    1  A    between atoms: C_2  and  N_3 
REMARK    2  A    between atoms: N_3  and  C_4 
REMARK    3  A    between atoms: C_12  and  C_13 
ROOT
HETATM    1  C   UNL     1      28.620  44.922  54.148  1.00  0.00     0.139 A 
HETATM    2  N   UNL     1      29.472  44.674  55.167  1.00  0.00    -0.224 NA
HETATM    3  C   UNL     1      29.437  45.440  56.263  1.00  0.00     0.236 A 
HETATM    4  N   UNL     1      28.628  46.468  56.503  1.00  0.00    -0.234 NA
HETATM    5  C   UNL     1      27.767  46.682  55.497  1.00  0.00     0.113 A 
HETATM    6  C   UNL     1      27.675  45.969  54.306  1.00  0.00     0.055 A 
HETATM    7  S   UNL     1      26.632  47.942  55.617  1.00  0.00    -0.081 SA
HETATM    8  C   UNL     1      25.955  47.551  54.106  1.00  0.00     0.062 A 
HETATM    9  C   UNL     1      26.571  46.471  53.494  1.00  0.00    -0.003 A 
ENDROOT
BRANCH   9  10
HETATM   10  C   UNL     1      26.093  45.931  52.165  1.00  0.00     0.188 C 
HETATM   11  O   UNL     1      25.210  44.808  52.339  1.00  0.00    -0.336 OA
HETATM   12  C   UNL     1      24.748  44.376  51.119  1.00  0.00     0.103 A 
HETATM   13  C   UNL     1      24.757  45.179  49.973  1.00  0.00     0.102 A 
HETATM   14  C   UNL     1      24.262  43.072  51.057  1.00  0.00     0.040 A 
HETATM   15  O   UNL     1      25.209  46.475  49.958  1.00  0.00    -0.345 OA
HETATM   16  C   UNL     1      24.318  44.660  48.756  1.00  0.00     0.039 A 
HETATM   17  C   UNL     1      25.421  46.987  51.284  1.00  0.00     0.213 C 
HETATM   18  C   UNL     1      23.850  43.347  48.689  1.00  0.00     0.003 A 
HETATM   19  C   UNL     1      23.819  42.555  49.838  1.00  0.00     0.003 A 
ENDBRANCH   9  10
BRANCH   1  20
HETATM   20  N   UNL     1      28.677  44.157  52.992  1.00  0.00    -0.366 N 
HETATM   21  H   UNL     1      29.510  44.383  52.449  1.00  0.00     0.162 HD
BRANCH  20  22
HETATM   22  C   UNL     1      28.304  42.735  52.932  1.00  0.00     0.021 C 
HETATM   23  C   UNL     1      27.779  42.350  51.542  1.00  0.00     0.037 C 
HETATM   24  C   UNL     1      27.303  42.363  54.034  1.00  0.00     0.037 C 
HETATM   25  C   UNL     1      29.602  41.936  53.177  1.00  0.00     0.037 C 
ENDBRANCH  20  22
ENDBRANCH   1  20
TORSDOF 3
ENDMDL
MODEL 7
REMARK VINA RESULT:      -7.3      2.460      5.631
REMARK  3 active torsions:
REMARK  status: ('A' for Active; 'I' for Inactive)
REMARK    1  A    between atoms: C_2  and  N_3 
REMARK    2  A    between atoms: N_3  and  C_4 
REMARK    3  A    between atoms: C_12  and  C_13 
ROOT
HETATM    1  C   UNL     1      29.731  43.848  54.393  1.00  0.00     0.139 A 
HETATM    2  N   UNL     1      30.657  43.065  54.986  1.00  0.00    -0.224 NA
HETATM    3  C   UNL     1      31.041  43.325  56.241  1.00  0.00     0.236 A 
HETATM    4  N   UNL     1      30.606  44.301  57.032  1.00  0.00    -0.234 NA
HETATM    5  C   UNL     1      29.663  45.051  56.440  1.00  0.00     0.113 A 
HETATM    6  C   UNL     1      29.157  44.899  55.153  1.00  0.00     0.055 A 
HETATM    7  S   UNL     1      28.961  46.344  57.292  1.00  0.00    -0.081 SA
HETATM    8  C   UNL     1      27.932  46.716  55.990  1.00  0.00     0.062 A 
HETATM    9  C   UNL     1      28.101  45.875  54.901  1.00  0.00    -0.003 A 
ENDROOT
BRANCH   9  10
HETATM   10  C   UNL     1      27.253  46.005  53.657  1.00  0.00     0.188 C 
HETATM   11  O   UNL     1      26.289  44.939  53.562  1.00  0.00    -0.336 OA
HETATM   12  C   UNL     1      25.497  45.115  52.453  1.00  0.00     0.103 A 
HETATM   13  C   UNL     1      25.345  46.351  51.813  1.00  0.00     0.102 A 
HETATM   14  C   UNL     1      24.836  43.989  51.968  1.00  0.00     0.040 A 
HETATM   15  O   UNL     1      25.955  47.504  52.238  1.00  0.00    -0.345 OA
HETATM   16  C   UNL     1      24.564  46.447  50.664  1.00  0.00     0.039 A 
HETATM   17  C   UNL     1      26.543  47.356  53.540  1.00  0.00     0.213 C 
HETATM   18  C   UNL     1      23.917  45.315  50.165  1.00  0.00     0.003 A 
HETATM   19  C   UNL     1      24.049  44.088  50.819  1.00  0.00     0.003 A 
ENDBRANCH   9  10
BRANCH   1  20
HETATM   20  N   UNL     1      29.357  43.608  53.078  1.00  0.00    -0.366 N 
HETATM   21  H   UNL     1      30.118  43.837  52.438  1.00  0.00     0.162 HD
BRANCH  20  22
HETATM   22  C   UNL     1      28.560  42.447  52.652  1.00  0.00     0.021 C 
HETATM   23  C   UNL     1      27.873  42.703  51.303  1.00  0.00     0.037 C 
HETATM   24  C   UNL     1      27.550  42.026  53.727  1.00  0.00     0.037 C 
HETATM   25  C   UNL     1      29.558  41.286  52.453  1.00  0.00     0.037 C 
ENDBRANCH  20  22
ENDBRANCH   1  20
TORSDOF 3
ENDMDL
MODEL 8
REMARK VINA RESULT:      -7.3     14.134     15.749
REMARK  3 active torsions:
REMARK  status: ('A' for Active; 'I' for Inactive)
REMARK    1  A    between atoms: C_2  and  N_3 
REMARK    2  A    between atoms: N_3  and  C_4 
REMARK    3  A    between atoms: C_12  and  C_13 
ROOT
HETATM    1  C   UNL     1      30.332  50.125  39.130  1.00  0.00     0.139 A 
HETATM    2  N   UNL     1      29.254  49.835  38.371  1.00  0.00    -0.224 NA
HETATM    3  C   UNL     1      28.311  50.763  38.174  1.00  0.00     0.236 A 
HETATM    4  N   UNL     1      28.293  52.007  38.645  1.00  0.00    -0.234 NA
HETATM    5  C   UNL     1      29.385  52.291  39.370  1.00  0.00     0.113 A 
HETATM    6  C   UNL     1      30.448  51.440  39.653  1.00  0.00     0.055 A 
HETATM    7  S   UNL     1      29.564  53.840  40.048  1.00  0.00    -0.081 SA
HETATM    8  C   UNL     1      31.081  53.440  40.704  1.00  0.00     0.062 A 
HETATM    9  C   UNL     1      31.473  52.140  40.422  1.00  0.00    -0.003 A 
ENDROOT
BRANCH   9  10
HETATM   10  C   UNL     1      32.809  51.597  40.874  1.00  0.00     0.188 C 
HETATM   11  O   UNL     1      33.899  52.393  40.372  1.00  0.00    -0.336 OA
HETATM   12  C   UNL     1      35.095  51.910  40.845  1.00  0.00     0.103 A 
HETATM   13  C   UNL     1      35.193  51.096  41.980  1.00  0.00     0.102 A 
HETATM   14  C   UNL     1      36.240  52.260  40.133  1.00  0.00     0.040 A 
HETATM   15  O   UNL     1      34.114  50.718  42.738  1.00  0.00    -0.345 OA
HETATM   16  C   UNL     1      36.434  50.601  42.375  1.00  0.00     0.039 A 
HETATM   17  C   UNL     1      32.929  51.454  42.393  1.00  0.00     0.213 C 
HETATM   18  C   UNL     1      37.579  50.935  41.650  1.00  0.00     0.003 A 
HETATM   19  C   UNL     1      37.483  51.766  40.532  1.00  0.00     0.003 A 
ENDBRANCH   9  10
BRANCH   1  20
HETATM   20  N   UNL     1      31.295  49.155  39.372  1.00  0.00    -0.366 N 
HETATM   21  H   UNL     1      32.232  49.536  39.241  1.00  0.00     0.162 HD
BRANCH  20  22
HETATM   22  C   UNL     1      31.208  48.168  40.459  1.00  0.00     0.021 C 
HETATM   23  C   UNL     1      30.209  48.608  41.539  1.00  0.00     0.037 C 
HETATM   24  C   UNL     1      32.586  47.859  41.059  1.00  0.00     0.037 C 
HETATM   25  C   UNL     1      30.662  46.871  39.823  1.00  0.00     0.037 C 
ENDBRANCH  20  22
ENDBRANCH   1  20
TORSDOF 3
ENDMDL
MODEL 9
REMARK VINA RESULT:      -7.2      7.425     10.568
REMARK  3 active torsions:
REMARK  status: ('A' for Active; 'I' for Inactive)
REMARK    1  A    between atoms: C_2  and  N_3 
REMARK    2  A    between atoms: N_3  and  C_4 
REMARK    3  A    between atoms: C_12  and  C_13 
ROOT
HETATM    1  C   UNL     1      21.442  45.605  48.488  1.00  0.00     0.139 A 
HETATM    2  N   UNL     1      21.472  44.257  48.566  1.00  0.00    -0.224 NA
HETATM    3  C   UNL     1      22.581  43.640  48.990  1.00  0.00     0.236 A 
HETATM    4  N   UNL     1      23.722  44.206  49.374  1.00  0.00    -0.234 NA
HETATM    5  C   UNL     1      23.666  45.546  49.322  1.00  0.00     0.113 A 
HETATM    6  C   UNL     1      22.588  46.325  48.915  1.00  0.00     0.055 A 
HETATM    7  S   UNL     1      25.020  46.461  49.791  1.00  0.00    -0.081 SA
HETATM    8  C   UNL     1      24.200  47.924  49.507  1.00  0.00     0.062 A 
HETATM    9  C   UNL     1      22.900  47.744  49.058  1.00  0.00    -0.003 A 
ENDROOT
BRANCH   9  10
HETATM   10  C   UNL     1      21.982  48.914  48.790  1.00  0.00     0.188 C 
HETATM   11  O   UNL     1      20.798  48.855  49.607  1.00  0.00    -0.336 OA
HETATM   12  C   UNL     1      20.012  49.960  49.382  1.00  0.00     0.103 A 
HETATM   13  C   UNL     1      20.506  51.145  48.824  1.00  0.00     0.102 A 
HETATM   14  C   UNL     1      18.668  49.856  49.731  1.00  0.00     0.040 A 
HETATM   15  O   UNL     1      21.817  51.326  48.465  1.00  0.00    -0.345 OA
HETATM   16  C   UNL     1      19.641  52.210  48.579  1.00  0.00     0.039 A 
HETATM   17  C   UNL     1      22.662  50.275  48.961  1.00  0.00     0.213 C 
HETATM   18  C   UNL     1      18.290  52.100  48.910  1.00  0.00     0.003 A 
HETATM   19  C   UNL     1      17.804  50.925  49.489  1.00  0.00     0.003 A 
ENDBRANCH   9  10
BRANCH   1  20
HETATM   20  N   UNL     1      20.309  46.249  48.012  1.00  0.00    -0.366 N 
HETATM   21  H   UNL     1      20.174  47.141  48.489  1.00  0.00     0.162 HD
BRANCH  20  22
HETATM   22  C   UNL     1      19.916  46.275  46.595  1.00  0.00     0.021 C 
HETATM   23  C   UNL     1      18.817  45.245  46.299  1.00  0.00     0.037 C 
HETATM   24  C   UNL     1      21.124  46.091  45.666  1.00  0.00     0.037 C 
HETATM   25  C   UNL     1      19.322  47.676  46.335  1.00  0.00     0.037 C 
ENDBRANCH  20  22
ENDBRANCH   1  20
TORSDOF 3
ENDMDL
MODEL 10
REMARK VINA RESULT:      -7.2     13.438     15.554
REMARK  3 active torsions:
REMARK  status: ('A' for Active; 'I' for Inactive)
REMARK    1  A    between atoms: C_2  and  N_3 
REMARK    2  A    between atoms: N_3  and  C_4 
REMARK    3  A    between atoms: C_12  and  C_13 
ROOT
HETATM    1  C   UNL     1      30.327  51.206  40.057  1.00  0.00     0.139 A 
HETATM    2  N   UNL     1      30.627  52.480  39.726  1.00  0.00    -0.224 NA
HETATM    3  C   UNL     1      31.447  53.194  40.506  1.00  0.00     0.236 A 
HETATM    4  N   UNL     1      32.047  52.795  41.624  1.00  0.00    -0.234 NA
HETATM    5  C   UNL     1      31.766  51.517  41.922  1.00  0.00     0.113 A 
HETATM    6  C   UNL     1      30.945  50.651  41.208  1.00  0.00     0.055 A 
HETATM    7  S   UNL     1      32.451  50.808  43.307  1.00  0.00    -0.081 SA
HETATM    8  C   UNL     1      31.711  49.313  42.977  1.00  0.00     0.062 A 
HETATM    9  C   UNL     1      30.941  49.327  41.824  1.00  0.00    -0.003 A 
ENDROOT
BRANCH   9  10
HETATM   10  C   UNL     1      30.233  48.088  41.325  1.00  0.00     0.188 C 
HETATM   11  O   UNL     1      28.825  48.323  41.139  1.00  0.00    -0.336 OA
HETATM   12  C   UNL     1      28.220  47.198  40.633  1.00  0.00     0.103 A 
HETATM   13  C   UNL     1      28.926  46.184  39.974  1.00  0.00     0.102 A 
HETATM   14  C   UNL     1      26.842  47.093  40.807  1.00  0.00     0.040 A 
HETATM   15  O   UNL     1      30.280  46.222  39.756  1.00  0.00    -0.345 OA
HETATM   16  C   UNL     1      28.255  45.047  39.529  1.00  0.00     0.039 A 
HETATM   17  C   UNL     1      30.837  47.516  40.040  1.00  0.00     0.213 C 
HETATM   18  C   UNL     1      26.878  44.932  39.720  1.00  0.00     0.003 A 
HETATM   19  C   UNL     1      26.171  45.955  40.356  1.00  0.00     0.003 A 
ENDBRANCH   9  10
BRANCH   1  20
HETATM   20  N   UNL     1      29.447  50.472  39.275  1.00  0.00    -0.366 N 
HETATM   21  H   UNL     1      29.519  49.477  39.486  1.00  0.00     0.162 HD
BRANCH  20  22
HETATM   22  C   UNL     1      28.079  50.908  38.954  1.00  0.00     0.021 C 
HETATM   23  C   UNL     1      27.304  49.816  38.201  1.00  0.00     0.037 C 
HETATM   24  C   UNL     1      28.070  52.235  38.185  1.00  0.00     0.037 C 
HETATM   25  C   UNL     1      27.367  51.134  40.305  1.00  0.00     0.037 C 
ENDBRANCH  20  22
ENDBRANCH   1  20
TORSDOF 3
ENDMDL
