MODEL 1
REMARK VINA RESULT:      -7.6      0.000      0.000
REMARK  6 active torsions:
REMARK  status: ('A' for Active; 'I' for Inactive)
REMARK    1  A    between atoms: O_2  and  C_3 
REMARK    2  A    between atoms: C_3  and  C_4 
REMARK    3  A    between atoms: C_4  and  N_5 
REMARK       I    between atoms: N_5  and  C_6 
REMARK    4  A    between atoms: C_6  and  C_7 
REMARK    5  A    between atoms: C_12  and  C_13 
REMARK    6  A    between atoms: C_20  and  C_21 
ROOT
HETATM    1  C   UNL     1      22.783  49.408  48.671  1.00  0.00     0.165 A 
HETATM    2  N   UNL     1      21.994  50.464  48.995  1.00  0.00    -0.163 NA
HETATM    3  N   UNL     1      20.804  49.904  49.280  1.00  0.00    -0.238 N 
HETATM    4  C   UNL     1      20.800  48.539  49.210  1.00  0.00     0.141 A 
HETATM    5  N   UNL     1      19.692  47.818  49.510  1.00  0.00    -0.365 N 
HETATM    6  C   UNL     1      18.395  48.449  49.723  1.00  0.00     0.118 C 
HETATM    7  C   UNL     1      18.588  49.840  50.355  1.00  0.00     0.066 C 
HETATM    8  C   UNL     1      19.662  50.708  49.670  1.00  0.00     0.221 C 
HETATM    9  C   UNL     1      22.064  48.194  48.807  1.00  0.00     0.092 A 
HETATM   10 BR   UNL     1      22.691  46.456  48.494  1.00  0.00    -0.044 Br
HETATM   11  H   UNL     1      19.662  46.819  49.307  1.00  0.00     0.162 HD
ENDROOT
BRANCH   1  12
HETATM   12  C   UNL     1      24.175  49.615  48.238  1.00  0.00     0.273 C 
HETATM   13  N   UNL     1      25.098  48.971  49.035  1.00  0.00    -0.353 N 
HETATM   14  H   UNL     1      24.727  48.567  49.892  1.00  0.00     0.162 HD
HETATM   15  O   UNL     1      24.501  50.313  47.281  1.00  0.00    -0.266 OA
BRANCH  13  16
HETATM   16  C   UNL     1      26.521  49.210  48.918  1.00  0.00     0.149 C 
BRANCH  16  17
HETATM   17  C   UNL     1      27.350  47.976  49.283  1.00  0.00     0.186 C 
BRANCH  17  18
HETATM   18  O   UNL     1      26.557  47.100  50.092  1.00  0.00    -0.394 OA
HETATM   19  C   UNL     1      26.745  45.740  49.725  1.00  0.00     0.201 C 
ENDBRANCH  17  18
ENDBRANCH  16  17
ENDBRANCH  13  16
ENDBRANCH   1  12
BRANCH   8  20
HETATM   20  C   UNL     1      19.146  51.502  48.489  1.00  0.00     0.409 C 
HETATM   21  F   UNL     1      19.312  50.889  47.303  1.00  0.00    -0.169 F 
HETATM   22  F   UNL     1      17.817  51.743  48.633  1.00  0.00    -0.169 F 
HETATM   23  F   UNL     1      19.738  52.717  48.402  1.00  0.00    -0.169 F 
ENDBRANCH   8  20
BRANCH   6  24
HETATM   24  C   UNL     1      17.503  48.418  48.494  1.00  0.00    -0.035 A 
HETATM   25  C   UNL     1      16.205  48.953  48.580  1.00  0.00     0.009 A 
HETATM   26  C   UNL     1      15.344  48.936  47.479  1.00  0.00     0.001 A 
HETATM   27  C   UNL     1      15.764  48.382  46.273  1.00  0.00     0.000 A 
HETATM   28  C   UNL     1      17.041  47.840  46.170  1.00  0.00     0.001 A 
HETATM   29  C   UNL     1      17.901  47.852  47.272  1.00  0.00     0.009 A 
ENDBRANCH   6  24
TORSDOF 6
ENDMDL
MODEL 2
REMARK VINA RESULT:      -7.5      9.392     11.373
REMARK  6 active torsions:
REMARK  status: ('A' for Active; 'I' for Inactive)
REMARK    1  A    between atoms: O_2  and  C_3 
REMARK    2  A    between atoms: C_3  and  C_4 
REMARK    3  A    between atoms: C_4  and  N_5 
REMARK       I    between atoms: N_5  and  C_6 
REMARK    4  A    between atoms: C_6  and  C_7 
REMARK    5  A    between atoms: C_12  and  C_13 
REMARK    6  A    between atoms: C_20  and  C_21 
ROOT
HETATM    1  C   UNL     1      27.219  41.704  50.212  1.00  0.00     0.165 A 
HETATM    2  N   UNL     1      28.075  41.471  51.240  1.00  0.00    -0.163 NA
HETATM    3  N   UNL     1      27.538  42.151  52.270  1.00  0.00    -0.238 N 
HETATM    4  C   UNL     1      26.352  42.764  51.975  1.00  0.00     0.141 A 
HETATM    5  N   UNL     1      25.659  43.453  52.913  1.00  0.00    -0.365 N 
HETATM    6  C   UNL     1      26.224  43.755  54.223  1.00  0.00     0.118 C 
HETATM    7  C   UNL     1      27.167  42.620  54.660  1.00  0.00     0.066 C 
HETATM    8  C   UNL     1      28.166  42.168  53.576  1.00  0.00     0.221 C 
HETATM    9  C   UNL     1      26.130  42.500  50.648  1.00  0.00     0.092 A 
HETATM   10 BR   UNL     1      24.673  43.094  49.630  1.00  0.00    -0.044 Br
HETATM   11  H   UNL     1      24.861  44.027  52.640  1.00  0.00     0.162 HD
ENDROOT
BRANCH   1  12
HETATM   12  C   UNL     1      27.492  41.165  48.870  1.00  0.00     0.273 C 
HETATM   13  N   UNL     1      27.496  39.787  48.824  1.00  0.00    -0.353 N 
HETATM   14  H   UNL     1      27.461  39.320  49.727  1.00  0.00     0.162 HD
HETATM   15  O   UNL     1      27.724  41.861  47.884  1.00  0.00    -0.266 OA
BRANCH  13  16
HETATM   16  C   UNL     1      27.948  39.054  47.660  1.00  0.00     0.149 C 
BRANCH  16  17
HETATM   17  C   UNL     1      28.772  37.819  48.034  1.00  0.00     0.186 C 
BRANCH  17  18
HETATM   18  O   UNL     1      29.896  38.227  48.822  1.00  0.00    -0.394 OA
HETATM   19  C   UNL     1      29.842  37.673  50.130  1.00  0.00     0.201 C 
ENDBRANCH  17  18
ENDBRANCH  16  17
ENDBRANCH  13  16
ENDBRANCH   1  12
BRANCH   8  20
HETATM   20  C   UNL     1      29.440  42.985  53.540  1.00  0.00     0.409 C 
HETATM   21  F   UNL     1      29.355  44.098  52.790  1.00  0.00    -0.169 F 
HETATM   22  F   UNL     1      29.784  43.371  54.796  1.00  0.00    -0.169 F 
HETATM   23  F   UNL     1      30.487  42.264  53.073  1.00  0.00    -0.169 F 
ENDBRANCH   8  20
BRANCH   6  24
HETATM   24  C   UNL     1      26.812  45.153  54.315  1.00  0.00    -0.035 A 
HETATM   25  C   UNL     1      27.718  45.445  55.350  1.00  0.00     0.009 A 
HETATM   26  C   UNL     1      28.276  46.719  55.482  1.00  0.00     0.001 A 
HETATM   27  C   UNL     1      27.937  47.726  54.584  1.00  0.00     0.000 A 
HETATM   28  C   UNL     1      27.036  47.460  53.558  1.00  0.00     0.001 A 
HETATM   29  C   UNL     1      26.474  46.187  53.427  1.00  0.00     0.009 A 
ENDBRANCH   6  24
TORSDOF 6
ENDMDL
MODEL 3
REMARK VINA RESULT:      -7.3     10.482     13.974
REMARK  6 active torsions:
REMARK  status: ('A' for Active; 'I' for Inactive)
REMARK    1  A    between atoms: O_2  and  C_3 
REMARK    2  A    between atoms: C_3  and  C_4 
REMARK    3  A    between atoms: C_4  and  N_5 
REMARK       I    between atoms: N_5  and  C_6 
REMARK    4  A    between atoms: C_6  and  C_7 
REMARK    5  A    between atoms: C_12  and  C_13 
REMARK    6  A    between atoms: C_20  and  C_21 
ROOT
HETATM    1  C   UNL     1      26.820  49.595  38.304  1.00  0.00     0.165 A 
HETATM    2  N   UNL     1      27.402  50.809  38.129  1.00  0.00    -0.163 NA
HETATM    3  N   UNL     1      28.708  50.578  38.353  1.00  0.00    -0.238 N 
HETATM    4  C   UNL     1      29.006  49.269  38.610  1.00  0.00     0.141 A 
HETATM    5  N   UNL     1      30.282  48.860  38.814  1.00  0.00    -0.365 N 
HETATM    6  C   UNL     1      31.379  49.806  38.976  1.00  0.00     0.118 C 
HETATM    7  C   UNL     1      31.113  51.064  38.130  1.00  0.00     0.066 C 
HETATM    8  C   UNL     1      29.691  51.641  38.274  1.00  0.00     0.221 C 
HETATM    9  C   UNL     1      27.801  48.615  38.595  1.00  0.00     0.092 A 
HETATM   10 BR   UNL     1      27.528  46.788  38.910  1.00  0.00    -0.044 Br
HETATM   11  H   UNL     1      30.467  47.915  39.152  1.00  0.00     0.162 HD
ENDROOT
BRANCH   1  12
HETATM   12  C   UNL     1      25.360  49.439  38.196  1.00  0.00     0.273 C 
HETATM   13  N   UNL     1      24.682  49.829  39.332  1.00  0.00    -0.353 N 
HETATM   14  H   UNL     1      25.265  50.028  40.141  1.00  0.00     0.162 HD
HETATM   15  O   UNL     1      24.789  48.982  37.209  1.00  0.00    -0.266 OA
BRANCH  13  16
HETATM   16  C   UNL     1      23.271  49.564  39.519  1.00  0.00     0.149 C 
BRANCH  16  17
HETATM   17  C   UNL     1      22.424  50.836  39.437  1.00  0.00     0.186 C 
BRANCH  17  18
HETATM   18  O   UNL     1      21.542  50.740  38.313  1.00  0.00    -0.394 OA
HETATM   19  C   UNL     1      20.181  50.842  38.709  1.00  0.00     0.201 C 
ENDBRANCH  17  18
ENDBRANCH  16  17
ENDBRANCH  13  16
ENDBRANCH   1  12
BRANCH   8  20
HETATM   20  C   UNL     1      29.532  52.596  39.438  1.00  0.00     0.409 C 
HETATM   21  F   UNL     1      29.048  52.022  40.554  1.00  0.00    -0.169 F 
HETATM   22  F   UNL     1      30.733  53.146  39.758  1.00  0.00    -0.169 F 
HETATM   23  F   UNL     1      28.718  53.633  39.131  1.00  0.00    -0.169 F 
ENDBRANCH   8  20
BRANCH   6  24
HETATM   24  C   UNL     1      31.734  50.070  40.430  1.00  0.00    -0.035 A 
HETATM   25  C   UNL     1      32.797  50.943  40.725  1.00  0.00     0.009 A 
HETATM   26  C   UNL     1      33.167  51.207  42.046  1.00  0.00     0.001 A 
HETATM   27  C   UNL     1      32.484  50.602  43.096  1.00  0.00     0.000 A 
HETATM   28  C   UNL     1      31.435  49.729  42.826  1.00  0.00     0.001 A 
HETATM   29  C   UNL     1      31.067  49.460  41.505  1.00  0.00     0.009 A 
ENDBRANCH   6  24
TORSDOF 6
ENDMDL
MODEL 4
REMARK VINA RESULT:      -7.2     13.180     14.652
REMARK  6 active torsions:
REMARK  status: ('A' for Active; 'I' for Inactive)
REMARK    1  A    between atoms: O_2  and  C_3 
REMARK    2  A    between atoms: C_3  and  C_4 
REMARK    3  A    between atoms: C_4  and  N_5 
REMARK       I    between atoms: N_5  and  C_6 
REMARK    4  A    between atoms: C_6  and  C_7 
REMARK    5  A    between atoms: C_12  and  C_13 
REMARK    6  A    between atoms: C_20  and  C_21 
ROOT
HETATM    1  C   UNL     1      35.258  51.636  42.568  1.00  0.00     0.165 A 
HETATM    2  N   UNL     1      34.086  51.686  43.253  1.00  0.00    -0.163 NA
HETATM    3  N   UNL     1      33.254  50.917  42.528  1.00  0.00    -0.238 N 
HETATM    4  C   UNL     1      33.842  50.329  41.442  1.00  0.00     0.141 A 
HETATM    5  N   UNL     1      33.152  49.489  40.633  1.00  0.00    -0.365 N 
HETATM    6  C   UNL     1      31.708  49.320  40.744  1.00  0.00     0.118 C 
HETATM    7  C   UNL     1      31.275  49.483  42.212  1.00  0.00     0.066 C 
HETATM    8  C   UNL     1      31.873  50.714  42.921  1.00  0.00     0.221 C 
HETATM    9  C   UNL     1      35.134  50.787  41.440  1.00  0.00     0.092 A 
HETATM   10 BR   UNL     1      36.454  50.369  40.178  1.00  0.00    -0.044 Br
HETATM   11  H   UNL     1      33.560  49.182  39.749  1.00  0.00     0.162 HD
ENDROOT
BRANCH   1  12
HETATM   12  C   UNL     1      36.426  52.409  43.020  1.00  0.00     0.273 C 
HETATM   13  N   UNL     1      37.248  51.707  43.877  1.00  0.00    -0.353 N 
HETATM   14  H   UNL     1      36.879  50.818  44.205  1.00  0.00     0.162 HD
HETATM   15  O   UNL     1      36.646  53.574  42.698  1.00  0.00    -0.266 OA
BRANCH  13  16
HETATM   16  C   UNL     1      38.329  52.340  44.602  1.00  0.00     0.149 C 
BRANCH  16  17
HETATM   17  C   UNL     1      37.844  53.046  45.871  1.00  0.00     0.186 C 
BRANCH  17  18
HETATM   18  O   UNL     1      38.732  52.733  46.950  1.00  0.00    -0.394 OA
HETATM   19  C   UNL     1      38.599  53.660  48.019  1.00  0.00     0.201 C 
ENDBRANCH  17  18
ENDBRANCH  16  17
ENDBRANCH  13  16
ENDBRANCH   1  12
BRANCH   8  20
HETATM   20  C   UNL     1      31.074  51.984  42.721  1.00  0.00     0.409 C 
HETATM   21  F   UNL     1      29.780  51.774  42.420  1.00  0.00    -0.169 F 
HETATM   22  F   UNL     1      31.106  52.739  43.850  1.00  0.00    -0.169 F 
HETATM   23  F   UNL     1      31.597  52.758  41.741  1.00  0.00    -0.169 F 
ENDBRANCH   8  20
BRANCH   6  24
HETATM   24  C   UNL     1      30.929  50.158  39.745  1.00  0.00    -0.035 A 
HETATM   25  C   UNL     1      29.523  50.140  39.791  1.00  0.00     0.009 A 
HETATM   26  C   UNL     1      28.762  50.885  38.886  1.00  0.00     0.001 A 
HETATM   27  C   UNL     1      29.392  51.660  37.917  1.00  0.00     0.000 A 
HETATM   28  C   UNL     1      30.782  51.685  37.849  1.00  0.00     0.001 A 
HETATM   29  C   UNL     1      31.543  50.937  38.751  1.00  0.00     0.009 A 
ENDBRANCH   6  24
TORSDOF 6
ENDMDL
MODEL 5
REMARK VINA RESULT:      -7.2     10.672     14.562
REMARK  6 active torsions:
REMARK  status: ('A' for Active; 'I' for Inactive)
REMARK    1  A    between atoms: O_2  and  C_3 
REMARK    2  A    between atoms: C_3  and  C_4 
REMARK    3  A    between atoms: C_4  and  N_5 
REMARK       I    between atoms: N_5  and  C_6 
REMARK    4  A    between atoms: C_6  and  C_7 
REMARK    5  A    between atoms: C_12  and  C_13 
REMARK    6  A    between atoms: C_20  and  C_21 
ROOT
HETATM    1  C   UNL     1      28.633  50.712  39.975  1.00  0.00     0.165 A 
HETATM    2  N   UNL     1      29.153  49.583  40.522  1.00  0.00    -0.163 NA
HETATM    3  N   UNL     1      30.234  50.016  41.194  1.00  0.00    -0.238 N 
HETATM    4  C   UNL     1      30.408  51.372  41.156  1.00  0.00     0.141 A 
HETATM    5  N   UNL     1      31.425  51.974  41.819  1.00  0.00    -0.365 N 
HETATM    6  C   UNL     1      32.503  51.211  42.437  1.00  0.00     0.118 C 
HETATM    7  C   UNL     1      31.964  49.860  42.942  1.00  0.00     0.066 C 
HETATM    8  C   UNL     1      31.090  49.101  41.924  1.00  0.00     0.221 C 
HETATM    9  C   UNL     1      29.393  51.844  40.366  1.00  0.00     0.092 A 
HETATM   10 BR   UNL     1      29.095  53.633  39.897  1.00  0.00    -0.044 Br
HETATM   11  H   UNL     1      31.627  52.961  41.657  1.00  0.00     0.162 HD
ENDROOT
BRANCH   1  12
HETATM   12  C   UNL     1      27.449  50.649  39.103  1.00  0.00     0.273 C 
HETATM   13  N   UNL     1      26.326  50.163  39.739  1.00  0.00    -0.353 N 
HETATM   14  H   UNL     1      26.483  49.775  40.666  1.00  0.00     0.162 HD
HETATM   15  O   UNL     1      27.452  50.966  37.916  1.00  0.00    -0.266 OA
BRANCH  13  16
HETATM   16  C   UNL     1      25.118  49.821  39.019  1.00  0.00     0.149 C 
BRANCH  16  17
HETATM   17  C   UNL     1      24.476  48.532  39.539  1.00  0.00     0.186 C 
BRANCH  17  18
HETATM   18  O   UNL     1      25.310  47.972  40.559  1.00  0.00    -0.394 OA
HETATM   19  C   UNL     1      24.738  46.793  41.109  1.00  0.00     0.201 C 
ENDBRANCH  17  18
ENDBRANCH  16  17
ENDBRANCH  13  16
ENDBRANCH   1  12
BRANCH   8  20
HETATM   20  C   UNL     1      31.880  48.236  40.965  1.00  0.00     0.409 C 
HETATM   21  F   UNL     1      33.055  47.806  41.457  1.00  0.00    -0.169 F 
HETATM   22  F   UNL     1      31.158  47.136  40.626  1.00  0.00    -0.169 F 
HETATM   23  F   UNL     1      32.141  48.882  39.803  1.00  0.00    -0.169 F 
ENDBRANCH   8  20
BRANCH   6  24
HETATM   24  C   UNL     1      33.749  51.125  41.573  1.00  0.00    -0.035 A 
HETATM   25  C   UNL     1      34.904  50.518  42.099  1.00  0.00     0.009 A 
HETATM   26  C   UNL     1      36.077  50.426  41.345  1.00  0.00     0.001 A 
HETATM   27  C   UNL     1      36.119  50.942  40.054  1.00  0.00     0.000 A 
HETATM   28  C   UNL     1      34.991  51.554  39.518  1.00  0.00     0.001 A 
HETATM   29  C   UNL     1      33.818  51.651  40.272  1.00  0.00     0.009 A 
ENDBRANCH   6  24
TORSDOF 6
ENDMDL
MODEL 6
REMARK VINA RESULT:      -7.1     11.774     14.072
REMARK  6 active torsions:
REMARK  status: ('A' for Active; 'I' for Inactive)
REMARK    1  A    between atoms: O_2  and  C_3 
REMARK    2  A    between atoms: C_3  and  C_4 
REMARK    3  A    between atoms: C_4  and  N_5 
REMARK       I    between atoms: N_5  and  C_6 
REMARK    4  A    between atoms: C_6  and  C_7 
REMARK    5  A    between atoms: C_12  and  C_13 
REMARK    6  A    between atoms: C_20  and  C_21 
ROOT
HETATM    1  C   UNL     1      32.690  52.320  39.933  1.00  0.00     0.165 A 
HETATM    2  N   UNL     1      31.560  52.836  39.385  1.00  0.00    -0.163 NA
HETATM    3  N   UNL     1      30.566  52.220  40.051  1.00  0.00    -0.238 N 
HETATM    4  C   UNL     1      30.996  51.375  41.037  1.00  0.00     0.141 A 
HETATM    5  N   UNL     1      30.122  50.711  41.830  1.00  0.00    -0.365 N 
HETATM    6  C   UNL     1      28.690  50.692  41.556  1.00  0.00     0.118 C 
HETATM    7  C   UNL     1      28.265  52.023  40.908  1.00  0.00     0.066 C 
HETATM    8  C   UNL     1      29.173  52.489  39.753  1.00  0.00     0.221 C 
HETATM    9  C   UNL     1      32.365  51.414  40.974  1.00  0.00     0.092 A 
HETATM   10 BR   UNL     1      33.551  50.443  42.052  1.00  0.00    -0.044 Br
HETATM   11  H   UNL     1      30.455  49.975  42.454  1.00  0.00     0.162 HD
ENDROOT
BRANCH   1  12
HETATM   12  C   UNL     1      34.016  52.710  39.427  1.00  0.00     0.273 C 
HETATM   13  N   UNL     1      34.294  54.050  39.595  1.00  0.00    -0.353 N 
HETATM   14  H   UNL     1      33.511  54.622  39.902  1.00  0.00     0.162 HD
HETATM   15  O   UNL     1      34.798  51.936  38.880  1.00  0.00    -0.266 OA
BRANCH  13  16
HETATM   16  C   UNL     1      35.443  54.684  38.985  1.00  0.00     0.149 C 
BRANCH  16  17
HETATM   17  C   UNL     1      35.750  56.051  39.602  1.00  0.00     0.186 C 
BRANCH  17  18
HETATM   18  O   UNL     1      34.633  56.921  39.392  1.00  0.00    -0.394 OA
HETATM   19  C   UNL     1      34.935  57.936  38.443  1.00  0.00     0.201 C 
ENDBRANCH  17  18
ENDBRANCH  16  17
ENDBRANCH  13  16
ENDBRANCH   1  12
BRANCH   8  20
HETATM   20  C   UNL     1      28.798  51.909  38.407  1.00  0.00     0.409 C 
HETATM   21  F   UNL     1      27.485  51.651  38.269  1.00  0.00    -0.169 F 
HETATM   22  F   UNL     1      29.144  52.769  37.414  1.00  0.00    -0.169 F 
HETATM   23  F   UNL     1      29.464  50.758  38.152  1.00  0.00    -0.169 F 
ENDBRANCH   8  20
BRANCH   6  24
HETATM   24  C   UNL     1      28.237  49.444  40.819  1.00  0.00    -0.035 A 
HETATM   25  C   UNL     1      29.176  48.429  40.555  1.00  0.00     0.009 A 
HETATM   26  C   UNL     1      28.809  47.268  39.871  1.00  0.00     0.001 A 
HETATM   27  C   UNL     1      27.498  47.099  39.435  1.00  0.00     0.000 A 
HETATM   28  C   UNL     1      26.556  48.094  39.678  1.00  0.00     0.001 A 
HETATM   29  C   UNL     1      26.923  49.258  40.359  1.00  0.00     0.009 A 
ENDBRANCH   6  24
TORSDOF 6
ENDMDL
MODEL 7
REMARK VINA RESULT:      -7.1      9.634     13.178
REMARK  6 active torsions:
REMARK  status: ('A' for Active; 'I' for Inactive)
REMARK    1  A    between atoms: O_2  and  C_3 
REMARK    2  A    between atoms: C_3  and  C_4 
REMARK    3  A    between atoms: C_4  and  N_5 
REMARK       I    between atoms: N_5  and  C_6 
REMARK    4  A    between atoms: C_6  and  C_7 
REMARK    5  A    between atoms: C_12  and  C_13 
REMARK    6  A    between atoms: C_20  and  C_21 
ROOT
HETATM    1  C   UNL     1      26.420  49.178  39.366  1.00  0.00     0.165 A 
HETATM    2  N   UNL     1      26.563  50.509  39.593  1.00  0.00    -0.163 NA
HETATM    3  N   UNL     1      27.890  50.711  39.508  1.00  0.00    -0.238 N 
HETATM    4  C   UNL     1      28.605  49.592  39.184  1.00  0.00     0.141 A 
HETATM    5  N   UNL     1      29.949  49.634  39.015  1.00  0.00    -0.365 N 
HETATM    6  C   UNL     1      30.734  50.812  39.365  1.00  0.00     0.118 C 
HETATM    7  C   UNL     1      29.900  52.084  39.130  1.00  0.00     0.066 C 
HETATM    8  C   UNL     1      28.471  52.026  39.702  1.00  0.00     0.221 C 
HETATM    9  C   UNL     1      27.679  48.585  39.097  1.00  0.00     0.092 A 
HETATM   10 BR   UNL     1      28.032  46.786  38.711  1.00  0.00    -0.044 Br
HETATM   11  H   UNL     1      30.480  48.767  38.924  1.00  0.00     0.162 HD
ENDROOT
BRANCH   1  12
HETATM   12  C   UNL     1      25.093  48.543  39.429  1.00  0.00     0.273 C 
HETATM   13  N   UNL     1      24.052  49.446  39.377  1.00  0.00    -0.353 N 
HETATM   14  H   UNL     1      24.318  50.424  39.454  1.00  0.00     0.162 HD
HETATM   15  O   UNL     1      24.914  47.333  39.545  1.00  0.00    -0.266 OA
BRANCH  13  16
HETATM   16  C   UNL     1      22.680  49.059  39.636  1.00  0.00     0.149 C 
BRANCH  16  17
HETATM   17  C   UNL     1      21.699  49.703  38.652  1.00  0.00     0.186 C 
BRANCH  17  18
HETATM   18  O   UNL     1      21.655  51.114  38.891  1.00  0.00    -0.394 OA
HETATM   19  C   UNL     1      21.145  51.407  40.184  1.00  0.00     0.201 C 
ENDBRANCH  17  18
ENDBRANCH  16  17
ENDBRANCH  13  16
ENDBRANCH   1  12
BRANCH   8  20
HETATM   20  C   UNL     1      28.376  52.436  41.156  1.00  0.00     0.409 C 
HETATM   21  F   UNL     1      27.216  53.034  41.481  1.00  0.00    -0.169 F 
HETATM   22  F   UNL     1      28.505  51.347  41.958  1.00  0.00    -0.169 F 
HETATM   23  F   UNL     1      29.376  53.278  41.507  1.00  0.00    -0.169 F 
ENDBRANCH   8  20
BRANCH   6  24
HETATM   24  C   UNL     1      31.386  50.712  40.734  1.00  0.00    -0.035 A 
HETATM   25  C   UNL     1      31.146  49.572  41.522  1.00  0.00     0.009 A 
HETATM   26  C   UNL     1      31.714  49.441  42.792  1.00  0.00     0.001 A 
HETATM   27  C   UNL     1      32.530  50.447  43.299  1.00  0.00     0.000 A 
HETATM   28  C   UNL     1      32.773  51.587  42.539  1.00  0.00     0.001 A 
HETATM   29  C   UNL     1      32.202  51.721  41.270  1.00  0.00     0.009 A 
ENDBRANCH   6  24
TORSDOF 6
ENDMDL
MODEL 8
REMARK VINA RESULT:      -6.9      2.133      2.697
REMARK  6 active torsions:
REMARK  status: ('A' for Active; 'I' for Inactive)
REMARK    1  A    between atoms: O_2  and  C_3 
REMARK    2  A    between atoms: C_3  and  C_4 
REMARK    3  A    between atoms: C_4  and  N_5 
REMARK       I    between atoms: N_5  and  C_6 
REMARK    4  A    between atoms: C_6  and  C_7 
REMARK    5  A    between atoms: C_12  and  C_13 
REMARK    6  A    between atoms: C_20  and  C_21 
ROOT
HETATM    1  C   UNL     1      20.988  47.644  48.657  1.00  0.00     0.165 A 
HETATM    2  N   UNL     1      21.067  48.946  49.036  1.00  0.00    -0.163 NA
HETATM    3  N   UNL     1      19.783  49.339  49.115  1.00  0.00    -0.238 N 
HETATM    4  C   UNL     1      18.879  48.345  48.861  1.00  0.00     0.141 A 
HETATM    5  N   UNL     1      17.545  48.564  48.942  1.00  0.00    -0.365 N 
HETATM    6  C   UNL     1      16.990  49.904  49.100  1.00  0.00     0.118 C 
HETATM    7  C   UNL     1      17.953  50.772  49.930  1.00  0.00     0.066 C 
HETATM    8  C   UNL     1      19.427  50.694  49.487  1.00  0.00     0.221 C 
HETATM    9  C   UNL     1      19.633  47.242  48.552  1.00  0.00     0.092 A 
HETATM   10 BR   UNL     1      18.979  45.552  48.075  1.00  0.00    -0.044 Br
HETATM   11  H   UNL     1      16.889  47.859  48.604  1.00  0.00     0.162 HD
ENDROOT
BRANCH   1  12
HETATM   12  C   UNL     1      22.208  46.859  48.406  1.00  0.00     0.273 C 
HETATM   13  N   UNL     1      22.990  46.689  49.529  1.00  0.00    -0.353 N 
HETATM   14  H   UNL     1      22.716  47.240  50.339  1.00  0.00     0.162 HD
HETATM   15  O   UNL     1      22.526  46.417  47.305  1.00  0.00    -0.266 OA
BRANCH  13  16
HETATM   16  C   UNL     1      24.326  46.136  49.464  1.00  0.00     0.149 C 
BRANCH  16  17
HETATM   17  C   UNL     1      25.117  46.369  50.753  1.00  0.00     0.186 C 
BRANCH  17  18
HETATM   18  O   UNL     1      25.532  47.739  50.807  1.00  0.00    -0.394 OA
HETATM   19  C   UNL     1      26.381  48.068  49.716  1.00  0.00     0.201 C 
ENDBRANCH  17  18
ENDBRANCH  16  17
ENDBRANCH  13  16
ENDBRANCH   1  12
BRANCH   8  20
HETATM   20  C   UNL     1      19.783  51.659  48.376  1.00  0.00     0.409 C 
HETATM   21  F   UNL     1      19.508  51.198  47.142  1.00  0.00    -0.169 F 
HETATM   22  F   UNL     1      19.101  52.823  48.531  1.00  0.00    -0.169 F 
HETATM   23  F   UNL     1      21.096  51.990  48.400  1.00  0.00    -0.169 F 
ENDBRANCH   8  20
BRANCH   6  24
HETATM   24  C   UNL     1      16.531  50.521  47.791  1.00  0.00    -0.035 A 
HETATM   25  C   UNL     1      16.566  49.741  46.620  1.00  0.00     0.009 A 
HETATM   26  C   UNL     1      16.165  50.269  45.390  1.00  0.00     0.001 A 
HETATM   27  C   UNL     1      15.725  51.586  45.306  1.00  0.00     0.000 A 
HETATM   28  C   UNL     1      15.692  52.377  46.450  1.00  0.00     0.001 A 
HETATM   29  C   UNL     1      16.097  51.852  47.680  1.00  0.00     0.009 A 
ENDBRANCH   6  24
TORSDOF 6
ENDMDL
MODEL 9
REMARK VINA RESULT:      -6.9     10.502     13.952
REMARK  6 active torsions:
REMARK  status: ('A' for Active; 'I' for Inactive)
REMARK    1  A    between atoms: O_2  and  C_3 
REMARK    2  A    between atoms: C_3  and  C_4 
REMARK    3  A    between atoms: C_4  and  N_5 
REMARK       I    between atoms: N_5  and  C_6 
REMARK    4  A    between atoms: C_6  and  C_7 
REMARK    5  A    between atoms: C_12  and  C_13 
REMARK    6  A    between atoms: C_20  and  C_21 
ROOT
HETATM    1  C   UNL     1      27.671  49.619  38.331  1.00  0.00     0.165 A 
HETATM    2  N   UNL     1      28.134  50.892  38.234  1.00  0.00    -0.163 NA
HETATM    3  N   UNL     1      29.442  50.784  38.528  1.00  0.00    -0.238 N 
HETATM    4  C   UNL     1      29.858  49.502  38.756  1.00  0.00     0.141 A 
HETATM    5  N   UNL     1      31.156  49.217  39.022  1.00  0.00    -0.365 N 
HETATM    6  C   UNL     1      32.139  50.261  39.283  1.00  0.00     0.118 C 
HETATM    7  C   UNL     1      31.792  51.520  38.468  1.00  0.00     0.066 C 
HETATM    8  C   UNL     1      30.312  51.944  38.546  1.00  0.00     0.221 C 
HETATM    9  C   UNL     1      28.731  48.731  38.646  1.00  0.00     0.092 A 
HETATM   10 BR   UNL     1      28.631  46.875  38.880  1.00  0.00    -0.044 Br
HETATM   11  H   UNL     1      31.419  48.282  39.337  1.00  0.00     0.162 HD
ENDROOT
BRANCH   1  12
HETATM   12  C   UNL     1      26.243  49.321  38.130  1.00  0.00     0.273 C 
HETATM   13  N   UNL     1      25.486  49.476  39.272  1.00  0.00    -0.353 N 
HETATM   14  H   UNL     1      26.013  49.627  40.128  1.00  0.00     0.162 HD
HETATM   15  O   UNL     1      25.764  48.942  37.064  1.00  0.00    -0.266 OA
BRANCH  13  16
HETATM   16  C   UNL     1      24.109  49.036  39.352  1.00  0.00     0.149 C 
BRANCH  16  17
HETATM   17  C   UNL     1      23.989  47.577  39.800  1.00  0.00     0.186 C 
BRANCH  17  18
HETATM   18  O   UNL     1      24.801  47.376  40.961  1.00  0.00    -0.394 OA
HETATM   19  C   UNL     1      24.445  46.182  41.644  1.00  0.00     0.201 C 
ENDBRANCH  17  18
ENDBRANCH  16  17
ENDBRANCH  13  16
ENDBRANCH   1  12
BRANCH   8  20
HETATM   20  C   UNL     1      29.991  52.829  39.731  1.00  0.00     0.409 C 
HETATM   21  F   UNL     1      29.484  52.167  40.787  1.00  0.00    -0.169 F 
HETATM   22  F   UNL     1      31.113  53.465  40.157  1.00  0.00    -0.169 F 
HETATM   23  F   UNL     1      29.110  53.805  39.406  1.00  0.00    -0.169 F 
ENDBRANCH   8  20
BRANCH   6  24
HETATM   24  C   UNL     1      32.382  50.499  40.764  1.00  0.00    -0.035 A 
HETATM   25  C   UNL     1      33.462  51.313  41.155  1.00  0.00     0.009 A 
HETATM   26  C   UNL     1      33.732  51.551  42.505  1.00  0.00     0.001 A 
HETATM   27  C   UNL     1      32.931  50.980  43.489  1.00  0.00     0.000 A 
HETATM   28  C   UNL     1      31.864  50.165  43.123  1.00  0.00     0.001 A 
HETATM   29  C   UNL     1      31.595  49.922  41.773  1.00  0.00     0.009 A 
ENDBRANCH   6  24
TORSDOF 6
ENDMDL
MODEL 10
REMARK VINA RESULT:      -6.9     12.486     14.554
REMARK  6 active torsions:
REMARK  status: ('A' for Active; 'I' for Inactive)
REMARK    1  A    between atoms: O_2  and  C_3 
REMARK    2  A    between atoms: C_3  and  C_4 
REMARK    3  A    between atoms: C_4  and  N_5 
REMARK       I    between atoms: N_5  and  C_6 
REMARK    4  A    between atoms: C_6  and  C_7 
REMARK    5  A    between atoms: C_12  and  C_13 
REMARK    6  A    between atoms: C_20  and  C_21 
ROOT
HETATM    1  C   UNL     1      34.914  50.678  41.341  1.00  0.00     0.165 A 
HETATM    2  N   UNL     1      34.160  49.596  41.667  1.00  0.00    -0.163 NA
HETATM    3  N   UNL     1      33.074  49.710  40.881  1.00  0.00    -0.238 N 
HETATM    4  C   UNL     1      33.113  50.777  40.027  1.00  0.00     0.141 A 
HETATM    5  N   UNL     1      32.117  51.008  39.138  1.00  0.00    -0.365 N 
HETATM    6  C   UNL     1      30.861  50.267  39.174  1.00  0.00     0.118 C 
HETATM    7  C   UNL     1      31.116  48.832  39.670  1.00  0.00     0.066 C 
HETATM    8  C   UNL     1      31.997  48.739  40.931  1.00  0.00     0.221 C 
HETATM    9  C   UNL     1      34.287  51.424  40.312  1.00  0.00     0.092 A 
HETATM   10 BR   UNL     1      34.913  52.991  39.498  1.00  0.00    -0.044 Br
HETATM   11  H   UNL     1      32.090  51.886  38.618  1.00  0.00     0.162 HD
ENDROOT
BRANCH   1  12
HETATM   12  C   UNL     1      36.184  50.945  42.036  1.00  0.00     0.273 C 
HETATM   13  N   UNL     1      36.016  51.469  43.300  1.00  0.00    -0.353 N 
HETATM   14  H   UNL     1      35.065  51.742  43.536  1.00  0.00     0.162 HD
HETATM   15  O   UNL     1      37.292  50.754  41.540  1.00  0.00    -0.266 OA
BRANCH  13  16
HETATM   16  C   UNL     1      37.121  51.999  44.070  1.00  0.00     0.149 C 
BRANCH  16  17
HETATM   17  C   UNL     1      37.095  53.528  44.151  1.00  0.00     0.186 C 
BRANCH  17  18
HETATM   18  O   UNL     1      38.088  54.061  43.268  1.00  0.00    -0.394 OA
HETATM   19  C   UNL     1      37.508  54.539  42.061  1.00  0.00     0.201 C 
ENDBRANCH  17  18
ENDBRANCH  16  17
ENDBRANCH  13  16
ENDBRANCH   1  12
BRANCH   8  20
HETATM   20  C   UNL     1      31.227  48.870  42.227  1.00  0.00     0.409 C 
HETATM   21  F   UNL     1      29.951  48.450  42.149  1.00  0.00    -0.169 F 
HETATM   22  F   UNL     1      31.830  48.144  43.204  1.00  0.00    -0.169 F 
HETATM   23  F   UNL     1      31.205  50.148  42.673  1.00  0.00    -0.169 F 
ENDBRANCH   8  20
BRANCH   6  24
HETATM   24  C   UNL     1      29.748  51.009  39.893  1.00  0.00    -0.035 A 
HETATM   25  C   UNL     1      28.489  50.394  40.018  1.00  0.00     0.009 A 
HETATM   26  C   UNL     1      27.431  51.042  40.661  1.00  0.00     0.001 A 
HETATM   27  C   UNL     1      27.610  52.317  41.189  1.00  0.00     0.000 A 
HETATM   28  C   UNL     1      28.845  52.946  41.068  1.00  0.00     0.001 A 
HETATM   29  C   UNL     1      29.903  52.301  40.421  1.00  0.00     0.009 A 
ENDBRANCH   6  24
TORSDOF 6
ENDMDL
