MODEL 1
REMARK VINA RESULT:      -9.3      0.000      0.000
REMARK  7 active torsions:
REMARK  status: ('A' for Active; 'I' for Inactive)
REMARK    1  A    between atoms: C_2  and  O_3 
REMARK    2  A    between atoms: O_3  and  C_4 
REMARK    3  A    between atoms: C_7  and  C_8 
REMARK       I    between atoms: C_8  and  N_9 
REMARK    4  A    between atoms: N_9  and  N_10 
REMARK       I    between atoms: N_10  and  C_11 
REMARK    5  A    between atoms: C_11  and  C_12 
REMARK    6  A    between atoms: C_14  and  C_15 
REMARK    7  A    between atoms: C_22  and  C_23 
ROOT
HETATM    1  N   UNL     1      25.645  46.342  50.785  1.00  0.00    -0.262 N 
HETATM    2  C   UNL     1      25.383  45.265  51.608  1.00  0.00     0.291 C 
HETATM    3  O   UNL     1      24.233  44.874  51.813  1.00  0.00    -0.264 OA
HETATM    4  H   UNL     1      26.587  46.718  50.674  1.00  0.00     0.190 HD
ENDROOT
BRANCH   2   5
HETATM    5  C   UNL     1      26.569  44.673  52.205  1.00  0.00     0.159 A 
HETATM    6  N   UNL     1      27.157  45.162  53.368  1.00  0.00    -0.216 NA
HETATM    7  C   UNL     1      28.169  44.342  53.588  1.00  0.00     0.180 A 
HETATM    8  O   UNL     1      28.298  43.354  52.651  1.00  0.00    -0.293 OA
HETATM    9  C   UNL     1      27.275  43.567  51.769  1.00  0.00     0.094 A 
BRANCH   7  10
HETATM   10  C   UNL     1      29.141  44.333  54.679  1.00  0.00     0.017 A 
HETATM   11  C   UNL     1      30.020  43.250  54.822  1.00  0.00     0.016 A 
HETATM   12  C   UNL     1      30.964  43.226  55.853  1.00  0.00     0.001 A 
HETATM   13  C   UNL     1      31.040  44.285  56.755  1.00  0.00     0.000 A 
HETATM   14  C   UNL     1      30.173  45.368  56.629  1.00  0.00     0.001 A 
HETATM   15  C   UNL     1      29.229  45.392  55.598  1.00  0.00     0.016 A 
ENDBRANCH   7  10
BRANCH   9  16
HETATM   16  C   UNL     1      27.016  42.698  50.551  1.00  0.00     0.046 A 
HETATM   17  C   UNL     1      27.403  41.236  50.631  1.00  0.00     0.012 A 
HETATM   18  C   UNL     1      25.964  41.614  50.669  1.00  0.00     0.012 A 
ENDBRANCH   9  16
ENDBRANCH   2   5
BRANCH   1  19
HETATM   19  N   UNL     1      24.564  47.085  50.308  1.00  0.00    -0.263 N 
HETATM   20  C   UNL     1      24.789  48.220  49.559  1.00  0.00     0.270 C 
HETATM   21  O   UNL     1      25.907  48.618  49.248  1.00  0.00    -0.266 OA
HETATM   22  H   UNL     1      23.643  46.671  50.440  1.00  0.00     0.190 HD
BRANCH  20  23
HETATM   23  C   UNL     1      23.566  48.949  49.125  1.00  0.00     0.033 A 
HETATM   24  C   UNL     1      23.609  50.305  48.774  1.00  0.00     0.020 A 
HETATM   25  C   UNL     1      22.445  50.966  48.363  1.00  0.00     0.038 A 
HETATM   26  C   UNL     1      21.234  50.276  48.290  1.00  0.00     0.068 A 
HETATM   27  C   UNL     1      21.196  48.922  48.634  1.00  0.00     0.038 A 
HETATM   28  C   UNL     1      22.356  48.254  49.042  1.00  0.00     0.020 A 
BRANCH  26  29
HETATM   29  O   UNL     1      20.035  50.805  47.900  1.00  0.00    -0.352 OA
BRANCH  29  30
HETATM   30  C   UNL     1      19.663  52.060  48.472  1.00  0.00     0.171 C 
HETATM   31  C   UNL     1      19.039  51.795  49.830  1.00  0.00     0.034 C 
ENDBRANCH  29  30
ENDBRANCH  26  29
ENDBRANCH  20  23
ENDBRANCH   1  19
TORSDOF 7
ENDMDL
MODEL 2
REMARK VINA RESULT:      -8.8      1.901     10.292
REMARK  7 active torsions:
REMARK  status: ('A' for Active; 'I' for Inactive)
REMARK    1  A    between atoms: C_2  and  O_3 
REMARK    2  A    between atoms: O_3  and  C_4 
REMARK    3  A    between atoms: C_7  and  C_8 
REMARK       I    between atoms: C_8  and  N_9 
REMARK    4  A    between atoms: N_9  and  N_10 
REMARK       I    between atoms: N_10  and  C_11 
REMARK    5  A    between atoms: C_11  and  C_12 
REMARK    6  A    between atoms: C_14  and  C_15 
REMARK    7  A    between atoms: C_22  and  C_23 
ROOT
HETATM    1  N   UNL     1      24.504  46.612  50.988  1.00  0.00    -0.262 N 
HETATM    2  C   UNL     1      24.614  47.627  50.059  1.00  0.00     0.291 C 
HETATM    3  O   UNL     1      25.682  48.207  49.857  1.00  0.00    -0.264 OA
HETATM    4  H   UNL     1      23.607  46.183  51.214  1.00  0.00     0.190 HD
ENDROOT
BRANCH   2   5
HETATM    5  C   UNL     1      23.368  47.944  49.380  1.00  0.00     0.159 A 
HETATM    6  N   UNL     1      22.761  49.194  49.453  1.00  0.00    -0.216 NA
HETATM    7  C   UNL     1      21.691  49.081  48.687  1.00  0.00     0.180 A 
HETATM    8  O   UNL     1      21.543  47.845  48.120  1.00  0.00    -0.293 OA
HETATM    9  C   UNL     1      22.615  47.121  48.563  1.00  0.00     0.094 A 
BRANCH   7  10
HETATM   10  C   UNL     1      20.673  50.074  48.353  1.00  0.00     0.017 A 
HETATM   11  C   UNL     1      19.867  49.895  47.219  1.00  0.00     0.016 A 
HETATM   12  C   UNL     1      18.881  50.829  46.888  1.00  0.00     0.001 A 
HETATM   13  C   UNL     1      18.689  51.956  47.686  1.00  0.00     0.000 A 
HETATM   14  C   UNL     1      19.482  52.150  48.814  1.00  0.00     0.001 A 
HETATM   15  C   UNL     1      20.468  51.216  49.145  1.00  0.00     0.016 A 
ENDBRANCH   7  10
BRANCH   9  16
HETATM   16  C   UNL     1      22.873  45.674  48.181  1.00  0.00     0.046 A 
HETATM   17  C   UNL     1      22.339  44.595  49.100  1.00  0.00     0.012 A 
HETATM   18  C   UNL     1      21.681  44.826  47.784  1.00  0.00     0.012 A 
ENDBRANCH   9  16
ENDBRANCH   2   5
BRANCH   1  19
HETATM   19  N   UNL     1      25.600  46.356  51.816  1.00  0.00    -0.263 N 
HETATM   20  C   UNL     1      25.592  45.252  52.640  1.00  0.00     0.270 C 
HETATM   21  O   UNL     1      24.676  44.437  52.676  1.00  0.00    -0.266 OA
HETATM   22  H   UNL     1      26.417  46.947  51.672  1.00  0.00     0.190 HD
BRANCH  20  23
HETATM   23  C   UNL     1      26.799  45.091  53.497  1.00  0.00     0.033 A 
HETATM   24  C   UNL     1      27.601  43.944  53.420  1.00  0.00     0.020 A 
HETATM   25  C   UNL     1      28.735  43.819  54.232  1.00  0.00     0.038 A 
HETATM   26  C   UNL     1      29.080  44.840  55.119  1.00  0.00     0.068 A 
HETATM   27  C   UNL     1      28.281  45.985  55.188  1.00  0.00     0.038 A 
HETATM   28  C   UNL     1      27.149  46.118  54.376  1.00  0.00     0.020 A 
BRANCH  26  29
HETATM   29  O   UNL     1      30.160  44.840  55.958  1.00  0.00    -0.352 OA
BRANCH  29  30
HETATM   30  C   UNL     1      31.044  43.722  55.875  1.00  0.00     0.171 C 
HETATM   31  C   UNL     1      31.675  43.516  57.240  1.00  0.00     0.034 C 
ENDBRANCH  29  30
ENDBRANCH  26  29
ENDBRANCH  20  23
ENDBRANCH   1  19
TORSDOF 7
ENDMDL
MODEL 3
REMARK VINA RESULT:      -8.6      1.138      1.767
REMARK  7 active torsions:
REMARK  status: ('A' for Active; 'I' for Inactive)
REMARK    1  A    between atoms: C_2  and  O_3 
REMARK    2  A    between atoms: O_3  and  C_4 
REMARK    3  A    between atoms: C_7  and  C_8 
REMARK       I    between atoms: C_8  and  N_9 
REMARK    4  A    between atoms: N_9  and  N_10 
REMARK       I    between atoms: N_10  and  C_11 
REMARK    5  A    between atoms: C_11  and  C_12 
REMARK    6  A    between atoms: C_14  and  C_15 
REMARK    7  A    between atoms: C_22  and  C_23 
ROOT
HETATM    1  N   UNL     1      25.652  45.354  50.254  1.00  0.00    -0.262 N 
HETATM    2  C   UNL     1      25.325  44.420  51.218  1.00  0.00     0.291 C 
HETATM    3  O   UNL     1      24.159  44.072  51.412  1.00  0.00    -0.264 OA
HETATM    4  H   UNL     1      26.604  45.702  50.143  1.00  0.00     0.190 HD
ENDROOT
BRANCH   2   5
HETATM    5  C   UNL     1      26.465  43.922  51.970  1.00  0.00     0.159 A 
HETATM    6  N   UNL     1      27.099  44.662  52.964  1.00  0.00    -0.216 NA
HETATM    7  C   UNL     1      28.044  43.856  53.415  1.00  0.00     0.180 A 
HETATM    8  O   UNL     1      28.086  42.643  52.784  1.00  0.00    -0.293 OA
HETATM    9  C   UNL     1      27.077  42.687  51.863  1.00  0.00     0.094 A 
BRANCH   7  10
HETATM   10  C   UNL     1      29.020  44.068  54.480  1.00  0.00     0.017 A 
HETATM   11  C   UNL     1      28.988  45.251  55.233  1.00  0.00     0.016 A 
HETATM   12  C   UNL     1      29.908  45.468  56.264  1.00  0.00     0.001 A 
HETATM   13  C   UNL     1      30.873  44.505  56.553  1.00  0.00     0.000 A 
HETATM   14  C   UNL     1      30.921  43.326  55.814  1.00  0.00     0.001 A 
HETATM   15  C   UNL     1      30.001  43.109  54.784  1.00  0.00     0.016 A 
ENDBRANCH   7  10
BRANCH   9  16
HETATM   16  C   UNL     1      26.740  41.542  50.924  1.00  0.00     0.046 A 
HETATM   17  C   UNL     1      27.087  41.706  49.458  1.00  0.00     0.012 A 
HETATM   18  C   UNL     1      27.892  40.780  50.301  1.00  0.00     0.012 A 
ENDBRANCH   9  16
ENDBRANCH   2   5
BRANCH   1  19
HETATM   19  N   UNL     1      24.612  46.019  49.602  1.00  0.00    -0.263 N 
HETATM   20  C   UNL     1      24.308  47.318  49.947  1.00  0.00     0.270 C 
HETATM   21  O   UNL     1      24.925  47.960  50.790  1.00  0.00    -0.266 OA
HETATM   22  H   UNL     1      24.203  45.537  48.804  1.00  0.00     0.190 HD
BRANCH  20  23
HETATM   23  C   UNL     1      23.165  47.920  49.208  1.00  0.00     0.033 A 
HETATM   24  C   UNL     1      22.306  47.136  48.426  1.00  0.00     0.020 A 
HETATM   25  C   UNL     1      21.234  47.726  47.744  1.00  0.00     0.038 A 
HETATM   26  C   UNL     1      21.007  49.099  47.847  1.00  0.00     0.068 A 
HETATM   27  C   UNL     1      21.861  49.877  48.634  1.00  0.00     0.038 A 
HETATM   28  C   UNL     1      22.932  49.293  49.320  1.00  0.00     0.020 A 
BRANCH  26  29
HETATM   29  O   UNL     1      19.996  49.790  47.238  1.00  0.00    -0.352 OA
BRANCH  29  30
HETATM   30  C   UNL     1      18.670  49.294  47.421  1.00  0.00     0.171 C 
HETATM   31  C   UNL     1      18.097  49.925  48.677  1.00  0.00     0.034 C 
ENDBRANCH  29  30
ENDBRANCH  26  29
ENDBRANCH  20  23
ENDBRANCH   1  19
TORSDOF 7
ENDMDL
MODEL 4
REMARK VINA RESULT:      -8.5      4.498      8.417
REMARK  7 active torsions:
REMARK  status: ('A' for Active; 'I' for Inactive)
REMARK    1  A    between atoms: C_2  and  O_3 
REMARK    2  A    between atoms: O_3  and  C_4 
REMARK    3  A    between atoms: C_7  and  C_8 
REMARK       I    between atoms: C_8  and  N_9 
REMARK    4  A    between atoms: N_9  and  N_10 
REMARK       I    between atoms: N_10  and  C_11 
REMARK    5  A    between atoms: C_11  and  C_12 
REMARK    6  A    between atoms: C_14  and  C_15 
REMARK    7  A    between atoms: C_22  and  C_23 
ROOT
HETATM    1  N   UNL     1      27.603  42.319  51.027  1.00  0.00    -0.262 N 
HETATM    2  C   UNL     1      27.696  43.692  51.150  1.00  0.00     0.291 C 
HETATM    3  O   UNL     1      27.589  44.437  50.174  1.00  0.00    -0.264 OA
HETATM    4  H   UNL     1      27.769  41.696  51.818  1.00  0.00     0.190 HD
ENDROOT
BRANCH   2   5
HETATM    5  C   UNL     1      27.948  44.149  52.506  1.00  0.00     0.159 A 
HETATM    6  N   UNL     1      29.046  43.734  53.255  1.00  0.00    -0.216 NA
HETATM    7  C   UNL     1      28.928  44.392  54.395  1.00  0.00     0.180 A 
HETATM    8  O   UNL     1      27.828  45.202  54.457  1.00  0.00    -0.293 OA
HETATM    9  C   UNL     1      27.204  45.047  53.250  1.00  0.00     0.094 A 
BRANCH   7  10
HETATM   10  C   UNL     1      29.797  44.387  55.569  1.00  0.00     0.017 A 
HETATM   11  C   UNL     1      29.703  45.420  56.512  1.00  0.00     0.016 A 
HETATM   12  C   UNL     1      30.519  45.428  57.647  1.00  0.00     0.001 A 
HETATM   13  C   UNL     1      31.442  44.404  57.852  1.00  0.00     0.000 A 
HETATM   14  C   UNL     1      31.550  43.372  56.924  1.00  0.00     0.001 A 
HETATM   15  C   UNL     1      30.733  43.363  55.789  1.00  0.00     0.016 A 
ENDBRANCH   7  10
BRANCH   9  16
HETATM   16  C   UNL     1      25.926  45.768  52.860  1.00  0.00     0.046 A 
HETATM   17  C   UNL     1      25.674  47.134  53.465  1.00  0.00     0.012 A 
HETATM   18  C   UNL     1      26.054  47.028  52.029  1.00  0.00     0.012 A 
ENDBRANCH   9  16
ENDBRANCH   2   5
BRANCH   1  19
HETATM   19  N   UNL     1      27.539  41.776  49.743  1.00  0.00    -0.263 N 
HETATM   20  C   UNL     1      28.105  40.545  49.492  1.00  0.00     0.270 C 
HETATM   21  O   UNL     1      28.650  39.859  50.350  1.00  0.00    -0.266 OA
HETATM   22  H   UNL     1      26.958  42.277  49.073  1.00  0.00     0.190 HD
BRANCH  20  23
HETATM   23  C   UNL     1      28.002  40.074  48.083  1.00  0.00     0.033 A 
HETATM   24  C   UNL     1      27.708  40.959  47.037  1.00  0.00     0.020 A 
HETATM   25  C   UNL     1      27.622  40.492  45.720  1.00  0.00     0.038 A 
HETATM   26  C   UNL     1      27.839  39.143  45.437  1.00  0.00     0.068 A 
HETATM   27  C   UNL     1      28.139  38.264  46.482  1.00  0.00     0.038 A 
HETATM   28  C   UNL     1      28.230  38.725  47.800  1.00  0.00     0.020 A 
BRANCH  26  29
HETATM   29  O   UNL     1      27.790  38.567  44.197  1.00  0.00    -0.352 OA
BRANCH  29  30
HETATM   30  C   UNL     1      28.995  37.979  43.707  1.00  0.00     0.171 C 
HETATM   31  C   UNL     1      29.799  39.059  43.006  1.00  0.00     0.034 C 
ENDBRANCH  29  30
ENDBRANCH  26  29
ENDBRANCH  20  23
ENDBRANCH   1  19
TORSDOF 7
ENDMDL
MODEL 5
REMARK VINA RESULT:      -8.3      2.087     10.220
REMARK  7 active torsions:
REMARK  status: ('A' for Active; 'I' for Inactive)
REMARK    1  A    between atoms: C_2  and  O_3 
REMARK    2  A    between atoms: O_3  and  C_4 
REMARK    3  A    between atoms: C_7  and  C_8 
REMARK       I    between atoms: C_8  and  N_9 
REMARK    4  A    between atoms: N_9  and  N_10 
REMARK       I    between atoms: N_10  and  C_11 
REMARK    5  A    between atoms: C_11  and  C_12 
REMARK    6  A    between atoms: C_14  and  C_15 
REMARK    7  A    between atoms: C_22  and  C_23 
ROOT
HETATM    1  N   UNL     1      24.502  45.738  50.843  1.00  0.00    -0.262 N 
HETATM    2  C   UNL     1      24.632  46.552  49.735  1.00  0.00     0.291 C 
HETATM    3  O   UNL     1      25.736  46.856  49.282  1.00  0.00    -0.264 OA
HETATM    4  H   UNL     1      23.594  45.549  51.268  1.00  0.00     0.190 HD
ENDROOT
BRANCH   2   5
HETATM    5  C   UNL     1      23.367  47.017  49.191  1.00  0.00     0.159 A 
HETATM    6  N   UNL     1      22.942  48.340  49.280  1.00  0.00    -0.216 NA
HETATM    7  C   UNL     1      21.784  48.352  48.647  1.00  0.00     0.180 A 
HETATM    8  O   UNL     1      21.407  47.133  48.154  1.00  0.00    -0.293 OA
HETATM    9  C   UNL     1      22.419  46.282  48.502  1.00  0.00     0.094 A 
BRANCH   7  10
HETATM   10  C   UNL     1      20.873  49.465  48.389  1.00  0.00     0.017 A 
HETATM   11  C   UNL     1      19.702  49.253  47.648  1.00  0.00     0.016 A 
HETATM   12  C   UNL     1      18.813  50.303  47.399  1.00  0.00     0.001 A 
HETATM   13  C   UNL     1      19.084  51.579  47.888  1.00  0.00     0.000 A 
HETATM   14  C   UNL     1      20.244  51.808  48.625  1.00  0.00     0.001 A 
HETATM   15  C   UNL     1      21.133  50.758  48.873  1.00  0.00     0.016 A 
ENDBRANCH   7  10
BRANCH   9  16
HETATM   16  C   UNL     1      22.437  44.804  48.155  1.00  0.00     0.046 A 
HETATM   17  C   UNL     1      21.562  44.337  47.010  1.00  0.00     0.012 A 
HETATM   18  C   UNL     1      23.038  44.400  46.824  1.00  0.00     0.012 A 
ENDBRANCH   9  16
ENDBRANCH   2   5
BRANCH   1  19
HETATM   19  N   UNL     1      25.659  45.387  51.542  1.00  0.00    -0.263 N 
HETATM   20  C   UNL     1      25.566  44.598  52.667  1.00  0.00     0.270 C 
HETATM   21  O   UNL     1      24.510  44.143  53.093  1.00  0.00    -0.266 OA
HETATM   22  H   UNL     1      26.542  45.640  51.101  1.00  0.00     0.190 HD
BRANCH  20  23
HETATM   23  C   UNL     1      26.858  44.307  53.347  1.00  0.00     0.033 A 
HETATM   24  C   UNL     1      27.381  45.168  54.321  1.00  0.00     0.020 A 
HETATM   25  C   UNL     1      28.595  44.869  54.951  1.00  0.00     0.038 A 
HETATM   26  C   UNL     1      29.290  43.705  54.620  1.00  0.00     0.068 A 
HETATM   27  C   UNL     1      28.762  42.844  53.653  1.00  0.00     0.038 A 
HETATM   28  C   UNL     1      27.547  43.135  53.022  1.00  0.00     0.020 A 
BRANCH  26  29
HETATM   29  O   UNL     1      30.477  43.300  55.165  1.00  0.00    -0.352 OA
BRANCH  29  30
HETATM   30  C   UNL     1      31.078  44.168  56.127  1.00  0.00     0.171 C 
HETATM   31  C   UNL     1      31.770  43.310  57.171  1.00  0.00     0.034 C 
ENDBRANCH  29  30
ENDBRANCH  26  29
ENDBRANCH  20  23
ENDBRANCH   1  19
TORSDOF 7
ENDMDL
MODEL 6
REMARK VINA RESULT:      -8.0      2.591     10.307
REMARK  7 active torsions:
REMARK  status: ('A' for Active; 'I' for Inactive)
REMARK    1  A    between atoms: C_2  and  O_3 
REMARK    2  A    between atoms: O_3  and  C_4 
REMARK    3  A    between atoms: C_7  and  C_8 
REMARK       I    between atoms: C_8  and  N_9 
REMARK    4  A    between atoms: N_9  and  N_10 
REMARK       I    between atoms: N_10  and  C_11 
REMARK    5  A    between atoms: C_11  and  C_12 
REMARK    6  A    between atoms: C_14  and  C_15 
REMARK    7  A    between atoms: C_22  and  C_23 
ROOT
HETATM    1  N   UNL     1      24.393  46.720  51.257  1.00  0.00    -0.262 N 
HETATM    2  C   UNL     1      24.604  46.871  49.901  1.00  0.00     0.291 C 
HETATM    3  O   UNL     1      25.732  46.809  49.410  1.00  0.00    -0.264 OA
HETATM    4  H   UNL     1      23.473  46.849  51.677  1.00  0.00     0.190 HD
ENDROOT
BRANCH   2   5
HETATM    5  C   UNL     1      23.392  47.126  49.139  1.00  0.00     0.159 A 
HETATM    6  N   UNL     1      22.461  46.136  48.841  1.00  0.00    -0.216 NA
HETATM    7  C   UNL     1      21.512  46.771  48.178  1.00  0.00     0.180 A 
HETATM    8  O   UNL     1      21.754  48.107  48.007  1.00  0.00    -0.293 OA
HETATM    9  C   UNL     1      22.954  48.332  48.622  1.00  0.00     0.094 A 
BRANCH   7  10
HETATM   10  C   UNL     1      20.259  46.263  47.625  1.00  0.00     0.017 A 
HETATM   11  C   UNL     1      20.133  44.901  47.315  1.00  0.00     0.016 A 
HETATM   12  C   UNL     1      18.939  44.394  46.795  1.00  0.00     0.001 A 
HETATM   13  C   UNL     1      17.856  45.242  46.576  1.00  0.00     0.000 A 
HETATM   14  C   UNL     1      17.964  46.598  46.876  1.00  0.00     0.001 A 
HETATM   15  C   UNL     1      19.158  47.105  47.396  1.00  0.00     0.016 A 
ENDBRANCH   7  10
BRANCH   9  16
HETATM   16  C   UNL     1      23.626  49.691  48.691  1.00  0.00     0.046 A 
HETATM   17  C   UNL     1      23.152  50.763  47.732  1.00  0.00     0.012 A 
HETATM   18  C   UNL     1      22.797  50.863  49.175  1.00  0.00     0.012 A 
ENDBRANCH   9  16
ENDBRANCH   2   5
BRANCH   1  19
HETATM   19  N   UNL     1      25.510  46.649  52.093  1.00  0.00    -0.263 N 
HETATM   20  C   UNL     1      25.652  45.584  52.956  1.00  0.00     0.270 C 
HETATM   21  O   UNL     1      24.859  44.651  53.021  1.00  0.00    -0.266 OA
HETATM   22  H   UNL     1      26.237  47.343  51.928  1.00  0.00     0.190 HD
BRANCH  20  23
HETATM   23  C   UNL     1      26.865  45.624  53.818  1.00  0.00     0.033 A 
HETATM   24  C   UNL     1      27.660  44.486  54.012  1.00  0.00     0.020 A 
HETATM   25  C   UNL     1      28.800  44.550  54.823  1.00  0.00     0.038 A 
HETATM   26  C   UNL     1      29.159  45.751  55.436  1.00  0.00     0.068 A 
HETATM   27  C   UNL     1      28.368  46.886  55.234  1.00  0.00     0.038 A 
HETATM   28  C   UNL     1      27.230  46.829  54.422  1.00  0.00     0.020 A 
BRANCH  26  29
HETATM   29  O   UNL     1      30.246  45.943  56.243  1.00  0.00    -0.352 OA
BRANCH  29  30
HETATM   30  C   UNL     1      30.646  44.846  57.064  1.00  0.00     0.171 C 
HETATM   31  C   UNL     1      30.579  45.290  58.514  1.00  0.00     0.034 C 
ENDBRANCH  29  30
ENDBRANCH  26  29
ENDBRANCH  20  23
ENDBRANCH   1  19
TORSDOF 7
ENDMDL
MODEL 7
REMARK VINA RESULT:      -7.9      4.971      9.725
REMARK  7 active torsions:
REMARK  status: ('A' for Active; 'I' for Inactive)
REMARK    1  A    between atoms: C_2  and  O_3 
REMARK    2  A    between atoms: O_3  and  C_4 
REMARK    3  A    between atoms: C_7  and  C_8 
REMARK       I    between atoms: C_8  and  N_9 
REMARK    4  A    between atoms: N_9  and  N_10 
REMARK       I    between atoms: N_10  and  C_11 
REMARK    5  A    between atoms: C_11  and  C_12 
REMARK    6  A    between atoms: C_14  and  C_15 
REMARK    7  A    between atoms: C_22  and  C_23 
ROOT
HETATM    1  N   UNL     1      28.433  40.152  51.137  1.00  0.00    -0.262 N 
HETATM    2  C   UNL     1      27.375  40.983  51.448  1.00  0.00     0.291 C 
HETATM    3  O   UNL     1      26.226  40.732  51.082  1.00  0.00    -0.264 OA
HETATM    4  H   UNL     1      29.396  40.395  51.370  1.00  0.00     0.190 HD
ENDROOT
BRANCH   2   5
HETATM    5  C   UNL     1      27.753  42.161  52.212  1.00  0.00     0.159 A 
HETATM    6  N   UNL     1      28.550  42.103  53.351  1.00  0.00    -0.216 NA
HETATM    7  C   UNL     1      28.683  43.365  53.718  1.00  0.00     0.180 A 
HETATM    8  O   UNL     1      28.024  44.250  52.911  1.00  0.00    -0.293 OA
HETATM    9  C   UNL     1      27.432  43.480  51.949  1.00  0.00     0.094 A 
BRANCH   7  10
HETATM   10  C   UNL     1      29.432  43.938  54.834  1.00  0.00     0.017 A 
HETATM   11  C   UNL     1      30.504  43.229  55.394  1.00  0.00     0.016 A 
HETATM   12  C   UNL     1      31.240  43.764  56.455  1.00  0.00     0.001 A 
HETATM   13  C   UNL     1      30.911  45.016  56.972  1.00  0.00     0.000 A 
HETATM   14  C   UNL     1      29.847  45.733  56.430  1.00  0.00     0.001 A 
HETATM   15  C   UNL     1      29.112  45.197  55.368  1.00  0.00     0.016 A 
ENDBRANCH   7  10
BRANCH   9  16
HETATM   16  C   UNL     1      26.588  44.041  50.817  1.00  0.00     0.046 A 
HETATM   17  C   UNL     1      26.238  45.514  50.862  1.00  0.00     0.012 A 
HETATM   18  C   UNL     1      27.243  45.031  49.875  1.00  0.00     0.012 A 
ENDBRANCH   9  16
ENDBRANCH   2   5
BRANCH   1  19
HETATM   19  N   UNL     1      28.201  39.091  50.258  1.00  0.00    -0.263 N 
HETATM   20  C   UNL     1      28.429  39.257  48.910  1.00  0.00     0.270 C 
HETATM   21  O   UNL     1      28.863  40.292  48.416  1.00  0.00    -0.266 OA
HETATM   22  H   UNL     1      27.986  38.193  50.688  1.00  0.00     0.190 HD
BRANCH  20  23
HETATM   23  C   UNL     1      28.123  38.071  48.063  1.00  0.00     0.033 A 
HETATM   24  C   UNL     1      28.926  37.731  46.966  1.00  0.00     0.020 A 
HETATM   25  C   UNL     1      28.621  36.606  46.189  1.00  0.00     0.038 A 
HETATM   26  C   UNL     1      27.520  35.811  46.508  1.00  0.00     0.068 A 
HETATM   27  C   UNL     1      26.726  36.149  47.607  1.00  0.00     0.038 A 
HETATM   28  C   UNL     1      27.027  37.269  48.390  1.00  0.00     0.020 A 
BRANCH  26  29
HETATM   29  O   UNL     1      27.122  34.689  45.833  1.00  0.00    -0.352 OA
BRANCH  29  30
HETATM   30  C   UNL     1      28.148  33.789  45.411  1.00  0.00     0.171 C 
HETATM   31  C   UNL     1      28.087  33.679  43.898  1.00  0.00     0.034 C 
ENDBRANCH  29  30
ENDBRANCH  26  29
ENDBRANCH  20  23
ENDBRANCH   1  19
TORSDOF 7
ENDMDL
MODEL 8
REMARK VINA RESULT:      -7.6     12.199     15.392
REMARK  7 active torsions:
REMARK  status: ('A' for Active; 'I' for Inactive)
REMARK    1  A    between atoms: C_2  and  O_3 
REMARK    2  A    between atoms: O_3  and  C_4 
REMARK    3  A    between atoms: C_7  and  C_8 
REMARK       I    between atoms: C_8  and  N_9 
REMARK    4  A    between atoms: N_9  and  N_10 
REMARK       I    between atoms: N_10  and  C_11 
REMARK    5  A    between atoms: C_11  and  C_12 
REMARK    6  A    between atoms: C_14  and  C_15 
REMARK    7  A    between atoms: C_22  and  C_23 
ROOT
HETATM    1  N   UNL     1      33.384  51.620  42.563  1.00  0.00    -0.262 N 
HETATM    2  C   UNL     1      32.260  51.184  43.236  1.00  0.00     0.291 C 
HETATM    3  O   UNL     1      32.157  51.290  44.459  1.00  0.00    -0.264 OA
HETATM    4  H   UNL     1      33.507  51.464  41.563  1.00  0.00     0.190 HD
ENDROOT
BRANCH   2   5
HETATM    5  C   UNL     1      31.251  50.584  42.378  1.00  0.00     0.159 A 
HETATM    6  N   UNL     1      31.180  49.215  42.133  1.00  0.00    -0.216 NA
HETATM    7  C   UNL     1      30.127  49.081  41.348  1.00  0.00     0.180 A 
HETATM    8  O   UNL     1      29.504  50.261  41.047  1.00  0.00    -0.293 OA
HETATM    9  C   UNL     1      30.223  51.220  41.706  1.00  0.00     0.094 A 
BRANCH   7  10
HETATM   10  C   UNL     1      29.536  47.873  40.777  1.00  0.00     0.017 A 
HETATM   11  C   UNL     1      28.247  47.478  41.161  1.00  0.00     0.016 A 
HETATM   12  C   UNL     1      27.660  46.330  40.620  1.00  0.00     0.001 A 
HETATM   13  C   UNL     1      28.356  45.562  39.688  1.00  0.00     0.000 A 
HETATM   14  C   UNL     1      29.639  45.939  39.298  1.00  0.00     0.001 A 
HETATM   15  C   UNL     1      30.226  47.087  39.839  1.00  0.00     0.016 A 
ENDBRANCH   7  10
BRANCH   9  16
HETATM   16  C   UNL     1      29.891  52.701  41.669  1.00  0.00     0.046 A 
HETATM   17  C   UNL     1      30.823  53.614  40.899  1.00  0.00     0.012 A 
HETATM   18  C   UNL     1      29.480  53.297  40.338  1.00  0.00     0.012 A 
ENDBRANCH   9  16
ENDBRANCH   2   5
BRANCH   1  19
HETATM   19  N   UNL     1      34.479  52.047  43.317  1.00  0.00    -0.263 N 
HETATM   20  C   UNL     1      35.757  51.791  42.873  1.00  0.00     0.270 C 
HETATM   21  O   UNL     1      36.009  51.224  41.816  1.00  0.00    -0.266 OA
HETATM   22  H   UNL     1      34.267  52.646  44.114  1.00  0.00     0.190 HD
BRANCH  20  23
HETATM   23  C   UNL     1      36.848  52.267  43.768  1.00  0.00     0.033 A 
HETATM   24  C   UNL     1      37.973  51.475  44.034  1.00  0.00     0.020 A 
HETATM   25  C   UNL     1      38.988  51.948  44.874  1.00  0.00     0.038 A 
HETATM   26  C   UNL     1      38.892  53.217  45.446  1.00  0.00     0.068 A 
HETATM   27  C   UNL     1      37.771  54.008  45.173  1.00  0.00     0.038 A 
HETATM   28  C   UNL     1      36.755  53.543  44.331  1.00  0.00     0.020 A 
BRANCH  26  29
HETATM   29  O   UNL     1      39.814  53.793  46.275  1.00  0.00    -0.352 OA
BRANCH  29  30
HETATM   30  C   UNL     1      39.314  54.618  47.328  1.00  0.00     0.171 C 
HETATM   31  C   UNL     1      38.896  53.719  48.477  1.00  0.00     0.034 C 
ENDBRANCH  29  30
ENDBRANCH  26  29
ENDBRANCH  20  23
ENDBRANCH   1  19
TORSDOF 7
ENDMDL
MODEL 9
REMARK VINA RESULT:      -7.6     17.942     19.454
REMARK  7 active torsions:
REMARK  status: ('A' for Active; 'I' for Inactive)
REMARK    1  A    between atoms: C_2  and  O_3 
REMARK    2  A    between atoms: O_3  and  C_4 
REMARK    3  A    between atoms: C_7  and  C_8 
REMARK       I    between atoms: C_8  and  N_9 
REMARK    4  A    between atoms: N_9  and  N_10 
REMARK       I    between atoms: N_10  and  C_11 
REMARK    5  A    between atoms: C_11  and  C_12 
REMARK    6  A    between atoms: C_14  and  C_15 
REMARK    7  A    between atoms: C_22  and  C_23 
ROOT
HETATM    1  N   UNL     1      37.685  46.401  65.704  1.00  0.00    -0.262 N 
HETATM    2  C   UNL     1      37.030  45.847  64.622  1.00  0.00     0.291 C 
HETATM    3  O   UNL     1      36.461  46.546  63.782  1.00  0.00    -0.264 OA
HETATM    4  H   UNL     1      38.089  45.825  66.442  1.00  0.00     0.190 HD
ENDROOT
BRANCH   2   5
HETATM    5  C   UNL     1      37.062  44.393  64.592  1.00  0.00     0.159 A 
HETATM    6  N   UNL     1      38.129  43.669  64.068  1.00  0.00    -0.216 NA
HETATM    7  C   UNL     1      37.788  42.407  64.258  1.00  0.00     0.180 A 
HETATM    8  O   UNL     1      36.571  42.246  64.859  1.00  0.00    -0.293 OA
HETATM    9  C   UNL     1      36.108  43.515  65.073  1.00  0.00     0.094 A 
BRANCH   7  10
HETATM   10  C   UNL     1      38.520  41.185  63.937  1.00  0.00     0.017 A 
HETATM   11  C   UNL     1      38.832  40.269  64.952  1.00  0.00     0.016 A 
HETATM   12  C   UNL     1      39.524  39.089  64.663  1.00  0.00     0.001 A 
HETATM   13  C   UNL     1      39.913  38.809  63.355  1.00  0.00     0.000 A 
HETATM   14  C   UNL     1      39.613  39.709  62.334  1.00  0.00     0.001 A 
HETATM   15  C   UNL     1      38.922  40.889  62.623  1.00  0.00     0.016 A 
ENDBRANCH   7  10
BRANCH   9  16
HETATM   16  C   UNL     1      34.777  43.830  65.731  1.00  0.00     0.046 A 
HETATM   17  C   UNL     1      34.020  42.688  66.376  1.00  0.00     0.012 A 
HETATM   18  C   UNL     1      34.689  43.701  67.238  1.00  0.00     0.012 A 
ENDBRANCH   9  16
ENDBRANCH   2   5
BRANCH   1  19
HETATM   19  N   UNL     1      37.559  47.776  65.916  1.00  0.00    -0.263 N 
HETATM   20  C   UNL     1      37.950  48.321  67.119  1.00  0.00     0.270 C 
HETATM   21  O   UNL     1      38.444  47.669  68.033  1.00  0.00    -0.266 OA
HETATM   22  H   UNL     1      37.291  48.331  65.105  1.00  0.00     0.190 HD
BRANCH  20  23
HETATM   23  C   UNL     1      37.747  49.791  67.246  1.00  0.00     0.033 A 
HETATM   24  C   UNL     1      37.923  50.650  66.152  1.00  0.00     0.020 A 
HETATM   25  C   UNL     1      37.720  52.027  66.296  1.00  0.00     0.038 A 
HETATM   26  C   UNL     1      37.330  52.555  67.527  1.00  0.00     0.068 A 
HETATM   27  C   UNL     1      37.148  51.695  68.614  1.00  0.00     0.038 A 
HETATM   28  C   UNL     1      37.346  50.317  68.477  1.00  0.00     0.020 A 
BRANCH  26  29
HETATM   29  O   UNL     1      37.096  53.876  67.793  1.00  0.00    -0.352 OA
BRANCH  29  30
HETATM   30  C   UNL     1      37.551  54.823  66.825  1.00  0.00     0.171 C 
HETATM   31  C   UNL     1      36.534  55.947  66.747  1.00  0.00     0.034 C 
ENDBRANCH  29  30
ENDBRANCH  26  29
ENDBRANCH  20  23
ENDBRANCH   1  19
TORSDOF 7
ENDMDL
MODEL 10
REMARK VINA RESULT:      -7.4     13.482     14.589
REMARK  7 active torsions:
REMARK  status: ('A' for Active; 'I' for Inactive)
REMARK    1  A    between atoms: C_2  and  O_3 
REMARK    2  A    between atoms: O_3  and  C_4 
REMARK    3  A    between atoms: C_7  and  C_8 
REMARK       I    between atoms: C_8  and  N_9 
REMARK    4  A    between atoms: N_9  and  N_10 
REMARK       I    between atoms: N_10  and  C_11 
REMARK    5  A    between atoms: C_11  and  C_12 
REMARK    6  A    between atoms: C_14  and  C_15 
REMARK    7  A    between atoms: C_22  and  C_23 
ROOT
HETATM    1  N   UNL     1      35.218  51.699  43.812  1.00  0.00    -0.262 N 
HETATM    2  C   UNL     1      36.306  52.403  43.335  1.00  0.00     0.291 C 
HETATM    3  O   UNL     1      36.227  53.116  42.333  1.00  0.00    -0.264 OA
HETATM    4  H   UNL     1      35.299  51.048  44.594  1.00  0.00     0.190 HD
ENDROOT
BRANCH   2   5
HETATM    5  C   UNL     1      37.524  52.204  44.104  1.00  0.00     0.159 A 
HETATM    6  N   UNL     1      38.322  51.070  43.981  1.00  0.00    -0.216 NA
HETATM    7  C   UNL     1      39.327  51.289  44.809  1.00  0.00     0.180 A 
HETATM    8  O   UNL     1      39.246  52.480  45.477  1.00  0.00    -0.293 OA
HETATM    9  C   UNL     1      38.095  53.063  45.026  1.00  0.00     0.094 A 
BRANCH   7  10
HETATM   10  C   UNL     1      40.497  50.463  45.095  1.00  0.00     0.017 A 
HETATM   11  C   UNL     1      40.425  49.071  44.943  1.00  0.00     0.016 A 
HETATM   12  C   UNL     1      41.536  48.264  45.202  1.00  0.00     0.001 A 
HETATM   13  C   UNL     1      42.735  48.839  45.618  1.00  0.00     0.000 A 
HETATM   14  C   UNL     1      42.825  50.220  45.777  1.00  0.00     0.001 A 
HETATM   15  C   UNL     1      41.713  51.027  45.517  1.00  0.00     0.016 A 
ENDBRANCH   7  10
BRANCH   9  16
HETATM   16  C   UNL     1      37.594  54.418  45.492  1.00  0.00     0.046 A 
HETATM   17  C   UNL     1      38.560  55.304  46.251  1.00  0.00     0.012 A 
HETATM   18  C   UNL     1      38.197  55.651  44.849  1.00  0.00     0.012 A 
ENDBRANCH   9  16
ENDBRANCH   2   5
BRANCH   1  19
HETATM   19  N   UNL     1      34.054  51.686  43.042  1.00  0.00    -0.263 N 
HETATM   20  C   UNL     1      32.826  51.593  43.660  1.00  0.00     0.270 C 
HETATM   21  O   UNL     1      32.678  51.551  44.877  1.00  0.00    -0.266 OA
HETATM   22  H   UNL     1      34.173  51.871  42.048  1.00  0.00     0.190 HD
BRANCH  20  23
HETATM   23  C   UNL     1      31.654  51.560  42.742  1.00  0.00     0.033 A 
HETATM   24  C   UNL     1      30.916  52.718  42.459  1.00  0.00     0.020 A 
HETATM   25  C   UNL     1      29.821  52.662  41.588  1.00  0.00     0.038 A 
HETATM   26  C   UNL     1      29.463  51.455  40.986  1.00  0.00     0.068 A 
HETATM   27  C   UNL     1      30.205  50.304  41.266  1.00  0.00     0.038 A 
HETATM   28  C   UNL     1      31.303  50.353  42.133  1.00  0.00     0.020 A 
BRANCH  26  29
HETATM   29  O   UNL     1      28.423  51.272  40.117  1.00  0.00    -0.352 OA
BRANCH  29  30
HETATM   30  C   UNL     1      28.324  52.186  39.024  1.00  0.00     0.171 C 
HETATM   31  C   UNL     1      29.439  51.874  38.043  1.00  0.00     0.034 C 
ENDBRANCH  29  30
ENDBRANCH  26  29
ENDBRANCH  20  23
ENDBRANCH   1  19
TORSDOF 7
ENDMDL
