MODEL 1
REMARK VINA RESULT:      -8.9      0.000      0.000
REMARK  6 active torsions:
REMARK  status: ('A' for Active; 'I' for Inactive)
REMARK    1  A    between atoms: C_2  and  N_3 
REMARK    2  A    between atoms: C_7  and  N_8 
REMARK       I    between atoms: N_8  and  C_9 
REMARK       I    between atoms: C_9  and  N_10 
REMARK    3  A    between atoms: N_10  and  C_11 
REMARK    4  A    between atoms: C_11  and  C_12 
REMARK    5  A    between atoms: C_15  and  N_16 
REMARK       I    between atoms: N_16  and  C_17 
REMARK    6  A    between atoms: C_17  and  C_18 
ROOT
HETATM    1  N   UNL     1      22.929  46.777  49.323  1.00  0.00    -0.338 N 
HETATM    2  C   UNL     1      23.338  45.465  49.231  1.00  0.00     0.316 C 
HETATM    3  N   UNL     1      23.673  44.972  50.464  1.00  0.00    -0.339 N 
HETATM    4  O   UNL     1      23.470  44.857  48.181  1.00  0.00    -0.247 OA
HETATM    5  H   UNL     1      22.339  46.897  50.139  1.00  0.00     0.164 HD
HETATM    6  H   UNL     1      23.778  45.627  51.222  1.00  0.00     0.164 HD
ENDROOT
BRANCH   3   7
HETATM    7  C   UNL     1      24.409  43.728  50.582  1.00  0.00     0.162 C 
BRANCH   7   8
HETATM    8  C   UNL     1      25.568  43.805  51.556  1.00  0.00    -0.040 A 
HETATM    9  C   UNL     1      26.906  43.683  51.156  1.00  0.00     0.011 A 
HETATM   10  C   UNL     1      27.942  43.687  52.097  1.00  0.00     0.030 A 
HETATM   11  C   UNL     1      27.664  43.843  53.454  1.00  0.00     0.035 A 
HETATM   12  C   UNL     1      26.340  44.047  53.851  1.00  0.00     0.030 A 
HETATM   13  C   UNL     1      25.301  44.022  52.914  1.00  0.00     0.011 A 
BRANCH  11  14
HETATM   14  N   UNL     1      28.641  43.797  54.462  1.00  0.00    -0.321 N 
HETATM   15  C   UNL     1      29.189  44.852  55.173  1.00  0.00     0.279 C 
HETATM   16  O   UNL     1      28.884  46.034  55.034  1.00  0.00    -0.265 OA
HETATM   17  H   UNL     1      29.071  42.896  54.651  1.00  0.00     0.169 HD
BRANCH  15  18
HETATM   18  C   UNL     1      30.225  44.419  56.095  1.00  0.00     0.142 A 
HETATM   19  O   UNL     1      30.357  45.060  57.302  1.00  0.00    -0.317 OA
HETATM   20  C   UNL     1      31.375  44.455  57.967  1.00  0.00     0.143 A 
HETATM   21  C   UNL     1      31.903  43.433  57.215  1.00  0.00     0.027 A 
HETATM   22  C   UNL     1      31.164  43.410  56.008  1.00  0.00     0.045 A 
ENDBRANCH  15  18
ENDBRANCH  11  14
ENDBRANCH   7   8
ENDBRANCH   3   7
BRANCH   1  23
HETATM   23  C   UNL     1      22.550  47.582  48.158  1.00  0.00     0.089 C 
HETATM   24  C   UNL     1      22.854  49.079  48.249  1.00  0.00     0.053 C 
HETATM   25  C   UNL     1      22.114  49.737  49.400  1.00  0.00     0.237 C 
HETATM   26  N   UNL     1      20.606  49.568  49.217  1.00  0.00    -0.067 N 
HETATM   27  H   UNL     1      20.351  50.056  48.348  1.00  0.00     0.280 HD
HETATM   28  C   UNL     1      20.242  48.102  49.049  1.00  0.00     0.237 C 
HETATM   29  C   UNL     1      21.045  47.442  47.931  1.00  0.00     0.053 C 
BRANCH  26  30
HETATM   30  C   UNL     1      19.816  50.249  50.357  1.00  0.00     0.180 C 
HETATM   31  C   UNL     1      18.677  49.342  50.830  1.00  0.00     0.039 C 
HETATM   32  C   UNL     1      19.225  51.575  49.872  1.00  0.00     0.039 C 
ENDBRANCH  26  30
ENDBRANCH   1  23
TORSDOF 6
ENDMDL
MODEL 2
REMARK VINA RESULT:      -8.6      4.495     12.108
REMARK  6 active torsions:
REMARK  status: ('A' for Active; 'I' for Inactive)
REMARK    1  A    between atoms: C_2  and  N_3 
REMARK    2  A    between atoms: C_7  and  N_8 
REMARK       I    between atoms: N_8  and  C_9 
REMARK       I    between atoms: C_9  and  N_10 
REMARK    3  A    between atoms: N_10  and  C_11 
REMARK    4  A    between atoms: C_11  and  C_12 
REMARK    5  A    between atoms: C_15  and  N_16 
REMARK       I    between atoms: N_16  and  C_17 
REMARK    6  A    between atoms: C_17  and  C_18 
ROOT
HETATM    1  N   UNL     1      24.082  47.418  50.384  1.00  0.00    -0.338 N 
HETATM    2  C   UNL     1      23.588  48.480  49.660  1.00  0.00     0.316 C 
HETATM    3  N   UNL     1      22.280  48.267  49.316  1.00  0.00    -0.339 N 
HETATM    4  O   UNL     1      24.254  49.435  49.298  1.00  0.00    -0.247 OA
HETATM    5  H   UNL     1      23.386  47.102  51.051  1.00  0.00     0.164 HD
HETATM    6  H   UNL     1      21.904  47.340  49.438  1.00  0.00     0.164 HD
ENDROOT
BRANCH   3   7
HETATM    7  C   UNL     1      21.641  49.092  48.309  1.00  0.00     0.162 C 
BRANCH   7   8
HETATM    8  C   UNL     1      20.543  49.977  48.864  1.00  0.00    -0.040 A 
HETATM    9  C   UNL     1      19.673  49.561  49.882  1.00  0.00     0.011 A 
HETATM   10  C   UNL     1      18.627  50.383  50.315  1.00  0.00     0.030 A 
HETATM   11  C   UNL     1      18.446  51.650  49.761  1.00  0.00     0.035 A 
HETATM   12  C   UNL     1      19.359  52.102  48.805  1.00  0.00     0.030 A 
HETATM   13  C   UNL     1      20.393  51.274  48.355  1.00  0.00     0.011 A 
BRANCH  11  14
HETATM   14  N   UNL     1      17.386  52.507  50.099  1.00  0.00    -0.321 N 
HETATM   15  C   UNL     1      16.067  52.445  49.679  1.00  0.00     0.279 C 
HETATM   16  O   UNL     1      15.603  51.592  48.928  1.00  0.00    -0.265 OA
HETATM   17  H   UNL     1      17.611  53.328  50.654  1.00  0.00     0.169 HD
BRANCH  15  18
HETATM   18  C   UNL     1      15.272  53.548  50.190  1.00  0.00     0.142 A 
HETATM   19  O   UNL     1      15.648  54.836  49.897  1.00  0.00    -0.317 OA
HETATM   20  C   UNL     1      14.736  55.660  50.476  1.00  0.00     0.143 A 
HETATM   21  C   UNL     1      13.776  54.930  51.134  1.00  0.00     0.027 A 
HETATM   22  C   UNL     1      14.121  53.569  50.953  1.00  0.00     0.045 A 
ENDBRANCH  15  18
ENDBRANCH  11  14
ENDBRANCH   7   8
ENDBRANCH   3   7
BRANCH   1  23
HETATM   23  C   UNL     1      25.469  47.344  50.854  1.00  0.00     0.089 C 
HETATM   24  C   UNL     1      26.458  46.646  49.917  1.00  0.00     0.053 C 
HETATM   25  C   UNL     1      26.080  45.196  49.676  1.00  0.00     0.237 C 
HETATM   26  N   UNL     1      26.060  44.433  51.001  1.00  0.00    -0.067 N 
HETATM   27  H   UNL     1      27.016  44.460  51.378  1.00  0.00     0.280 HD
HETATM   28  C   UNL     1      25.147  45.117  52.005  1.00  0.00     0.237 C 
HETATM   29  C   UNL     1      25.501  46.591  52.183  1.00  0.00     0.053 C 
BRANCH  26  30
HETATM   30  C   UNL     1      25.705  42.944  50.793  1.00  0.00     0.180 C 
HETATM   31  C   UNL     1      26.398  42.401  49.541  1.00  0.00     0.039 C 
HETATM   32  C   UNL     1      24.192  42.778  50.633  1.00  0.00     0.039 C 
ENDBRANCH  26  30
ENDBRANCH   1  23
TORSDOF 6
ENDMDL
MODEL 3
REMARK VINA RESULT:      -8.5      5.725     10.330
REMARK  6 active torsions:
REMARK  status: ('A' for Active; 'I' for Inactive)
REMARK    1  A    between atoms: C_2  and  N_3 
REMARK    2  A    between atoms: C_7  and  N_8 
REMARK       I    between atoms: N_8  and  C_9 
REMARK       I    between atoms: C_9  and  N_10 
REMARK    3  A    between atoms: N_10  and  C_11 
REMARK    4  A    between atoms: C_11  and  C_12 
REMARK    5  A    between atoms: C_15  and  N_16 
REMARK       I    between atoms: N_16  and  C_17 
REMARK    6  A    between atoms: C_17  and  C_18 
ROOT
HETATM    1  N   UNL     1      15.717  53.941  50.544  1.00  0.00    -0.338 N 
HETATM    2  C   UNL     1      16.116  52.810  49.867  1.00  0.00     0.316 C 
HETATM    3  N   UNL     1      17.317  53.016  49.243  1.00  0.00    -0.339 N 
HETATM    4  O   UNL     1      15.444  51.797  49.762  1.00  0.00    -0.247 OA
HETATM    5  H   UNL     1      16.511  54.360  51.014  1.00  0.00     0.164 HD
HETATM    6  H   UNL     1      17.659  53.961  49.175  1.00  0.00     0.164 HD
ENDROOT
BRANCH   3   7
HETATM    7  C   UNL     1      17.790  52.087  48.234  1.00  0.00     0.162 C 
BRANCH   7   8
HETATM    8  C   UNL     1      19.139  51.480  48.559  1.00  0.00    -0.040 A 
HETATM    9  C   UNL     1      19.706  51.530  49.841  1.00  0.00     0.011 A 
HETATM   10  C   UNL     1      20.987  51.020  50.082  1.00  0.00     0.030 A 
HETATM   11  C   UNL     1      21.716  50.424  49.054  1.00  0.00     0.035 A 
HETATM   12  C   UNL     1      21.125  50.298  47.795  1.00  0.00     0.030 A 
HETATM   13  C   UNL     1      19.853  50.826  47.546  1.00  0.00     0.011 A 
BRANCH  11  14
HETATM   14  N   UNL     1      23.028  49.946  49.203  1.00  0.00    -0.321 N 
HETATM   15  C   UNL     1      24.112  50.142  48.362  1.00  0.00     0.279 C 
HETATM   16  O   UNL     1      24.093  50.800  47.326  1.00  0.00    -0.265 OA
HETATM   17  H   UNL     1      23.205  49.306  49.972  1.00  0.00     0.169 HD
BRANCH  15  18
HETATM   18  C   UNL     1      25.297  49.434  48.814  1.00  0.00     0.142 A 
HETATM   19  O   UNL     1      25.170  48.456  49.769  1.00  0.00    -0.317 OA
HETATM   20  C   UNL     1      26.411  47.952  49.994  1.00  0.00     0.143 A 
HETATM   21  C   UNL     1      27.338  48.582  49.201  1.00  0.00     0.027 A 
HETATM   22  C   UNL     1      26.623  49.539  48.441  1.00  0.00     0.045 A 
ENDBRANCH  15  18
ENDBRANCH  11  14
ENDBRANCH   7   8
ENDBRANCH   3   7
BRANCH   1  23
HETATM   23  C   UNL     1      14.446  54.033  51.270  1.00  0.00     0.089 C 
HETATM   24  C   UNL     1      13.190  54.185  50.409  1.00  0.00     0.053 C 
HETATM   25  C   UNL     1      13.225  55.455  49.579  1.00  0.00     0.237 C 
HETATM   26  N   UNL     1      13.325  56.676  50.493  1.00  0.00    -0.067 N 
HETATM   27  H   UNL     1      12.475  56.691  51.071  1.00  0.00     0.280 HD
HETATM   28  C   UNL     1      14.518  56.556  51.428  1.00  0.00     0.237 C 
HETATM   29  C   UNL     1      14.500  55.241  52.205  1.00  0.00     0.053 C 
BRANCH  26  30
HETATM   30  C   UNL     1      13.336  57.992  49.684  1.00  0.00     0.180 C 
HETATM   31  C   UNL     1      13.535  57.699  48.194  1.00  0.00     0.039 C 
HETATM   32  C   UNL     1      14.470  58.900  50.166  1.00  0.00     0.039 C 
ENDBRANCH  26  30
ENDBRANCH   1  23
TORSDOF 6
ENDMDL
MODEL 4
REMARK VINA RESULT:      -8.5      1.990      2.616
REMARK  6 active torsions:
REMARK  status: ('A' for Active; 'I' for Inactive)
REMARK    1  A    between atoms: C_2  and  N_3 
REMARK    2  A    between atoms: C_7  and  N_8 
REMARK       I    between atoms: N_8  and  C_9 
REMARK       I    between atoms: C_9  and  N_10 
REMARK    3  A    between atoms: N_10  and  C_11 
REMARK    4  A    between atoms: C_11  and  C_12 
REMARK    5  A    between atoms: C_15  and  N_16 
REMARK       I    between atoms: N_16  and  C_17 
REMARK    6  A    between atoms: C_17  and  C_18 
ROOT
HETATM    1  N   UNL     1      22.593  48.833  49.762  1.00  0.00    -0.338 N 
HETATM    2  C   UNL     1      23.706  48.120  49.375  1.00  0.00     0.316 C 
HETATM    3  N   UNL     1      23.563  46.792  49.680  1.00  0.00    -0.339 N 
HETATM    4  O   UNL     1      24.716  48.619  48.909  1.00  0.00    -0.247 OA
HETATM    5  H   UNL     1      21.754  48.309  49.541  1.00  0.00     0.164 HD
HETATM    6  H   UNL     1      22.809  46.527  50.295  1.00  0.00     0.164 HD
ENDROOT
BRANCH   3   7
HETATM    7  C   UNL     1      24.709  45.903  49.647  1.00  0.00     0.162 C 
BRANCH   7   8
HETATM    8  C   UNL     1      25.420  45.788  50.979  1.00  0.00    -0.040 A 
HETATM    9  C   UNL     1      25.146  46.634  52.063  1.00  0.00     0.011 A 
HETATM   10  C   UNL     1      25.877  46.541  53.252  1.00  0.00     0.030 A 
HETATM   11  C   UNL     1      26.877  45.580  53.395  1.00  0.00     0.035 A 
HETATM   12  C   UNL     1      27.100  44.681  52.348  1.00  0.00     0.030 A 
HETATM   13  C   UNL     1      26.384  44.786  51.151  1.00  0.00     0.011 A 
BRANCH  11  14
HETATM   14  N   UNL     1      27.694  45.464  54.531  1.00  0.00    -0.321 N 
HETATM   15  C   UNL     1      28.279  46.477  55.273  1.00  0.00     0.279 C 
HETATM   16  O   UNL     1      28.159  47.678  55.049  1.00  0.00    -0.265 OA
HETATM   17  H   UNL     1      27.968  44.526  54.812  1.00  0.00     0.169 HD
BRANCH  15  18
HETATM   18  C   UNL     1      29.113  45.965  56.346  1.00  0.00     0.142 A 
HETATM   19  O   UNL     1      30.170  45.144  56.040  1.00  0.00    -0.317 OA
HETATM   20  C   UNL     1      30.784  44.827  57.209  1.00  0.00     0.143 A 
HETATM   21  C   UNL     1      30.147  45.429  58.267  1.00  0.00     0.027 A 
HETATM   22  C   UNL     1      29.069  46.162  57.713  1.00  0.00     0.045 A 
ENDBRANCH  15  18
ENDBRANCH  11  14
ENDBRANCH   7   8
ENDBRANCH   3   7
BRANCH   1  23
HETATM   23  C   UNL     1      22.478  50.286  49.603  1.00  0.00     0.089 C 
HETATM   24  C   UNL     1      21.355  50.961  50.395  1.00  0.00     0.053 C 
HETATM   25  C   UNL     1      19.988  50.443  49.990  1.00  0.00     0.237 C 
HETATM   26  N   UNL     1      19.747  50.708  48.504  1.00  0.00    -0.067 N 
HETATM   27  H   UNL     1      19.757  51.727  48.374  1.00  0.00     0.280 HD
HETATM   28  C   UNL     1      20.867  50.122  47.661  1.00  0.00     0.237 C 
HETATM   29  C   UNL     1      22.240  50.603  48.127  1.00  0.00     0.053 C 
BRANCH  26  30
HETATM   30  C   UNL     1      18.351  50.217  48.058  1.00  0.00     0.180 C 
HETATM   31  C   UNL     1      17.824  49.158  49.030  1.00  0.00     0.039 C 
HETATM   32  C   UNL     1      18.427  49.610  46.656  1.00  0.00     0.039 C 
ENDBRANCH  26  30
ENDBRANCH   1  23
TORSDOF 6
ENDMDL
MODEL 5
REMARK VINA RESULT:      -8.4      1.854      2.914
REMARK  6 active torsions:
REMARK  status: ('A' for Active; 'I' for Inactive)
REMARK    1  A    between atoms: C_2  and  N_3 
REMARK    2  A    between atoms: C_7  and  N_8 
REMARK       I    between atoms: N_8  and  C_9 
REMARK       I    between atoms: C_9  and  N_10 
REMARK    3  A    between atoms: N_10  and  C_11 
REMARK    4  A    between atoms: C_11  and  C_12 
REMARK    5  A    between atoms: C_15  and  N_16 
REMARK       I    between atoms: N_16  and  C_17 
REMARK    6  A    between atoms: C_17  and  C_18 
ROOT
HETATM    1  N   UNL     1      22.106  48.797  49.573  1.00  0.00    -0.338 N 
HETATM    2  C   UNL     1      22.897  47.894  48.898  1.00  0.00     0.316 C 
HETATM    3  N   UNL     1      22.458  46.614  49.106  1.00  0.00    -0.339 N 
HETATM    4  O   UNL     1      23.904  48.190  48.278  1.00  0.00    -0.247 OA
HETATM    5  H   UNL     1      21.131  48.533  49.487  1.00  0.00     0.164 HD
HETATM    6  H   UNL     1      21.784  46.458  49.838  1.00  0.00     0.164 HD
ENDROOT
BRANCH   3   7
HETATM    7  C   UNL     1      23.296  45.484  48.752  1.00  0.00     0.162 C 
BRANCH   7   8
HETATM    8  C   UNL     1      24.347  45.164  49.795  1.00  0.00    -0.040 A 
HETATM    9  C   UNL     1      24.044  44.531  51.010  1.00  0.00     0.011 A 
HETATM   10  C   UNL     1      25.033  44.319  51.977  1.00  0.00     0.030 A 
HETATM   11  C   UNL     1      26.351  44.709  51.739  1.00  0.00     0.035 A 
HETATM   12  C   UNL     1      26.675  45.265  50.499  1.00  0.00     0.030 A 
HETATM   13  C   UNL     1      25.683  45.497  49.539  1.00  0.00     0.011 A 
BRANCH  11  14
HETATM   14  N   UNL     1      27.384  44.586  52.682  1.00  0.00    -0.321 N 
HETATM   15  C   UNL     1      28.310  43.563  52.811  1.00  0.00     0.279 C 
HETATM   16  O   UNL     1      28.378  42.575  52.085  1.00  0.00    -0.265 OA
HETATM   17  H   UNL     1      27.424  45.283  53.421  1.00  0.00     0.169 HD
BRANCH  15  18
HETATM   18  C   UNL     1      29.189  43.754  53.951  1.00  0.00     0.142 A 
HETATM   19  O   UNL     1      29.022  44.859  54.749  1.00  0.00    -0.317 OA
HETATM   20  C   UNL     1      29.951  44.785  55.737  1.00  0.00     0.143 A 
HETATM   21  C   UNL     1      30.715  43.652  55.596  1.00  0.00     0.027 A 
HETATM   22  C   UNL     1      30.227  42.987  54.445  1.00  0.00     0.045 A 
ENDBRANCH  15  18
ENDBRANCH  11  14
ENDBRANCH   7   8
ENDBRANCH   3   7
BRANCH   1  23
HETATM   23  C   UNL     1      22.360  50.241  49.574  1.00  0.00     0.089 C 
HETATM   24  C   UNL     1      21.563  51.063  50.589  1.00  0.00     0.053 C 
HETATM   25  C   UNL     1      20.068  50.959  50.351  1.00  0.00     0.237 C 
HETATM   26  N   UNL     1      19.724  51.469  48.952  1.00  0.00    -0.067 N 
HETATM   27  H   UNL     1      19.988  52.463  48.920  1.00  0.00     0.280 HD
HETATM   28  C   UNL     1      20.537  50.741  47.895  1.00  0.00     0.237 C 
HETATM   29  C   UNL     1      22.034  50.800  48.189  1.00  0.00     0.053 C 
BRANCH  26  30
HETATM   30  C   UNL     1      18.204  51.404  48.680  1.00  0.00     0.180 C 
HETATM   31  C   UNL     1      17.902  51.825  47.240  1.00  0.00     0.039 C 
HETATM   32  C   UNL     1      17.456  52.336  49.636  1.00  0.00     0.039 C 
ENDBRANCH  26  30
ENDBRANCH   1  23
TORSDOF 6
ENDMDL
MODEL 6
REMARK VINA RESULT:      -8.3      2.967      5.088
REMARK  6 active torsions:
REMARK  status: ('A' for Active; 'I' for Inactive)
REMARK    1  A    between atoms: C_2  and  N_3 
REMARK    2  A    between atoms: C_7  and  N_8 
REMARK       I    between atoms: N_8  and  C_9 
REMARK       I    between atoms: C_9  and  N_10 
REMARK    3  A    between atoms: N_10  and  C_11 
REMARK    4  A    between atoms: C_11  and  C_12 
REMARK    5  A    between atoms: C_15  and  N_16 
REMARK       I    between atoms: N_16  and  C_17 
REMARK    6  A    between atoms: C_17  and  C_18 
ROOT
HETATM    1  N   UNL     1      21.057  50.389  49.080  1.00  0.00    -0.338 N 
HETATM    2  C   UNL     1      22.387  50.684  49.279  1.00  0.00     0.316 C 
HETATM    3  N   UNL     1      23.167  50.073  48.334  1.00  0.00    -0.339 N 
HETATM    4  O   UNL     1      22.816  51.326  50.223  1.00  0.00    -0.247 OA
HETATM    5  H   UNL     1      20.840  50.421  48.091  1.00  0.00     0.164 HD
HETATM    6  H   UNL     1      22.744  49.360  47.761  1.00  0.00     0.164 HD
ENDROOT
BRANCH   3   7
HETATM    7  C   UNL     1      24.604  49.988  48.510  1.00  0.00     0.162 C 
BRANCH   7   8
HETATM    8  C   UNL     1      25.053  48.702  49.173  1.00  0.00    -0.040 A 
HETATM    9  C   UNL     1      24.154  47.760  49.694  1.00  0.00     0.011 A 
HETATM   10  C   UNL     1      24.612  46.620  50.363  1.00  0.00     0.030 A 
HETATM   11  C   UNL     1      25.979  46.381  50.500  1.00  0.00     0.035 A 
HETATM   12  C   UNL     1      26.880  47.274  49.913  1.00  0.00     0.030 A 
HETATM   13  C   UNL     1      26.424  48.425  49.261  1.00  0.00     0.011 A 
BRANCH  11  14
HETATM   14  N   UNL     1      26.516  45.294  51.210  1.00  0.00    -0.321 N 
HETATM   15  C   UNL     1      27.046  44.119  50.703  1.00  0.00     0.279 C 
HETATM   16  O   UNL     1      27.144  43.842  49.511  1.00  0.00    -0.265 OA
HETATM   17  H   UNL     1      26.440  45.318  52.223  1.00  0.00     0.169 HD
BRANCH  15  18
HETATM   18  C   UNL     1      27.446  43.197  51.752  1.00  0.00     0.142 A 
HETATM   19  O   UNL     1      27.672  43.679  53.017  1.00  0.00    -0.317 OA
HETATM   20  C   UNL     1      28.012  42.618  53.795  1.00  0.00     0.143 A 
HETATM   21  C   UNL     1      28.008  41.459  53.058  1.00  0.00     0.027 A 
HETATM   22  C   UNL     1      27.645  41.829  51.741  1.00  0.00     0.045 A 
ENDBRANCH  15  18
ENDBRANCH  11  14
ENDBRANCH   7   8
ENDBRANCH   3   7
BRANCH   1  23
HETATM   23  C   UNL     1      19.989  50.867  49.964  1.00  0.00     0.089 C 
HETATM   24  C   UNL     1      19.234  49.791  50.748  1.00  0.00     0.053 C 
HETATM   25  C   UNL     1      18.530  48.811  49.828  1.00  0.00     0.237 C 
HETATM   26  N   UNL     1      17.524  49.551  48.947  1.00  0.00    -0.067 N 
HETATM   27  H   UNL     1      16.822  49.967  49.574  1.00  0.00     0.280 HD
HETATM   28  C   UNL     1      18.197  50.684  48.190  1.00  0.00     0.237 C 
HETATM   29  C   UNL     1      18.956  51.621  49.127  1.00  0.00     0.053 C 
BRANCH  26  30
HETATM   30  C   UNL     1      16.766  48.582  48.013  1.00  0.00     0.180 C 
HETATM   31  C   UNL     1      15.355  49.106  47.733  1.00  0.00     0.039 C 
HETATM   32  C   UNL     1      16.661  47.198  48.658  1.00  0.00     0.039 C 
ENDBRANCH  26  30
ENDBRANCH   1  23
TORSDOF 6
ENDMDL
MODEL 7
REMARK VINA RESULT:      -8.0      4.222     12.178
REMARK  6 active torsions:
REMARK  status: ('A' for Active; 'I' for Inactive)
REMARK    1  A    between atoms: C_2  and  N_3 
REMARK    2  A    between atoms: C_7  and  N_8 
REMARK       I    between atoms: N_8  and  C_9 
REMARK       I    between atoms: C_9  and  N_10 
REMARK    3  A    between atoms: N_10  and  C_11 
REMARK    4  A    between atoms: C_11  and  C_12 
REMARK    5  A    between atoms: C_15  and  N_16 
REMARK       I    between atoms: N_16  and  C_17 
REMARK    6  A    between atoms: C_17  and  C_18 
ROOT
HETATM    1  N   UNL     1      23.865  46.992  49.817  1.00  0.00    -0.338 N 
HETATM    2  C   UNL     1      23.877  48.234  49.223  1.00  0.00     0.316 C 
HETATM    3  N   UNL     1      22.700  48.895  49.455  1.00  0.00    -0.339 N 
HETATM    4  O   UNL     1      24.776  48.649  48.511  1.00  0.00    -0.247 OA
HETATM    5  H   UNL     1      23.446  47.054  50.738  1.00  0.00     0.164 HD
HETATM    6  H   UNL     1      21.927  48.367  49.829  1.00  0.00     0.164 HD
ENDROOT
BRANCH   3   7
HETATM    7  C   UNL     1      22.359  50.080  48.691  1.00  0.00     0.162 C 
BRANCH   7   8
HETATM    8  C   UNL     1      21.018  50.675  49.070  1.00  0.00    -0.040 A 
HETATM    9  C   UNL     1      20.212  50.145  50.087  1.00  0.00     0.011 A 
HETATM   10  C   UNL     1      18.948  50.681  50.357  1.00  0.00     0.030 A 
HETATM   11  C   UNL     1      18.476  51.778  49.636  1.00  0.00     0.035 A 
HETATM   12  C   UNL     1      19.308  52.361  48.677  1.00  0.00     0.030 A 
HETATM   13  C   UNL     1      20.564  51.814  48.392  1.00  0.00     0.011 A 
BRANCH  11  14
HETATM   14  N   UNL     1      17.197  52.333  49.806  1.00  0.00    -0.321 N 
HETATM   15  C   UNL     1      15.997  51.900  49.267  1.00  0.00     0.279 C 
HETATM   16  O   UNL     1      15.859  50.919  48.541  1.00  0.00    -0.265 OA
HETATM   17  H   UNL     1      17.135  53.210  50.316  1.00  0.00     0.169 HD
BRANCH  15  18
HETATM   18  C   UNL     1      14.888  52.771  49.616  1.00  0.00     0.142 A 
HETATM   19  O   UNL     1      14.428  53.673  48.688  1.00  0.00    -0.317 OA
HETATM   20  C   UNL     1      13.391  54.341  49.258  1.00  0.00     0.143 A 
HETATM   21  C   UNL     1      13.170  53.887  50.535  1.00  0.00     0.027 A 
HETATM   22  C   UNL     1      14.134  52.877  50.769  1.00  0.00     0.045 A 
ENDBRANCH  15  18
ENDBRANCH  11  14
ENDBRANCH   7   8
ENDBRANCH   3   7
BRANCH   1  23
HETATM   23  C   UNL     1      24.974  46.039  49.702  1.00  0.00     0.089 C 
HETATM   24  C   UNL     1      24.774  44.690  50.397  1.00  0.00     0.053 C 
HETATM   25  C   UNL     1      24.587  44.849  51.894  1.00  0.00     0.237 C 
HETATM   26  N   UNL     1      25.815  45.522  52.507  1.00  0.00    -0.067 N 
HETATM   27  H   UNL     1      26.614  44.895  52.346  1.00  0.00     0.280 HD
HETATM   28  C   UNL     1      26.113  46.840  51.812  1.00  0.00     0.237 C 
HETATM   29  C   UNL     1      26.231  46.671  50.299  1.00  0.00     0.053 C 
BRANCH  26  30
HETATM   30  C   UNL     1      25.674  45.677  54.037  1.00  0.00     0.180 C 
HETATM   31  C   UNL     1      27.051  45.845  54.685  1.00  0.00     0.039 C 
HETATM   32  C   UNL     1      24.993  44.443  54.634  1.00  0.00     0.039 C 
ENDBRANCH  26  30
ENDBRANCH   1  23
TORSDOF 6
ENDMDL
MODEL 8
REMARK VINA RESULT:      -7.9      2.129      3.088
REMARK  6 active torsions:
REMARK  status: ('A' for Active; 'I' for Inactive)
REMARK    1  A    between atoms: C_2  and  N_3 
REMARK    2  A    between atoms: C_7  and  N_8 
REMARK       I    between atoms: N_8  and  C_9 
REMARK       I    between atoms: C_9  and  N_10 
REMARK    3  A    between atoms: N_10  and  C_11 
REMARK    4  A    between atoms: C_11  and  C_12 
REMARK    5  A    between atoms: C_15  and  N_16 
REMARK       I    between atoms: N_16  and  C_17 
REMARK    6  A    between atoms: C_17  and  C_18 
ROOT
HETATM    1  N   UNL     1      20.109  46.996  48.475  1.00  0.00    -0.338 N 
HETATM    2  C   UNL     1      20.625  45.753  48.765  1.00  0.00     0.316 C 
HETATM    3  N   UNL     1      21.978  45.820  48.959  1.00  0.00    -0.339 N 
HETATM    4  O   UNL     1      19.976  44.720  48.757  1.00  0.00    -0.247 OA
HETATM    5  H   UNL     1      20.541  47.695  49.069  1.00  0.00     0.164 HD
HETATM    6  H   UNL     1      22.453  46.667  48.687  1.00  0.00     0.164 HD
ENDROOT
BRANCH   3   7
HETATM    7  C   UNL     1      22.780  44.612  48.977  1.00  0.00     0.162 C 
BRANCH   7   8
HETATM    8  C   UNL     1      23.875  44.632  50.024  1.00  0.00    -0.040 A 
HETATM    9  C   UNL     1      24.294  43.481  50.708  1.00  0.00     0.011 A 
HETATM   10  C   UNL     1      25.258  43.556  51.719  1.00  0.00     0.030 A 
HETATM   11  C   UNL     1      25.847  44.777  52.047  1.00  0.00     0.035 A 
HETATM   12  C   UNL     1      25.494  45.913  51.313  1.00  0.00     0.030 A 
HETATM   13  C   UNL     1      24.514  45.844  50.316  1.00  0.00     0.011 A 
BRANCH  11  14
HETATM   14  N   UNL     1      26.775  44.943  53.088  1.00  0.00    -0.321 N 
HETATM   15  C   UNL     1      26.643  45.700  54.240  1.00  0.00     0.279 C 
HETATM   16  O   UNL     1      25.652  46.357  54.546  1.00  0.00    -0.265 OA
HETATM   17  H   UNL     1      27.695  44.531  52.960  1.00  0.00     0.169 HD
BRANCH  15  18
HETATM   18  C   UNL     1      27.845  45.680  55.056  1.00  0.00     0.142 A 
HETATM   19  O   UNL     1      28.804  44.728  54.811  1.00  0.00    -0.317 OA
HETATM   20  C   UNL     1      29.815  44.942  55.692  1.00  0.00     0.143 A 
HETATM   21  C   UNL     1      29.530  46.015  56.502  1.00  0.00     0.027 A 
HETATM   22  C   UNL     1      28.260  46.491  56.094  1.00  0.00     0.045 A 
ENDBRANCH  15  18
ENDBRANCH  11  14
ENDBRANCH   7   8
ENDBRANCH   3   7
BRANCH   1  23
HETATM   23  C   UNL     1      18.692  47.227  48.176  1.00  0.00     0.089 C 
HETATM   24  C   UNL     1      18.397  48.047  46.918  1.00  0.00     0.053 C 
HETATM   25  C   UNL     1      18.980  49.445  47.005  1.00  0.00     0.237 C 
HETATM   26  N   UNL     1      18.388  50.185  48.205  1.00  0.00    -0.067 N 
HETATM   27  H   UNL     1      17.377  50.266  48.040  1.00  0.00     0.280 HD
HETATM   28  C   UNL     1      18.586  49.387  49.484  1.00  0.00     0.237 C 
HETATM   29  C   UNL     1      18.053  47.963  49.353  1.00  0.00     0.053 C 
BRANCH  26  30
HETATM   30  C   UNL     1      18.939  51.624  48.313  1.00  0.00     0.180 C 
HETATM   31  C   UNL     1      20.436  51.600  48.632  1.00  0.00     0.039 C 
HETATM   32  C   UNL     1      18.209  52.388  49.420  1.00  0.00     0.039 C 
ENDBRANCH  26  30
ENDBRANCH   1  23
TORSDOF 6
ENDMDL
MODEL 9
REMARK VINA RESULT:      -7.8      3.744      4.824
REMARK  6 active torsions:
REMARK  status: ('A' for Active; 'I' for Inactive)
REMARK    1  A    between atoms: C_2  and  N_3 
REMARK    2  A    between atoms: C_7  and  N_8 
REMARK       I    between atoms: N_8  and  C_9 
REMARK       I    between atoms: C_9  and  N_10 
REMARK    3  A    between atoms: N_10  and  C_11 
REMARK    4  A    between atoms: C_11  and  C_12 
REMARK    5  A    between atoms: C_15  and  N_16 
REMARK       I    between atoms: N_16  and  C_17 
REMARK    6  A    between atoms: C_17  and  C_18 
ROOT
HETATM    1  N   UNL     1      23.179  48.370  49.328  1.00  0.00    -0.338 N 
HETATM    2  C   UNL     1      24.387  48.016  49.886  1.00  0.00     0.316 C 
HETATM    3  N   UNL     1      24.223  47.009  50.801  1.00  0.00    -0.339 N 
HETATM    4  O   UNL     1      25.442  48.585  49.663  1.00  0.00    -0.247 OA
HETATM    5  H   UNL     1      22.632  47.539  49.133  1.00  0.00     0.164 HD
HETATM    6  H   UNL     1      23.286  46.791  51.100  1.00  0.00     0.164 HD
ENDROOT
BRANCH   3   7
HETATM    7  C   UNL     1      25.288  46.678  51.728  1.00  0.00     0.162 C 
BRANCH   7   8
HETATM    8  C   UNL     1      26.042  45.419  51.353  1.00  0.00    -0.040 A 
HETATM    9  C   UNL     1      25.989  44.854  50.071  1.00  0.00     0.011 A 
HETATM   10  C   UNL     1      26.642  43.650  49.786  1.00  0.00     0.030 A 
HETATM   11  C   UNL     1      27.388  43.000  50.769  1.00  0.00     0.035 A 
HETATM   12  C   UNL     1      27.512  43.599  52.026  1.00  0.00     0.030 A 
HETATM   13  C   UNL     1      26.842  44.793  52.318  1.00  0.00     0.011 A 
BRANCH  11  14
HETATM   14  N   UNL     1      28.020  41.760  50.580  1.00  0.00    -0.321 N 
HETATM   15  C   UNL     1      27.456  40.567  50.161  1.00  0.00     0.279 C 
HETATM   16  O   UNL     1      26.274  40.406  49.868  1.00  0.00    -0.265 OA
HETATM   17  H   UNL     1      28.995  41.689  50.857  1.00  0.00     0.169 HD
BRANCH  15  18
HETATM   18  C   UNL     1      28.417  39.477  50.145  1.00  0.00     0.142 A 
HETATM   19  O   UNL     1      28.537  38.707  49.015  1.00  0.00    -0.317 OA
HETATM   20  C   UNL     1      29.503  37.784  49.260  1.00  0.00     0.143 A 
HETATM   21  C   UNL     1      30.012  37.943  50.526  1.00  0.00     0.027 A 
HETATM   22  C   UNL     1      29.312  39.032  51.099  1.00  0.00     0.045 A 
ENDBRANCH  15  18
ENDBRANCH  11  14
ENDBRANCH   7   8
ENDBRANCH   3   7
BRANCH   1  23
HETATM   23  C   UNL     1      23.036  49.451  48.347  1.00  0.00     0.089 C 
HETATM   24  C   UNL     1      23.035  50.874  48.911  1.00  0.00     0.053 C 
HETATM   25  C   UNL     1      21.880  51.100  49.870  1.00  0.00     0.237 C 
HETATM   26  N   UNL     1      20.550  50.872  49.151  1.00  0.00    -0.067 N 
HETATM   27  H   UNL     1      20.490  51.573  48.401  1.00  0.00     0.280 HD
HETATM   28  C   UNL     1      20.513  49.497  48.505  1.00  0.00     0.237 C 
HETATM   29  C   UNL     1      21.718  49.264  47.596  1.00  0.00     0.053 C 
BRANCH  26  30
HETATM   30  C   UNL     1      19.348  51.120  50.089  1.00  0.00     0.180 C 
HETATM   31  C   UNL     1      18.558  49.825  50.294  1.00  0.00     0.039 C 
HETATM   32  C   UNL     1      18.419  52.178  49.490  1.00  0.00     0.039 C 
ENDBRANCH  26  30
ENDBRANCH   1  23
TORSDOF 6
ENDMDL
MODEL 10
REMARK VINA RESULT:      -7.5     17.665     20.115
REMARK  6 active torsions:
REMARK  status: ('A' for Active; 'I' for Inactive)
REMARK    1  A    between atoms: C_2  and  N_3 
REMARK    2  A    between atoms: C_7  and  N_8 
REMARK       I    between atoms: N_8  and  C_9 
REMARK       I    between atoms: C_9  and  N_10 
REMARK    3  A    between atoms: N_10  and  C_11 
REMARK    4  A    between atoms: C_11  and  C_12 
REMARK    5  A    between atoms: C_15  and  N_16 
REMARK       I    between atoms: N_16  and  C_17 
REMARK    6  A    between atoms: C_17  and  C_18 
ROOT
HETATM    1  N   UNL     1      38.010  45.999  64.171  1.00  0.00    -0.338 N 
HETATM    2  C   UNL     1      38.156  44.740  63.634  1.00  0.00     0.316 C 
HETATM    3  N   UNL     1      39.476  44.379  63.590  1.00  0.00    -0.339 N 
HETATM    4  O   UNL     1      37.240  44.077  63.176  1.00  0.00    -0.247 OA
HETATM    5  H   UNL     1      38.633  46.110  64.963  1.00  0.00     0.164 HD
HETATM    6  H   UNL     1      40.167  45.096  63.749  1.00  0.00     0.164 HD
ENDROOT
BRANCH   3   7
HETATM    7  C   UNL     1      39.901  43.240  62.799  1.00  0.00     0.162 C 
BRANCH   7   8
HETATM    8  C   UNL     1      39.901  41.937  63.573  1.00  0.00    -0.040 A 
HETATM    9  C   UNL     1      40.439  41.819  64.862  1.00  0.00     0.011 A 
HETATM   10  C   UNL     1      40.485  40.581  65.513  1.00  0.00     0.030 A 
HETATM   11  C   UNL     1      39.966  39.440  64.901  1.00  0.00     0.035 A 
HETATM   12  C   UNL     1      39.354  39.567  63.651  1.00  0.00     0.030 A 
HETATM   13  C   UNL     1      39.327  40.800  62.990  1.00  0.00     0.011 A 
BRANCH  11  14
HETATM   14  N   UNL     1      40.029  38.155  65.463  1.00  0.00    -0.321 N 
HETATM   15  C   UNL     1      40.973  37.167  65.236  1.00  0.00     0.279 C 
HETATM   16  O   UNL     1      41.943  37.272  64.491  1.00  0.00    -0.265 OA
HETATM   17  H   UNL     1      39.250  37.864  66.047  1.00  0.00     0.169 HD
BRANCH  15  18
HETATM   18  C   UNL     1      40.670  35.938  65.950  1.00  0.00     0.142 A 
HETATM   19  O   UNL     1      39.501  35.851  66.666  1.00  0.00    -0.317 OA
HETATM   20  C   UNL     1      39.460  34.609  67.215  1.00  0.00     0.143 A 
HETATM   21  C   UNL     1      40.577  33.891  66.867  1.00  0.00     0.027 A 
HETATM   22  C   UNL     1      41.360  34.746  66.054  1.00  0.00     0.045 A 
ENDBRANCH  15  18
ENDBRANCH  11  14
ENDBRANCH   7   8
ENDBRANCH   3   7
BRANCH   1  23
HETATM   23  C   UNL     1      36.712  46.669  64.304  1.00  0.00     0.089 C 
HETATM   24  C   UNL     1      36.661  48.130  63.852  1.00  0.00     0.053 C 
HETATM   25  C   UNL     1      37.604  49.004  64.659  1.00  0.00     0.237 C 
HETATM   26  N   UNL     1      37.227  48.951  66.140  1.00  0.00    -0.067 N 
HETATM   27  H   UNL     1      36.278  49.336  66.223  1.00  0.00     0.280 HD
HETATM   28  C   UNL     1      37.190  47.516  66.638  1.00  0.00     0.237 C 
HETATM   29  C   UNL     1      36.289  46.637  65.772  1.00  0.00     0.053 C 
BRANCH  26  30
HETATM   30  C   UNL     1      38.149  49.851  66.993  1.00  0.00     0.180 C 
HETATM   31  C   UNL     1      37.747  51.320  66.841  1.00  0.00     0.039 C 
HETATM   32  C   UNL     1      39.605  49.687  66.550  1.00  0.00     0.039 C 
ENDBRANCH  26  30
ENDBRANCH   1  23
TORSDOF 6
ENDMDL
