MODEL 1
REMARK VINA RESULT:      -9.9      0.000      0.000
REMARK  7 active torsions:
REMARK  status: ('A' for Active; 'I' for Inactive)
REMARK    1  A    between atoms: N_6  and  C_7 
REMARK    2  A    between atoms: C_9  and  N_10 
REMARK    3  A    between atoms: N_10  and  N_11 
REMARK    4  A    between atoms: C_12  and  C_13 
REMARK    5  A    between atoms: C_24  and  N_25 
REMARK    6  A    between atoms: N_25  and  C_26 
REMARK    7  A    between atoms: C_29  and  N_30 
ROOT
HETATM    1  C   UNL     1      26.810  40.032  49.881  1.00  0.00     0.756 A 
HETATM    2  N   UNL     1      27.912  40.151  50.594  1.00  0.00     0.133 NA
HETATM    3  C   UNL     1      27.963  41.152  51.470  1.00  0.00     0.774 A 
HETATM    4  N   UNL     1      26.956  41.986  51.689  1.00  0.00     0.133 NA
HETATM    5  C   UNL     1      25.851  41.746  51.000  1.00  0.00     0.758 A 
HETATM    6  N   UNL     1      25.731  40.765  50.107  1.00  0.00     0.131 NA
ENDROOT
BRANCH   3   7
HETATM    7  N   UNL     1      29.120  41.353  52.243  1.00  0.00    -0.105 N 
HETATM    8  H   UNL     1      29.654  40.486  52.258  1.00  0.00     0.208 HD
BRANCH   7   9
HETATM    9  N   UNL     1      29.002  42.098  53.381  1.00  0.00    -0.171 NA
HETATM   10  C   UNL     1      29.421  43.319  53.284  1.00  0.00     0.153 C 
BRANCH  10  11
HETATM   11  C   UNL     1      29.378  44.188  54.441  1.00  0.00     0.011 A 
HETATM   12  C   UNL     1      30.167  44.158  55.637  1.00  0.00     0.004 A 
HETATM   13  C   UNL     1      29.746  45.219  56.443  1.00  0.00     0.043 A 
HETATM   14  C   UNL     1      31.213  43.337  56.114  1.00  0.00     0.014 A 
HETATM   15  C   UNL     1      30.311  45.495  57.694  1.00  0.00     0.030 A 
HETATM   16  N   UNL     1      28.743  45.870  55.765  1.00  0.00    -0.364 N 
HETATM   17  C   UNL     1      31.344  44.665  58.138  1.00  0.00     0.002 A 
HETATM   18  C   UNL     1      31.793  43.601  57.361  1.00  0.00     0.001 A 
HETATM   19  H   UNL     1      28.256  46.686  56.112  1.00  0.00     0.165 HD
HETATM   20  C   UNL     1      28.516  45.264  54.558  1.00  0.00     0.102 A 
ENDBRANCH  10  11
ENDBRANCH   7   9
ENDBRANCH   3   7
BRANCH   1  21
HETATM   21  N   UNL     1      26.779  39.072  48.867  1.00  0.00    -0.210 N 
HETATM   22  C   UNL     1      28.078  38.633  48.347  1.00  0.00     0.169 C 
HETATM   23  C   UNL     1      28.606  39.634  47.298  1.00  0.00     0.254 C 
HETATM   24  N   UNL     1      27.552  39.862  46.204  1.00  0.00    -0.072 N 
HETATM   25  C   UNL     1      28.036  40.807  45.149  1.00  0.00     0.269 C 
HETATM   26  H   UNL     1      27.391  38.952  45.753  1.00  0.00     0.279 HD
HETATM   27  C   UNL     1      26.202  40.301  46.801  1.00  0.00     0.254 C 
HETATM   28  C   UNL     1      25.734  39.271  47.852  1.00  0.00     0.169 C 
ENDBRANCH   1  21
BRANCH   5  29
HETATM   29  N   UNL     1      24.792  42.623  51.230  1.00  0.00    -0.187 N 
HETATM   30  H   UNL     1      23.980  42.118  51.561  1.00  0.00     0.184 HD
BRANCH  29  31
HETATM   31  C   UNL     1      24.574  43.948  50.835  1.00  0.00     0.049 A 
HETATM   32  C   UNL     1      23.858  44.288  49.680  1.00  0.00     0.032 A 
HETATM   33  C   UNL     1      23.685  45.623  49.300  1.00  0.00     0.038 A 
HETATM   34  C   UNL     1      24.260  46.638  50.071  1.00  0.00     0.103 A 
HETATM   35  C   UNL     1      24.998  46.323  51.216  1.00  0.00     0.038 A 
HETATM   36  C   UNL     1      25.151  44.982  51.587  1.00  0.00     0.032 A 
BRANCH  34  37
HETATM   37  N   UNL     1      24.085  48.040  49.671  1.00  0.00    -0.116 N 
HETATM   38  O   UNL     1      25.094  48.760  49.660  1.00  0.00    -0.532 OA
HETATM   39  O   UNL     1      22.944  48.418  49.377  1.00  0.00    -0.532 OA
ENDBRANCH  34  37
ENDBRANCH  29  31
ENDBRANCH   5  29
TORSDOF 7
ENDMDL
MODEL 2
REMARK VINA RESULT:      -9.9      2.808      4.833
REMARK  7 active torsions:
REMARK  status: ('A' for Active; 'I' for Inactive)
REMARK    1  A    between atoms: N_6  and  C_7 
REMARK    2  A    between atoms: C_9  and  N_10 
REMARK    3  A    between atoms: N_10  and  N_11 
REMARK    4  A    between atoms: C_12  and  C_13 
REMARK    5  A    between atoms: C_24  and  N_25 
REMARK    6  A    between atoms: N_25  and  C_26 
REMARK    7  A    between atoms: C_29  and  N_30 
ROOT
HETATM    1  C   UNL     1      24.108  45.063  50.578  1.00  0.00     0.756 A 
HETATM    2  N   UNL     1      24.798  45.215  51.691  1.00  0.00     0.133 NA
HETATM    3  C   UNL     1      25.365  46.402  51.896  1.00  0.00     0.774 A 
HETATM    4  N   UNL     1      25.227  47.432  51.073  1.00  0.00     0.133 NA
HETATM    5  C   UNL     1      24.445  47.228  50.024  1.00  0.00     0.758 A 
HETATM    6  N   UNL     1      23.849  46.068  49.756  1.00  0.00     0.131 NA
ENDROOT
BRANCH   3   7
HETATM    7  N   UNL     1      26.137  46.623  53.050  1.00  0.00    -0.105 N 
HETATM    8  H   UNL     1      26.339  47.619  53.119  1.00  0.00     0.208 HD
BRANCH   7   9
HETATM    9  N   UNL     1      27.108  45.711  53.348  1.00  0.00    -0.171 NA
HETATM   10  C   UNL     1      27.737  45.921  54.459  1.00  0.00     0.153 C 
BRANCH  10  11
HETATM   11  C   UNL     1      28.812  45.036  54.856  1.00  0.00     0.011 A 
HETATM   12  C   UNL     1      29.618  45.052  56.042  1.00  0.00     0.004 A 
HETATM   13  C   UNL     1      30.511  43.981  55.954  1.00  0.00     0.043 A 
HETATM   14  C   UNL     1      29.670  45.867  57.195  1.00  0.00     0.014 A 
HETATM   15  C   UNL     1      31.449  43.689  56.952  1.00  0.00     0.030 A 
HETATM   16  N   UNL     1      30.259  43.338  54.765  1.00  0.00    -0.364 N 
HETATM   17  C   UNL     1      31.477  44.513  58.080  1.00  0.00     0.002 A 
HETATM   18  C   UNL     1      30.599  45.587  58.204  1.00  0.00     0.001 A 
HETATM   19  H   UNL     1      30.755  42.517  54.444  1.00  0.00     0.165 HD
HETATM   20  C   UNL     1      29.237  43.958  54.099  1.00  0.00     0.102 A 
ENDBRANCH  10  11
ENDBRANCH   7   9
ENDBRANCH   3   7
BRANCH   1  21
HETATM   21  N   UNL     1      23.611  43.792  50.277  1.00  0.00    -0.210 N 
HETATM   22  C   UNL     1      24.203  42.671  51.014  1.00  0.00     0.169 C 
HETATM   23  C   UNL     1      25.533  42.238  50.362  1.00  0.00     0.254 C 
HETATM   24  N   UNL     1      25.322  41.947  48.868  1.00  0.00    -0.072 N 
HETATM   25  C   UNL     1      26.585  41.496  48.203  1.00  0.00     0.269 C 
HETATM   26  H   UNL     1      24.648  41.174  48.808  1.00  0.00     0.279 HD
HETATM   27  C   UNL     1      24.681  43.145  48.144  1.00  0.00     0.254 C 
HETATM   28  C   UNL     1      23.366  43.543  48.849  1.00  0.00     0.169 C 
ENDBRANCH   1  21
BRANCH   5  29
HETATM   29  N   UNL     1      24.300  48.311  49.158  1.00  0.00    -0.187 N 
HETATM   30  H   UNL     1      25.205  48.686  48.905  1.00  0.00     0.184 HD
BRANCH  29  31
HETATM   31  C   UNL     1      23.192  49.099  48.828  1.00  0.00     0.049 A 
HETATM   32  C   UNL     1      23.192  50.495  48.943  1.00  0.00     0.032 A 
HETATM   33  C   UNL     1      22.056  51.249  48.631  1.00  0.00     0.038 A 
HETATM   34  C   UNL     1      20.887  50.598  48.223  1.00  0.00     0.103 A 
HETATM   35  C   UNL     1      20.855  49.204  48.122  1.00  0.00     0.038 A 
HETATM   36  C   UNL     1      22.005  48.466  48.426  1.00  0.00     0.032 A 
BRANCH  34  37
HETATM   37  N   UNL     1      19.692  51.387  47.901  1.00  0.00    -0.116 N 
HETATM   38  O   UNL     1      19.493  52.416  48.563  1.00  0.00    -0.532 OA
HETATM   39  O   UNL     1      18.956  50.976  46.995  1.00  0.00    -0.532 OA
ENDBRANCH  34  37
ENDBRANCH  29  31
ENDBRANCH   5  29
TORSDOF 7
ENDMDL
MODEL 3
REMARK VINA RESULT:      -9.7      3.231      6.890
REMARK  7 active torsions:
REMARK  status: ('A' for Active; 'I' for Inactive)
REMARK    1  A    between atoms: N_6  and  C_7 
REMARK    2  A    between atoms: C_9  and  N_10 
REMARK    3  A    between atoms: N_10  and  N_11 
REMARK    4  A    between atoms: C_12  and  C_13 
REMARK    5  A    between atoms: C_24  and  N_25 
REMARK    6  A    between atoms: N_25  and  C_26 
REMARK    7  A    between atoms: C_29  and  N_30 
ROOT
HETATM    1  C   UNL     1      24.058  46.981  49.566  1.00  0.00     0.756 A 
HETATM    2  N   UNL     1      24.559  47.594  50.620  1.00  0.00     0.133 NA
HETATM    3  C   UNL     1      24.942  46.830  51.641  1.00  0.00     0.774 A 
HETATM    4  N   UNL     1      24.888  45.505  51.626  1.00  0.00     0.133 NA
HETATM    5  C   UNL     1      24.457  44.961  50.498  1.00  0.00     0.758 A 
HETATM    6  N   UNL     1      24.058  45.663  49.440  1.00  0.00     0.131 NA
ENDROOT
BRANCH   3   7
HETATM    7  N   UNL     1      25.460  47.421  52.807  1.00  0.00    -0.105 N 
HETATM    8  H   UNL     1      25.307  48.426  52.756  1.00  0.00     0.208 HD
BRANCH   7   9
HETATM    9  N   UNL     1      26.640  46.937  53.293  1.00  0.00    -0.171 NA
HETATM   10  C   UNL     1      26.593  46.493  54.508  1.00  0.00     0.153 C 
BRANCH  10  11
HETATM   11  C   UNL     1      27.796  45.991  55.138  1.00  0.00     0.011 A 
HETATM   12  C   UNL     1      28.636  44.892  54.759  1.00  0.00     0.004 A 
HETATM   13  C   UNL     1      29.678  44.824  55.686  1.00  0.00     0.043 A 
HETATM   14  C   UNL     1      28.622  43.951  53.705  1.00  0.00     0.014 A 
HETATM   15  C   UNL     1      30.697  43.866  55.617  1.00  0.00     0.030 A 
HETATM   16  N   UNL     1      29.483  45.839  56.593  1.00  0.00    -0.364 N 
HETATM   17  C   UNL     1      30.656  42.948  54.563  1.00  0.00     0.002 A 
HETATM   18  C   UNL     1      29.635  42.989  53.618  1.00  0.00     0.001 A 
HETATM   19  H   UNL     1      30.095  46.031  57.375  1.00  0.00     0.165 HD
HETATM   20  C   UNL     1      28.358  46.551  56.271  1.00  0.00     0.102 A 
ENDBRANCH  10  11
ENDBRANCH   7   9
ENDBRANCH   3   7
BRANCH   1  21
HETATM   21  N   UNL     1      23.531  47.763  48.535  1.00  0.00    -0.210 N 
HETATM   22  C   UNL     1      23.588  49.216  48.727  1.00  0.00     0.169 C 
HETATM   23  C   UNL     1      22.412  49.691  49.604  1.00  0.00     0.254 C 
HETATM   24  N   UNL     1      21.079  49.202  49.017  1.00  0.00    -0.072 N 
HETATM   25  C   UNL     1      19.908  49.666  49.825  1.00  0.00     0.269 C 
HETATM   26  H   UNL     1      20.995  49.620  48.082  1.00  0.00     0.279 HD
HETATM   27  C   UNL     1      21.076  47.675  48.816  1.00  0.00     0.254 C 
HETATM   28  C   UNL     1      22.282  47.258  47.946  1.00  0.00     0.169 C 
ENDBRANCH   1  21
BRANCH   5  29
HETATM   29  N   UNL     1      24.401  43.568  50.481  1.00  0.00    -0.187 N 
HETATM   30  H   UNL     1      23.561  43.242  50.941  1.00  0.00     0.184 HD
BRANCH  29  31
HETATM   31  C   UNL     1      25.375  42.598  50.217  1.00  0.00     0.049 A 
HETATM   32  C   UNL     1      25.118  41.453  49.452  1.00  0.00     0.032 A 
HETATM   33  C   UNL     1      26.107  40.489  49.232  1.00  0.00     0.038 A 
HETATM   34  C   UNL     1      27.371  40.656  49.808  1.00  0.00     0.103 A 
HETATM   35  C   UNL     1      27.645  41.779  50.594  1.00  0.00     0.038 A 
HETATM   36  C   UNL     1      26.646  42.739  50.794  1.00  0.00     0.032 A 
BRANCH  34  37
HETATM   37  N   UNL     1      28.409  39.643  49.583  1.00  0.00    -0.116 N 
HETATM   38  O   UNL     1      28.770  39.447  48.414  1.00  0.00    -0.532 OA
HETATM   39  O   UNL     1      28.856  39.045  50.570  1.00  0.00    -0.532 OA
ENDBRANCH  34  37
ENDBRANCH  29  31
ENDBRANCH   5  29
TORSDOF 7
ENDMDL
MODEL 4
REMARK VINA RESULT:      -9.6      1.407      2.376
REMARK  7 active torsions:
REMARK  status: ('A' for Active; 'I' for Inactive)
REMARK    1  A    between atoms: N_6  and  C_7 
REMARK    2  A    between atoms: C_9  and  N_10 
REMARK    3  A    between atoms: N_10  and  N_11 
REMARK    4  A    between atoms: C_12  and  C_13 
REMARK    5  A    between atoms: C_24  and  N_25 
REMARK    6  A    between atoms: N_25  and  C_26 
REMARK    7  A    between atoms: C_29  and  N_30 
ROOT
HETATM    1  C   UNL     1      27.850  40.514  49.065  1.00  0.00     0.756 A 
HETATM    2  N   UNL     1      28.446  40.114  50.171  1.00  0.00     0.133 NA
HETATM    3  C   UNL     1      28.040  40.667  51.313  1.00  0.00     0.774 A 
HETATM    4  N   UNL     1      27.051  41.546  51.391  1.00  0.00     0.133 NA
HETATM    5  C   UNL     1      26.442  41.828  50.249  1.00  0.00     0.758 A 
HETATM    6  N   UNL     1      26.796  41.315  49.072  1.00  0.00     0.131 NA
ENDROOT
BRANCH   3   7
HETATM    7  N   UNL     1      28.652  40.306  52.526  1.00  0.00    -0.105 N 
HETATM    8  H   UNL     1      28.388  39.349  52.750  1.00  0.00     0.208 HD
BRANCH   7   9
HETATM    9  N   UNL     1      28.704  41.246  53.515  1.00  0.00    -0.171 NA
HETATM   10  C   UNL     1      29.555  42.201  53.320  1.00  0.00     0.153 C 
BRANCH  10  11
HETATM   11  C   UNL     1      29.721  43.233  54.322  1.00  0.00     0.011 A 
HETATM   12  C   UNL     1      28.943  44.414  54.556  1.00  0.00     0.004 A 
HETATM   13  C   UNL     1      29.506  45.076  55.650  1.00  0.00     0.043 A 
HETATM   14  C   UNL     1      27.800  44.984  53.951  1.00  0.00     0.014 A 
HETATM   15  C   UNL     1      28.991  46.273  56.162  1.00  0.00     0.030 A 
HETATM   16  N   UNL     1      30.582  44.328  56.067  1.00  0.00    -0.364 N 
HETATM   17  C   UNL     1      27.861  46.813  55.543  1.00  0.00     0.002 A 
HETATM   18  C   UNL     1      27.270  46.179  54.453  1.00  0.00     0.001 A 
HETATM   19  H   UNL     1      31.175  44.569  56.850  1.00  0.00     0.165 HD
HETATM   20  C   UNL     1      30.719  43.215  55.281  1.00  0.00     0.102 A 
ENDBRANCH  10  11
ENDBRANCH   7   9
ENDBRANCH   3   7
BRANCH   1  21
HETATM   21  N   UNL     1      28.341  40.047  47.844  1.00  0.00    -0.210 N 
HETATM   22  C   UNL     1      27.729  40.613  46.637  1.00  0.00     0.169 C 
HETATM   23  C   UNL     1      26.407  39.888  46.312  1.00  0.00     0.254 C 
HETATM   24  N   UNL     1      26.639  38.372  46.228  1.00  0.00    -0.072 N 
HETATM   25  C   UNL     1      25.383  37.633  45.886  1.00  0.00     0.269 C 
HETATM   26  H   UNL     1      27.307  38.215  45.464  1.00  0.00     0.279 HD
HETATM   27  C   UNL     1      27.300  37.830  47.509  1.00  0.00     0.254 C 
HETATM   28  C   UNL     1      28.607  38.602  47.791  1.00  0.00     0.169 C 
ENDBRANCH   1  21
BRANCH   5  29
HETATM   29  N   UNL     1      25.401  42.752  50.330  1.00  0.00    -0.187 N 
HETATM   30  H   UNL     1      24.506  42.281  50.301  1.00  0.00     0.184 HD
BRANCH  29  31
HETATM   31  C   UNL     1      25.372  44.142  50.164  1.00  0.00     0.049 A 
HETATM   32  C   UNL     1      24.181  44.879  50.147  1.00  0.00     0.032 A 
HETATM   33  C   UNL     1      24.187  46.264  49.950  1.00  0.00     0.038 A 
HETATM   34  C   UNL     1      25.402  46.923  49.738  1.00  0.00     0.103 A 
HETATM   35  C   UNL     1      26.602  46.207  49.727  1.00  0.00     0.038 A 
HETATM   36  C   UNL     1      26.577  44.823  49.938  1.00  0.00     0.032 A 
BRANCH  34  37
HETATM   37  N   UNL     1      25.410  48.376  49.525  1.00  0.00    -0.116 N 
HETATM   38  O   UNL     1      24.325  48.970  49.604  1.00  0.00    -0.532 OA
HETATM   39  O   UNL     1      26.494  48.917  49.274  1.00  0.00    -0.532 OA
ENDBRANCH  34  37
ENDBRANCH  29  31
ENDBRANCH   5  29
TORSDOF 7
ENDMDL
MODEL 5
REMARK VINA RESULT:      -9.6      4.493      7.723
REMARK  7 active torsions:
REMARK  status: ('A' for Active; 'I' for Inactive)
REMARK    1  A    between atoms: N_6  and  C_7 
REMARK    2  A    between atoms: C_9  and  N_10 
REMARK    3  A    between atoms: N_10  and  N_11 
REMARK    4  A    between atoms: C_12  and  C_13 
REMARK    5  A    between atoms: C_24  and  N_25 
REMARK    6  A    between atoms: N_25  and  C_26 
REMARK    7  A    between atoms: C_29  and  N_30 
ROOT
HETATM    1  C   UNL     1      22.515  47.015  48.441  1.00  0.00     0.756 A 
HETATM    2  N   UNL     1      23.624  46.741  49.100  1.00  0.00     0.133 NA
HETATM    3  C   UNL     1      24.183  47.736  49.787  1.00  0.00     0.774 A 
HETATM    4  N   UNL     1      23.659  48.950  49.876  1.00  0.00     0.133 NA
HETATM    5  C   UNL     1      22.498  49.121  49.261  1.00  0.00     0.758 A 
HETATM    6  N   UNL     1      21.885  48.173  48.556  1.00  0.00     0.131 NA
ENDROOT
BRANCH   3   7
HETATM    7  N   UNL     1      25.381  47.519  50.490  1.00  0.00    -0.105 N 
HETATM    8  H   UNL     1      26.042  48.251  50.238  1.00  0.00     0.208 HD
BRANCH   7   9
HETATM    9  N   UNL     1      25.813  46.231  50.626  1.00  0.00    -0.171 NA
HETATM   10  C   UNL     1      25.891  45.804  51.845  1.00  0.00     0.153 C 
BRANCH  10  11
HETATM   11  C   UNL     1      26.373  44.464  52.108  1.00  0.00     0.011 A 
HETATM   12  C   UNL     1      27.436  44.027  52.966  1.00  0.00     0.004 A 
HETATM   13  C   UNL     1      27.497  42.635  52.880  1.00  0.00     0.043 A 
HETATM   14  C   UNL     1      28.350  44.681  53.824  1.00  0.00     0.014 A 
HETATM   15  C   UNL     1      28.423  41.868  53.598  1.00  0.00     0.030 A 
HETATM   16  N   UNL     1      26.512  42.238  52.007  1.00  0.00    -0.364 N 
HETATM   17  C   UNL     1      29.313  42.542  54.438  1.00  0.00     0.002 A 
HETATM   18  C   UNL     1      29.279  43.929  54.553  1.00  0.00     0.001 A 
HETATM   19  H   UNL     1      26.322  41.276  51.759  1.00  0.00     0.165 HD
HETATM   20  C   UNL     1      25.826  43.327  51.540  1.00  0.00     0.102 A 
ENDBRANCH  10  11
ENDBRANCH   7   9
ENDBRANCH   3   7
BRANCH   1  21
HETATM   21  N   UNL     1      21.979  46.028  47.611  1.00  0.00    -0.210 N 
HETATM   22  C   UNL     1      21.203  46.497  46.459  1.00  0.00     0.169 C 
HETATM   23  C   UNL     1      19.760  46.839  46.882  1.00  0.00     0.254 C 
HETATM   24  N   UNL     1      19.121  45.643  47.604  1.00  0.00    -0.072 N 
HETATM   25  C   UNL     1      17.707  45.923  48.008  1.00  0.00     0.269 C 
HETATM   26  H   UNL     1      19.102  44.865  46.932  1.00  0.00     0.279 HD
HETATM   27  C   UNL     1      19.981  45.175  48.793  1.00  0.00     0.254 C 
HETATM   28  C   UNL     1      21.415  44.864  48.312  1.00  0.00     0.169 C 
ENDBRANCH   1  21
BRANCH   5  29
HETATM   29  N   UNL     1      21.946  50.398  49.355  1.00  0.00    -0.187 N 
HETATM   30  H   UNL     1      22.649  51.068  49.641  1.00  0.00     0.184 HD
BRANCH  29  31
HETATM   31  C   UNL     1      20.619  50.839  49.401  1.00  0.00     0.049 A 
HETATM   32  C   UNL     1      19.650  50.246  50.221  1.00  0.00     0.032 A 
HETATM   33  C   UNL     1      18.325  50.695  50.221  1.00  0.00     0.038 A 
HETATM   34  C   UNL     1      17.952  51.738  49.366  1.00  0.00     0.103 A 
HETATM   35  C   UNL     1      18.895  52.331  48.522  1.00  0.00     0.038 A 
HETATM   36  C   UNL     1      20.219  51.876  48.545  1.00  0.00     0.032 A 
BRANCH  34  37
HETATM   37  N   UNL     1      16.561  52.206  49.360  1.00  0.00    -0.116 N 
HETATM   38  O   UNL     1      16.207  52.955  50.282  1.00  0.00    -0.532 OA
HETATM   39  O   UNL     1      15.826  51.823  48.441  1.00  0.00    -0.532 OA
ENDBRANCH  34  37
ENDBRANCH  29  31
ENDBRANCH   5  29
TORSDOF 7
ENDMDL
MODEL 6
REMARK VINA RESULT:      -9.5      3.088      5.878
REMARK  7 active torsions:
REMARK  status: ('A' for Active; 'I' for Inactive)
REMARK    1  A    between atoms: N_6  and  C_7 
REMARK    2  A    between atoms: C_9  and  N_10 
REMARK    3  A    between atoms: N_10  and  N_11 
REMARK    4  A    between atoms: C_12  and  C_13 
REMARK    5  A    between atoms: C_24  and  N_25 
REMARK    6  A    between atoms: N_25  and  C_26 
REMARK    7  A    between atoms: C_29  and  N_30 
ROOT
HETATM    1  C   UNL     1      26.065  41.902  50.532  1.00  0.00     0.756 A 
HETATM    2  N   UNL     1      27.030  41.989  51.426  1.00  0.00     0.133 NA
HETATM    3  C   UNL     1      28.069  41.170  51.279  1.00  0.00     0.774 A 
HETATM    4  N   UNL     1      28.198  40.323  50.268  1.00  0.00     0.133 NA
HETATM    5  C   UNL     1      27.232  40.359  49.363  1.00  0.00     0.758 A 
HETATM    6  N   UNL     1      26.164  41.150  49.447  1.00  0.00     0.131 NA
ENDROOT
BRANCH   3   7
HETATM    7  N   UNL     1      29.120  41.193  52.213  1.00  0.00    -0.105 N 
HETATM    8  H   UNL     1      29.490  40.249  52.307  1.00  0.00     0.208 HD
BRANCH   7   9
HETATM    9  N   UNL     1      28.968  41.976  53.320  1.00  0.00    -0.171 NA
HETATM   10  C   UNL     1      29.473  43.164  53.226  1.00  0.00     0.153 C 
BRANCH  10  11
HETATM   11  C   UNL     1      29.403  44.068  54.355  1.00  0.00     0.011 A 
HETATM   12  C   UNL     1      30.166  44.075  55.569  1.00  0.00     0.004 A 
HETATM   13  C   UNL     1      29.726  45.159  56.333  1.00  0.00     0.043 A 
HETATM   14  C   UNL     1      31.203  43.270  56.093  1.00  0.00     0.014 A 
HETATM   15  C   UNL     1      30.262  45.473  57.587  1.00  0.00     0.030 A 
HETATM   16  N   UNL     1      28.737  45.787  55.614  1.00  0.00    -0.364 N 
HETATM   17  C   UNL     1      31.286  44.659  58.079  1.00  0.00     0.002 A 
HETATM   18  C   UNL     1      31.753  43.573  57.344  1.00  0.00     0.001 A 
HETATM   19  H   UNL     1      28.241  46.613  55.925  1.00  0.00     0.165 HD
HETATM   20  C   UNL     1      28.537  45.145  54.421  1.00  0.00     0.102 A 
ENDBRANCH  10  11
ENDBRANCH   7   9
ENDBRANCH   3   7
BRANCH   1  21
HETATM   21  N   UNL     1      24.907  42.657  50.733  1.00  0.00    -0.210 N 
HETATM   22  C   UNL     1      24.249  43.173  49.528  1.00  0.00     0.169 C 
HETATM   23  C   UNL     1      24.937  44.468  49.050  1.00  0.00     0.254 C 
HETATM   24  N   UNL     1      25.003  45.488  50.196  1.00  0.00    -0.072 N 
HETATM   25  C   UNL     1      25.639  46.773  49.765  1.00  0.00     0.269 C 
HETATM   26  H   UNL     1      24.033  45.699  50.464  1.00  0.00     0.279 HD
HETATM   27  C   UNL     1      25.684  44.895  51.443  1.00  0.00     0.254 C 
HETATM   28  C   UNL     1      24.964  43.595  51.864  1.00  0.00     0.169 C 
ENDBRANCH   1  21
BRANCH   5  29
HETATM   29  N   UNL     1      27.366  39.469  48.298  1.00  0.00    -0.187 N 
HETATM   30  H   UNL     1      27.348  38.513  48.631  1.00  0.00     0.184 HD
BRANCH  29  31
HETATM   31  C   UNL     1      27.785  39.653  46.976  1.00  0.00     0.049 A 
HETATM   32  C   UNL     1      27.944  40.920  46.399  1.00  0.00     0.032 A 
HETATM   33  C   UNL     1      28.336  41.066  45.064  1.00  0.00     0.038 A 
HETATM   34  C   UNL     1      28.549  39.927  44.281  1.00  0.00     0.103 A 
HETATM   35  C   UNL     1      28.376  38.652  44.827  1.00  0.00     0.038 A 
HETATM   36  C   UNL     1      27.994  38.525  46.167  1.00  0.00     0.032 A 
BRANCH  34  37
HETATM   37  N   UNL     1      28.956  40.079  42.878  1.00  0.00    -0.116 N 
HETATM   38  O   UNL     1      28.528  39.244  42.068  1.00  0.00    -0.532 OA
HETATM   39  O   UNL     1      29.703  41.022  42.592  1.00  0.00    -0.532 OA
ENDBRANCH  34  37
ENDBRANCH  29  31
ENDBRANCH   5  29
TORSDOF 7
ENDMDL
MODEL 7
REMARK VINA RESULT:      -9.5      2.878      6.708
REMARK  7 active torsions:
REMARK  status: ('A' for Active; 'I' for Inactive)
REMARK    1  A    between atoms: N_6  and  C_7 
REMARK    2  A    between atoms: C_9  and  N_10 
REMARK    3  A    between atoms: N_10  and  N_11 
REMARK    4  A    between atoms: C_12  and  C_13 
REMARK    5  A    between atoms: C_24  and  N_25 
REMARK    6  A    between atoms: N_25  and  C_26 
REMARK    7  A    between atoms: C_29  and  N_30 
ROOT
HETATM    1  C   UNL     1      27.279  41.350  49.283  1.00  0.00     0.756 A 
HETATM    2  N   UNL     1      26.196  42.045  48.998  1.00  0.00     0.133 NA
HETATM    3  C   UNL     1      25.547  42.603  50.018  1.00  0.00     0.774 A 
HETATM    4  N   UNL     1      25.960  42.533  51.276  1.00  0.00     0.133 NA
HETATM    5  C   UNL     1      27.104  41.895  51.470  1.00  0.00     0.758 A 
HETATM    6  N   UNL     1      27.804  41.313  50.497  1.00  0.00     0.131 NA
ENDROOT
BRANCH   3   7
HETATM    7  N   UNL     1      24.369  43.335  49.787  1.00  0.00    -0.105 N 
HETATM    8  H   UNL     1      23.651  42.696  49.450  1.00  0.00     0.208 HD
BRANCH   7   9
HETATM    9  N   UNL     1      24.491  44.575  49.230  1.00  0.00    -0.171 NA
HETATM   10  C   UNL     1      24.163  45.560  50.003  1.00  0.00     0.153 C 
BRANCH  10  11
HETATM   11  C   UNL     1      24.219  46.917  49.502  1.00  0.00     0.011 A 
HETATM   12  C   UNL     1      25.351  47.778  49.318  1.00  0.00     0.004 A 
HETATM   13  C   UNL     1      24.877  48.984  48.797  1.00  0.00     0.043 A 
HETATM   14  C   UNL     1      26.741  47.647  49.532  1.00  0.00     0.014 A 
HETATM   15  C   UNL     1      25.718  50.060  48.486  1.00  0.00     0.030 A 
HETATM   16  N   UNL     1      23.514  48.864  48.667  1.00  0.00    -0.364 N 
HETATM   17  C   UNL     1      27.088  49.901  48.708  1.00  0.00     0.002 A 
HETATM   18  C   UNL     1      27.596  48.711  49.222  1.00  0.00     0.001 A 
HETATM   19  H   UNL     1      22.909  49.590  48.305  1.00  0.00     0.165 HD
HETATM   20  C   UNL     1      23.106  47.624  49.082  1.00  0.00     0.102 A 
ENDBRANCH  10  11
ENDBRANCH   7   9
ENDBRANCH   3   7
BRANCH   1  21
HETATM   21  N   UNL     1      27.906  40.650  48.249  1.00  0.00    -0.210 N 
HETATM   22  C   UNL     1      27.062  40.282  47.108  1.00  0.00     0.169 C 
HETATM   23  C   UNL     1      26.268  38.996  47.415  1.00  0.00     0.254 C 
HETATM   24  N   UNL     1      27.222  37.876  47.858  1.00  0.00    -0.072 N 
HETATM   25  C   UNL     1      26.493  36.599  48.139  1.00  0.00     0.269 C 
HETATM   26  H   UNL     1      27.860  37.701  47.071  1.00  0.00     0.279 HD
HETATM   27  C   UNL     1      28.099  38.317  49.044  1.00  0.00     0.254 C 
HETATM   28  C   UNL     1      28.854  39.614  48.685  1.00  0.00     0.169 C 
ENDBRANCH   1  21
BRANCH   5  29
HETATM   29  N   UNL     1      27.540  41.822  52.792  1.00  0.00    -0.187 N 
HETATM   30  H   UNL     1      27.203  40.974  53.229  1.00  0.00     0.184 HD
BRANCH  29  31
HETATM   31  C   UNL     1      28.081  42.785  53.651  1.00  0.00     0.049 A 
HETATM   32  C   UNL     1      29.402  42.734  54.113  1.00  0.00     0.032 A 
HETATM   33  C   UNL     1      29.901  43.699  54.994  1.00  0.00     0.038 A 
HETATM   34  C   UNL     1      29.059  44.720  55.445  1.00  0.00     0.103 A 
HETATM   35  C   UNL     1      27.729  44.781  55.016  1.00  0.00     0.038 A 
HETATM   36  C   UNL     1      27.251  43.813  54.125  1.00  0.00     0.032 A 
BRANCH  34  37
HETATM   37  N   UNL     1      29.578  45.731  56.375  1.00  0.00    -0.116 N 
HETATM   38  O   UNL     1      30.788  45.994  56.312  1.00  0.00    -0.532 OA
HETATM   39  O   UNL     1      28.782  46.253  57.165  1.00  0.00    -0.532 OA
ENDBRANCH  34  37
ENDBRANCH  29  31
ENDBRANCH   5  29
TORSDOF 7
ENDMDL
MODEL 8
REMARK VINA RESULT:      -9.2      4.410      9.584
REMARK  7 active torsions:
REMARK  status: ('A' for Active; 'I' for Inactive)
REMARK    1  A    between atoms: N_6  and  C_7 
REMARK    2  A    between atoms: C_9  and  N_10 
REMARK    3  A    between atoms: N_10  and  N_11 
REMARK    4  A    between atoms: C_12  and  C_13 
REMARK    5  A    between atoms: C_24  and  N_25 
REMARK    6  A    between atoms: N_25  and  C_26 
REMARK    7  A    between atoms: C_29  and  N_30 
ROOT
HETATM    1  C   UNL     1      24.582  45.073  50.447  1.00  0.00     0.756 A 
HETATM    2  N   UNL     1      24.414  46.067  49.597  1.00  0.00     0.133 NA
HETATM    3  C   UNL     1      24.662  47.296  50.044  1.00  0.00     0.774 A 
HETATM    4  N   UNL     1      25.109  47.556  51.265  1.00  0.00     0.133 NA
HETATM    5  C   UNL     1      25.339  46.499  52.029  1.00  0.00     0.758 A 
HETATM    6  N   UNL     1      25.112  45.243  51.648  1.00  0.00     0.131 NA
ENDROOT
BRANCH   3   7
HETATM    7  N   UNL     1      24.477  48.403  49.198  1.00  0.00    -0.105 N 
HETATM    8  H   UNL     1      25.389  48.723  48.878  1.00  0.00     0.208 HD
BRANCH   7   9
HETATM    9  N   UNL     1      23.521  49.314  49.544  1.00  0.00    -0.171 NA
HETATM   10  C   UNL     1      22.416  49.231  48.876  1.00  0.00     0.153 C 
BRANCH  10  11
HETATM   11  C   UNL     1      21.346  50.172  49.135  1.00  0.00     0.011 A 
HETATM   12  C   UNL     1      20.276  50.597  48.281  1.00  0.00     0.004 A 
HETATM   13  C   UNL     1      19.503  51.510  49.002  1.00  0.00     0.043 A 
HETATM   14  C   UNL     1      19.877  50.285  46.961  1.00  0.00     0.014 A 
HETATM   15  C   UNL     1      18.362  52.125  48.473  1.00  0.00     0.030 A 
HETATM   16  N   UNL     1      20.077  51.635  50.245  1.00  0.00    -0.364 N 
HETATM   17  C   UNL     1      17.992  51.796  47.166  1.00  0.00     0.002 A 
HETATM   18  C   UNL     1      18.736  50.888  46.419  1.00  0.00     0.001 A 
HETATM   19  H   UNL     1      19.719  52.230  50.981  1.00  0.00     0.165 HD
HETATM   20  C   UNL     1      21.182  50.833  50.340  1.00  0.00     0.102 A 
ENDBRANCH  10  11
ENDBRANCH   7   9
ENDBRANCH   3   7
BRANCH   1  21
HETATM   21  N   UNL     1      24.207  43.789  50.045  1.00  0.00    -0.210 N 
HETATM   22  C   UNL     1      24.256  42.745  51.075  1.00  0.00     0.169 C 
HETATM   23  C   UNL     1      25.694  42.208  51.233  1.00  0.00     0.254 C 
HETATM   24  N   UNL     1      26.243  41.754  49.872  1.00  0.00    -0.072 N 
HETATM   25  C   UNL     1      27.629  41.200  49.987  1.00  0.00     0.269 C 
HETATM   26  H   UNL     1      25.633  40.995  49.543  1.00  0.00     0.279 HD
HETATM   27  C   UNL     1      26.153  42.877  48.822  1.00  0.00     0.254 C 
HETATM   28  C   UNL     1      24.698  43.383  48.720  1.00  0.00     0.169 C 
ENDBRANCH   1  21
BRANCH   5  29
HETATM   29  N   UNL     1      25.810  46.771  53.313  1.00  0.00    -0.187 N 
HETATM   30  H   UNL     1      25.390  47.619  53.672  1.00  0.00     0.184 HD
BRANCH  29  31
HETATM   31  C   UNL     1      26.904  46.274  54.031  1.00  0.00     0.049 A 
HETATM   32  C   UNL     1      27.639  47.055  54.933  1.00  0.00     0.032 A 
HETATM   33  C   UNL     1      28.744  46.533  55.611  1.00  0.00     0.038 A 
HETATM   34  C   UNL     1      29.143  45.215  55.366  1.00  0.00     0.103 A 
HETATM   35  C   UNL     1      28.441  44.423  54.454  1.00  0.00     0.038 A 
HETATM   36  C   UNL     1      27.329  44.958  53.793  1.00  0.00     0.032 A 
BRANCH  34  37
HETATM   37  N   UNL     1      30.307  44.667  56.073  1.00  0.00    -0.116 N 
HETATM   38  O   UNL     1      30.647  45.222  57.128  1.00  0.00    -0.532 OA
HETATM   39  O   UNL     1      30.880  43.691  55.573  1.00  0.00    -0.532 OA
ENDBRANCH  34  37
ENDBRANCH  29  31
ENDBRANCH   5  29
TORSDOF 7
ENDMDL
MODEL 9
REMARK VINA RESULT:      -9.1      4.129      7.014
REMARK  7 active torsions:
REMARK  status: ('A' for Active; 'I' for Inactive)
REMARK    1  A    between atoms: N_6  and  C_7 
REMARK    2  A    between atoms: C_9  and  N_10 
REMARK    3  A    between atoms: N_10  and  N_11 
REMARK    4  A    between atoms: C_12  and  C_13 
REMARK    5  A    between atoms: C_24  and  N_25 
REMARK    6  A    between atoms: N_25  and  C_26 
REMARK    7  A    between atoms: C_29  and  N_30 
ROOT
HETATM    1  C   UNL     1      22.527  46.881  48.706  1.00  0.00     0.756 A 
HETATM    2  N   UNL     1      23.709  46.650  49.241  1.00  0.00     0.133 NA
HETATM    3  C   UNL     1      24.345  47.688  49.779  1.00  0.00     0.774 A 
HETATM    4  N   UNL     1      23.833  48.909  49.844  1.00  0.00     0.133 NA
HETATM    5  C   UNL     1      22.604  49.042  49.366  1.00  0.00     0.758 A 
HETATM    6  N   UNL     1      21.911  48.048  48.814  1.00  0.00     0.131 NA
ENDROOT
BRANCH   3   7
HETATM    7  N   UNL     1      25.622  47.516  50.343  1.00  0.00    -0.105 N 
HETATM    8  H   UNL     1      26.249  48.211  49.942  1.00  0.00     0.208 HD
BRANCH   7   9
HETATM    9  N   UNL     1      26.061  46.239  50.543  1.00  0.00    -0.171 NA
HETATM   10  C   UNL     1      26.047  45.840  51.774  1.00  0.00     0.153 C 
BRANCH  10  11
HETATM   11  C   UNL     1      26.527  44.515  52.106  1.00  0.00     0.011 A 
HETATM   12  C   UNL     1      27.560  44.119  53.018  1.00  0.00     0.004 A 
HETATM   13  C   UNL     1      27.631  42.724  52.988  1.00  0.00     0.043 A 
HETATM   14  C   UNL     1      28.439  44.810  53.881  1.00  0.00     0.014 A 
HETATM   15  C   UNL     1      28.534  41.992  53.768  1.00  0.00     0.030 A 
HETATM   16  N   UNL     1      26.680  42.288  52.096  1.00  0.00    -0.364 N 
HETATM   17  C   UNL     1      29.390  42.703  54.612  1.00  0.00     0.002 A 
HETATM   18  C   UNL     1      29.345  44.093  54.672  1.00  0.00     0.001 A 
HETATM   19  H   UNL     1      26.504  41.315  51.879  1.00  0.00     0.165 HD
HETATM   20  C   UNL     1      26.005  43.354  51.563  1.00  0.00     0.102 A 
ENDBRANCH  10  11
ENDBRANCH   7   9
ENDBRANCH   3   7
BRANCH   1  21
HETATM   21  N   UNL     1      21.895  45.839  48.023  1.00  0.00    -0.210 N 
HETATM   22  C   UNL     1      21.101  44.914  48.839  1.00  0.00     0.169 C 
HETATM   23  C   UNL     1      22.010  43.852  49.492  1.00  0.00     0.254 C 
HETATM   24  N   UNL     1      22.860  43.151  48.421  1.00  0.00    -0.072 N 
HETATM   25  C   UNL     1      23.738  42.092  49.011  1.00  0.00     0.269 C 
HETATM   26  H   UNL     1      22.206  42.688  47.779  1.00  0.00     0.279 HD
HETATM   27  C   UNL     1      23.659  44.164  47.581  1.00  0.00     0.254 C 
HETATM   28  C   UNL     1      22.700  45.208  46.967  1.00  0.00     0.169 C 
ENDBRANCH   1  21
BRANCH   5  29
HETATM   29  N   UNL     1      22.064  50.325  49.434  1.00  0.00    -0.187 N 
HETATM   30  H   UNL     1      22.744  50.977  49.804  1.00  0.00     0.184 HD
BRANCH  29  31
HETATM   31  C   UNL     1      20.745  50.787  49.359  1.00  0.00     0.049 A 
HETATM   32  C   UNL     1      20.344  51.799  48.477  1.00  0.00     0.032 A 
HETATM   33  C   UNL     1      19.023  52.257  48.449  1.00  0.00     0.038 A 
HETATM   34  C   UNL     1      18.088  51.714  49.336  1.00  0.00     0.103 A 
HETATM   35  C   UNL     1      18.468  50.719  50.242  1.00  0.00     0.038 A 
HETATM   36  C   UNL     1      19.792  50.265  50.247  1.00  0.00     0.032 A 
BRANCH  34  37
HETATM   37  N   UNL     1      16.702  52.197  49.313  1.00  0.00    -0.116 N 
HETATM   38  O   UNL     1      15.988  51.836  48.365  1.00  0.00    -0.532 OA
HETATM   39  O   UNL     1      16.332  52.937  50.233  1.00  0.00    -0.532 OA
ENDBRANCH  34  37
ENDBRANCH  29  31
ENDBRANCH   5  29
TORSDOF 7
ENDMDL
MODEL 10
REMARK VINA RESULT:      -9.1      3.193      8.844
REMARK  7 active torsions:
REMARK  status: ('A' for Active; 'I' for Inactive)
REMARK    1  A    between atoms: N_6  and  C_7 
REMARK    2  A    between atoms: C_9  and  N_10 
REMARK    3  A    between atoms: N_10  and  N_11 
REMARK    4  A    between atoms: C_12  and  C_13 
REMARK    5  A    between atoms: C_24  and  N_25 
REMARK    6  A    between atoms: N_25  and  C_26 
REMARK    7  A    between atoms: C_29  and  N_30 
ROOT
HETATM    1  C   UNL     1      25.695  44.469  51.789  1.00  0.00     0.756 A 
HETATM    2  N   UNL     1      25.240  43.390  51.182  1.00  0.00     0.133 NA
HETATM    3  C   UNL     1      26.053  42.337  51.126  1.00  0.00     0.774 A 
HETATM    4  N   UNL     1      27.255  42.308  51.683  1.00  0.00     0.133 NA
HETATM    5  C   UNL     1      27.604  43.397  52.351  1.00  0.00     0.758 A 
HETATM    6  N   UNL     1      26.843  44.486  52.448  1.00  0.00     0.131 NA
ENDROOT
BRANCH   3   7
HETATM    7  N   UNL     1      25.640  41.164  50.470  1.00  0.00    -0.105 N 
HETATM    8  H   UNL     1      25.126  40.587  51.132  1.00  0.00     0.208 HD
BRANCH   7   9
HETATM    9  N   UNL     1      26.515  40.583  49.598  1.00  0.00    -0.171 NA
HETATM   10  C   UNL     1      26.721  39.320  49.786  1.00  0.00     0.153 C 
BRANCH  10  11
HETATM   11  C   UNL     1      27.660  38.610  48.943  1.00  0.00     0.011 A 
HETATM   12  C   UNL     1      27.584  38.306  47.544  1.00  0.00     0.004 A 
HETATM   13  C   UNL     1      28.747  37.613  47.203  1.00  0.00     0.043 A 
HETATM   14  C   UNL     1      26.640  38.563  46.524  1.00  0.00     0.014 A 
HETATM   15  C   UNL     1      29.011  37.163  45.903  1.00  0.00     0.030 A 
HETATM   16  N   UNL     1      29.503  37.500  48.346  1.00  0.00    -0.364 N 
HETATM   17  C   UNL     1      28.060  37.433  44.916  1.00  0.00     0.002 A 
HETATM   18  C   UNL     1      26.890  38.124  45.218  1.00  0.00     0.001 A 
HETATM   19  H   UNL     1      30.407  37.047  48.390  1.00  0.00     0.165 HD
HETATM   20  C   UNL     1      28.864  38.100  49.397  1.00  0.00     0.102 A 
ENDBRANCH  10  11
ENDBRANCH   7   9
ENDBRANCH   3   7
BRANCH   1  21
HETATM   21  N   UNL     1      24.915  45.627  51.752  1.00  0.00    -0.210 N 
HETATM   22  C   UNL     1      24.234  45.912  50.484  1.00  0.00     0.169 C 
HETATM   23  C   UNL     1      25.197  46.603  49.497  1.00  0.00     0.254 C 
HETATM   24  N   UNL     1      25.824  47.844  50.148  1.00  0.00    -0.072 N 
HETATM   25  C   UNL     1      26.746  48.561  49.211  1.00  0.00     0.269 C 
HETATM   26  H   UNL     1      25.053  48.484  50.372  1.00  0.00     0.279 HD
HETATM   27  C   UNL     1      26.509  47.498  51.483  1.00  0.00     0.254 C 
HETATM   28  C   UNL     1      25.504  46.796  52.422  1.00  0.00     0.169 C 
ENDBRANCH   1  21
BRANCH   5  29
HETATM   29  N   UNL     1      28.868  43.368  52.939  1.00  0.00    -0.187 N 
HETATM   30  H   UNL     1      29.468  42.710  52.456  1.00  0.00     0.184 HD
BRANCH  29  31
HETATM   31  C   UNL     1      29.336  43.838  54.171  1.00  0.00     0.049 A 
HETATM   32  C   UNL     1      28.813  44.978  54.796  1.00  0.00     0.032 A 
HETATM   33  C   UNL     1      29.325  45.437  56.014  1.00  0.00     0.038 A 
HETATM   34  C   UNL     1      30.397  44.763  56.609  1.00  0.00     0.103 A 
HETATM   35  C   UNL     1      30.951  43.636  55.993  1.00  0.00     0.038 A 
HETATM   36  C   UNL     1      30.418  43.185  54.780  1.00  0.00     0.032 A 
BRANCH  34  37
HETATM   37  N   UNL     1      30.939  45.246  57.884  1.00  0.00    -0.116 N 
HETATM   38  O   UNL     1      30.604  46.381  58.253  1.00  0.00    -0.532 OA
HETATM   39  O   UNL     1      31.700  44.496  58.509  1.00  0.00    -0.532 OA
ENDBRANCH  34  37
ENDBRANCH  29  31
ENDBRANCH   5  29
TORSDOF 7
ENDMDL
