MODEL 1
REMARK VINA RESULT:      -7.9      0.000      0.000
REMARK  5 active torsions:
REMARK  status: ('A' for Active; 'I' for Inactive)
REMARK    1  A    between atoms: C_2  and  C_3 
REMARK       I    between atoms: C_3  and  N_4 
REMARK    2  A    between atoms: N_4  and  C_5 
REMARK    3  A    between atoms: C_5  and  C_6 
REMARK    4  A    between atoms: C_5  and  C_17 
REMARK    5  A    between atoms: C_7  and  O_8 
ROOT
HETATM    1  C   UNL     1      26.442  43.216  51.780  1.00  0.00     0.154 C 
ENDROOT
BRANCH   1   2
HETATM    2  N   UNL     1      26.181  44.532  51.212  1.00  0.00    -0.348 N 
HETATM    3  C   UNL     1      24.906  45.039  51.156  1.00  0.00     0.218 C 
HETATM    4  O   UNL     1      23.926  44.416  51.558  1.00  0.00    -0.274 OA
HETATM    5  H   UNL     1      26.943  45.192  51.220  1.00  0.00     0.163 HD
BRANCH   3   6
HETATM    6  C   UNL     1      24.796  46.461  50.644  1.00  0.00     0.098 C 
HETATM    7  C   UNL     1      26.022  47.314  50.930  1.00  0.00     0.014 C 
ENDBRANCH   3   6
ENDBRANCH   1   2
BRANCH   1   8
HETATM    8  C   UNL     1      27.642  43.303  52.715  1.00  0.00     0.005 A 
HETATM    9  C   UNL     1      27.700  44.259  53.750  1.00  0.00     0.103 A 
HETATM   10  C   UNL     1      28.786  44.362  54.638  1.00  0.00     0.100 A 
HETATM   11  C   UNL     1      29.866  43.475  54.445  1.00  0.00    -0.004 A 
HETATM   12  N   UNL     1      28.812  45.282  55.632  1.00  0.00    -0.257 NA
HETATM   13  C   UNL     1      29.841  42.534  53.404  1.00  0.00     0.014 A 
HETATM   14  C   UNL     1      30.965  43.555  55.311  1.00  0.00     0.015 A 
HETATM   15  C   UNL     1      28.745  42.453  52.546  1.00  0.00     0.013 A 
HETATM   16  C   UNL     1      30.977  44.497  56.331  1.00  0.00     0.020 A 
HETATM   17  C   UNL     1      29.885  45.331  56.449  1.00  0.00     0.117 A 
BRANCH   9  18
HETATM   18  O   UNL     1      26.646  45.133  53.922  1.00  0.00    -0.358 OA
HETATM   19  H   UNL     1      26.192  44.908  54.765  1.00  0.00     0.218 HD
ENDBRANCH   9  18
ENDBRANCH   1   8
BRANCH   1  20
HETATM   20  C   UNL     1      26.563  42.117  50.723  1.00  0.00    -0.031 A 
HETATM   21  C   UNL     1      26.954  42.484  49.421  1.00  0.00     0.009 A 
HETATM   22  C   UNL     1      27.078  41.532  48.409  1.00  0.00     0.001 A 
HETATM   23  C   UNL     1      26.806  40.193  48.679  1.00  0.00     0.000 A 
HETATM   24  C   UNL     1      26.412  39.810  49.957  1.00  0.00     0.001 A 
HETATM   25  C   UNL     1      26.292  40.762  50.974  1.00  0.00     0.009 A 
ENDBRANCH   1  20
TORSDOF 5
ENDMDL
MODEL 2
REMARK VINA RESULT:      -7.8      6.368      9.024
REMARK  5 active torsions:
REMARK  status: ('A' for Active; 'I' for Inactive)
REMARK    1  A    between atoms: C_2  and  C_3 
REMARK       I    between atoms: C_3  and  N_4 
REMARK    2  A    between atoms: N_4  and  C_5 
REMARK    3  A    between atoms: C_5  and  C_6 
REMARK    4  A    between atoms: C_5  and  C_17 
REMARK    5  A    between atoms: C_7  and  O_8 
ROOT
HETATM    1  C   UNL     1      20.914  48.833  48.417  1.00  0.00     0.154 C 
ENDROOT
BRANCH   1   2
HETATM    2  N   UNL     1      20.162  50.074  48.530  1.00  0.00    -0.348 N 
HETATM    3  C   UNL     1      19.468  50.380  49.675  1.00  0.00     0.218 C 
HETATM    4  O   UNL     1      19.428  49.628  50.647  1.00  0.00    -0.274 OA
HETATM    5  H   UNL     1      20.457  50.843  47.948  1.00  0.00     0.163 HD
BRANCH   3   6
HETATM    6  C   UNL     1      18.825  51.752  49.697  1.00  0.00     0.098 C 
HETATM    7  C   UNL     1      19.028  52.547  48.416  1.00  0.00     0.014 C 
ENDBRANCH   3   6
ENDBRANCH   1   2
BRANCH   1   8
HETATM    8  C   UNL     1      22.404  49.150  48.393  1.00  0.00     0.005 A 
HETATM    9  C   UNL     1      23.336  48.357  49.093  1.00  0.00     0.103 A 
HETATM   10  C   UNL     1      24.719  48.615  49.086  1.00  0.00     0.100 A 
HETATM   11  C   UNL     1      25.165  49.739  48.359  1.00  0.00    -0.004 A 
HETATM   12  N   UNL     1      25.596  47.831  49.758  1.00  0.00    -0.257 NA
HETATM   13  C   UNL     1      24.251  50.557  47.676  1.00  0.00     0.014 A 
HETATM   14  C   UNL     1      26.537  50.024  48.335  1.00  0.00     0.015 A 
HETATM   15  C   UNL     1      22.887  50.269  47.698  1.00  0.00     0.013 A 
HETATM   16  C   UNL     1      27.427  49.208  49.022  1.00  0.00     0.020 A 
HETATM   17  C   UNL     1      26.910  48.132  49.713  1.00  0.00     0.117 A 
BRANCH   9  18
HETATM   18  O   UNL     1      22.891  47.269  49.814  1.00  0.00    -0.358 OA
HETATM   19  H   UNL     1      22.995  46.466  49.257  1.00  0.00     0.218 HD
ENDBRANCH   9  18
ENDBRANCH   1   8
BRANCH   1  20
HETATM   20  C   UNL     1      20.453  47.953  47.253  1.00  0.00    -0.031 A 
HETATM   21  C   UNL     1      19.216  48.246  46.646  1.00  0.00     0.009 A 
HETATM   22  C   UNL     1      18.735  47.479  45.584  1.00  0.00     0.001 A 
HETATM   23  C   UNL     1      19.479  46.401  45.113  1.00  0.00     0.000 A 
HETATM   24  C   UNL     1      20.701  46.091  45.703  1.00  0.00     0.001 A 
HETATM   25  C   UNL     1      21.187  46.861  46.764  1.00  0.00     0.009 A 
ENDBRANCH   1  20
TORSDOF 5
ENDMDL
MODEL 3
REMARK VINA RESULT:      -7.7      2.337      6.825
REMARK  5 active torsions:
REMARK  status: ('A' for Active; 'I' for Inactive)
REMARK    1  A    between atoms: C_2  and  C_3 
REMARK       I    between atoms: C_3  and  N_4 
REMARK    2  A    between atoms: N_4  and  C_5 
REMARK    3  A    between atoms: C_5  and  C_6 
REMARK    4  A    between atoms: C_5  and  C_17 
REMARK    5  A    between atoms: C_7  and  O_8 
ROOT
HETATM    1  C   UNL     1      25.494  44.821  51.421  1.00  0.00     0.154 C 
ENDROOT
BRANCH   1   2
HETATM    2  N   UNL     1      25.591  43.724  50.468  1.00  0.00    -0.348 N 
HETATM    3  C   UNL     1      24.597  42.782  50.369  1.00  0.00     0.218 C 
HETATM    4  O   UNL     1      23.593  42.799  51.079  1.00  0.00    -0.274 OA
HETATM    5  H   UNL     1      26.171  43.873  49.656  1.00  0.00     0.163 HD
BRANCH   3   6
HETATM    6  C   UNL     1      24.776  41.764  49.261  1.00  0.00     0.098 C 
HETATM    7  C   UNL     1      25.759  40.654  49.598  1.00  0.00     0.014 C 
ENDBRANCH   3   6
ENDBRANCH   1   2
BRANCH   1   8
HETATM    8  C   UNL     1      25.410  46.139  50.660  1.00  0.00     0.005 A 
HETATM    9  C   UNL     1      24.231  46.528  49.991  1.00  0.00     0.103 A 
HETATM   10  C   UNL     1      24.114  47.740  49.287  1.00  0.00     0.100 A 
HETATM   11  C   UNL     1      25.251  48.575  49.243  1.00  0.00    -0.004 A 
HETATM   12  N   UNL     1      22.967  48.096  48.661  1.00  0.00    -0.257 NA
HETATM   13  C   UNL     1      26.443  48.195  49.880  1.00  0.00     0.014 A 
HETATM   14  C   UNL     1      25.167  49.789  48.547  1.00  0.00     0.015 A 
HETATM   15  C   UNL     1      26.522  46.989  50.575  1.00  0.00     0.013 A 
HETATM   16  C   UNL     1      23.983  50.146  47.916  1.00  0.00     0.020 A 
HETATM   17  C   UNL     1      22.920  49.272  48.002  1.00  0.00     0.117 A 
BRANCH   9  18
HETATM   18  O   UNL     1      23.129  45.699  50.026  1.00  0.00    -0.358 OA
HETATM   19  H   UNL     1      23.437  44.771  49.916  1.00  0.00     0.218 HD
ENDBRANCH   9  18
ENDBRANCH   1   8
BRANCH   1  20
HETATM   20  C   UNL     1      26.592  44.793  52.486  1.00  0.00    -0.031 A 
HETATM   21  C   UNL     1      27.710  43.965  52.269  1.00  0.00     0.009 A 
HETATM   22  C   UNL     1      28.743  43.889  53.203  1.00  0.00     0.001 A 
HETATM   23  C   UNL     1      28.675  44.636  54.376  1.00  0.00     0.000 A 
HETATM   24  C   UNL     1      27.576  45.456  54.613  1.00  0.00     0.001 A 
HETATM   25  C   UNL     1      26.541  45.537  53.676  1.00  0.00     0.009 A 
ENDBRANCH   1  20
TORSDOF 5
ENDMDL
MODEL 4
REMARK VINA RESULT:      -7.6      6.769      9.582
REMARK  5 active torsions:
REMARK  status: ('A' for Active; 'I' for Inactive)
REMARK    1  A    between atoms: C_2  and  C_3 
REMARK       I    between atoms: C_3  and  N_4 
REMARK    2  A    between atoms: N_4  and  C_5 
REMARK    3  A    between atoms: C_5  and  C_6 
REMARK    4  A    between atoms: C_5  and  C_17 
REMARK    5  A    between atoms: C_7  and  O_8 
ROOT
HETATM    1  C   UNL     1      21.158  48.835  47.717  1.00  0.00     0.154 C 
ENDROOT
BRANCH   1   2
HETATM    2  N   UNL     1      20.488  47.550  47.578  1.00  0.00    -0.348 N 
HETATM    3  C   UNL     1      19.567  47.336  46.581  1.00  0.00     0.218 C 
HETATM    4  O   UNL     1      19.248  48.207  45.774  1.00  0.00    -0.274 OA
HETATM    5  H   UNL     1      20.964  46.743  47.949  1.00  0.00     0.163 HD
BRANCH   3   6
HETATM    6  C   UNL     1      19.033  45.921  46.484  1.00  0.00     0.098 C 
HETATM    7  C   UNL     1      19.302  45.077  47.720  1.00  0.00     0.014 C 
ENDBRANCH   3   6
ENDBRANCH   1   2
BRANCH   1   8
HETATM    8  C   UNL     1      22.550  48.613  48.296  1.00  0.00     0.005 A 
HETATM    9  C   UNL     1      23.637  49.436  47.933  1.00  0.00     0.103 A 
HETATM   10  C   UNL     1      24.933  49.267  48.453  1.00  0.00     0.100 A 
HETATM   11  C   UNL     1      25.133  48.203  49.357  1.00  0.00    -0.004 A 
HETATM   12  N   UNL     1      25.957  50.078  48.097  1.00  0.00    -0.257 NA
HETATM   13  C   UNL     1      24.072  47.355  49.711  1.00  0.00     0.014 A 
HETATM   14  C   UNL     1      26.415  48.006  49.891  1.00  0.00     0.015 A 
HETATM   15  C   UNL     1      22.798  47.555  49.182  1.00  0.00     0.013 A 
HETATM   16  C   UNL     1      27.455  48.849  49.524  1.00  0.00     0.020 A 
HETATM   17  C   UNL     1      27.178  49.863  48.631  1.00  0.00     0.117 A 
BRANCH   9  18
HETATM   18  O   UNL     1      23.435  50.465  47.037  1.00  0.00    -0.358 OA
HETATM   19  H   UNL     1      23.032  51.221  47.519  1.00  0.00     0.218 HD
ENDBRANCH   9  18
ENDBRANCH   1   8
BRANCH   1  20
HETATM   20  C   UNL     1      20.329  49.866  48.485  1.00  0.00    -0.031 A 
HETATM   21  C   UNL     1      20.281  51.184  47.992  1.00  0.00     0.009 A 
HETATM   22  C   UNL     1      19.548  52.174  48.648  1.00  0.00     0.001 A 
HETATM   23  C   UNL     1      18.854  51.865  49.814  1.00  0.00     0.000 A 
HETATM   24  C   UNL     1      18.893  50.570  50.322  1.00  0.00     0.001 A 
HETATM   25  C   UNL     1      19.623  49.575  49.664  1.00  0.00     0.009 A 
ENDBRANCH   1  20
TORSDOF 5
ENDMDL
MODEL 5
REMARK VINA RESULT:      -7.5      2.632      6.739
REMARK  5 active torsions:
REMARK  status: ('A' for Active; 'I' for Inactive)
REMARK    1  A    between atoms: C_2  and  C_3 
REMARK       I    between atoms: C_3  and  N_4 
REMARK    2  A    between atoms: N_4  and  C_5 
REMARK    3  A    between atoms: C_5  and  C_6 
REMARK    4  A    between atoms: C_5  and  C_17 
REMARK    5  A    between atoms: C_7  and  O_8 
ROOT
HETATM    1  C   UNL     1      25.362  46.619  51.079  1.00  0.00     0.154 C 
ENDROOT
BRANCH   1   2
HETATM    2  N   UNL     1      26.383  46.484  52.109  1.00  0.00    -0.348 N 
HETATM    3  C   UNL     1      26.277  47.153  53.304  1.00  0.00     0.218 C 
HETATM    4  O   UNL     1      25.340  47.906  53.561  1.00  0.00    -0.274 OA
HETATM    5  H   UNL     1      26.934  45.640  52.098  1.00  0.00     0.163 HD
BRANCH   3   6
HETATM    6  C   UNL     1      27.350  46.832  54.324  1.00  0.00     0.098 C 
HETATM    7  C   UNL     1      27.741  45.363  54.364  1.00  0.00     0.014 C 
ENDBRANCH   3   6
ENDBRANCH   1   2
BRANCH   1   8
HETATM    8  C   UNL     1      25.127  45.263  50.426  1.00  0.00     0.005 A 
HETATM    9  C   UNL     1      26.196  44.495  49.919  1.00  0.00     0.103 A 
HETATM   10  C   UNL     1      26.018  43.236  49.319  1.00  0.00     0.100 A 
HETATM   11  C   UNL     1      24.696  42.754  49.207  1.00  0.00    -0.004 A 
HETATM   12  N   UNL     1      27.062  42.513  48.850  1.00  0.00    -0.257 NA
HETATM   13  C   UNL     1      23.615  43.513  49.681  1.00  0.00     0.014 A 
HETATM   14  C   UNL     1      24.485  41.503  48.611  1.00  0.00     0.015 A 
HETATM   15  C   UNL     1      23.828  44.755  50.278  1.00  0.00     0.013 A 
HETATM   16  C   UNL     1      25.565  40.768  48.141  1.00  0.00     0.020 A 
HETATM   17  C   UNL     1      26.824  41.312  48.283  1.00  0.00     0.117 A 
BRANCH   9  18
HETATM   18  O   UNL     1      27.483  44.982  50.019  1.00  0.00    -0.358 OA
HETATM   19  H   UNL     1      27.784  44.870  50.948  1.00  0.00     0.218 HD
ENDBRANCH   9  18
ENDBRANCH   1   8
BRANCH   1  20
HETATM   20  C   UNL     1      25.658  47.741  50.082  1.00  0.00    -0.031 A 
HETATM   21  C   UNL     1      24.574  48.341  49.413  1.00  0.00     0.009 A 
HETATM   22  C   UNL     1      24.776  49.365  48.487  1.00  0.00     0.001 A 
HETATM   23  C   UNL     1      26.067  49.804  48.207  1.00  0.00     0.000 A 
HETATM   24  C   UNL     1      27.153  49.219  48.852  1.00  0.00     0.001 A 
HETATM   25  C   UNL     1      26.953  48.196  49.784  1.00  0.00     0.009 A 
ENDBRANCH   1  20
TORSDOF 5
ENDMDL
MODEL 6
REMARK VINA RESULT:      -7.3      2.548      5.112
REMARK  5 active torsions:
REMARK  status: ('A' for Active; 'I' for Inactive)
REMARK    1  A    between atoms: C_2  and  C_3 
REMARK       I    between atoms: C_3  and  N_4 
REMARK    2  A    between atoms: N_4  and  C_5 
REMARK    3  A    between atoms: C_5  and  C_6 
REMARK    4  A    between atoms: C_5  and  C_17 
REMARK    5  A    between atoms: C_7  and  O_8 
ROOT
HETATM    1  C   UNL     1      25.568  45.999  50.490  1.00  0.00     0.154 C 
ENDROOT
BRANCH   1   2
HETATM    2  N   UNL     1      24.448  45.070  50.550  1.00  0.00    -0.348 N 
HETATM    3  C   UNL     1      24.536  43.818  49.993  1.00  0.00     0.218 C 
HETATM    4  O   UNL     1      25.542  43.422  49.406  1.00  0.00    -0.274 OA
HETATM    5  H   UNL     1      23.787  45.198  51.301  1.00  0.00     0.163 HD
BRANCH   3   6
HETATM    6  C   UNL     1      23.340  42.918  50.228  1.00  0.00     0.098 C 
HETATM    7  C   UNL     1      22.963  42.070  49.023  1.00  0.00     0.014 C 
ENDBRANCH   3   6
ENDBRANCH   1   2
BRANCH   1   8
HETATM    8  C   UNL     1      26.163  46.156  51.884  1.00  0.00     0.005 A 
HETATM    9  C   UNL     1      27.139  45.262  52.371  1.00  0.00     0.103 A 
HETATM   10  C   UNL     1      27.718  45.381  53.648  1.00  0.00     0.100 A 
HETATM   11  C   UNL     1      27.264  46.436  54.468  1.00  0.00    -0.004 A 
HETATM   12  N   UNL     1      28.662  44.515  54.089  1.00  0.00    -0.257 NA
HETATM   13  C   UNL     1      26.275  47.321  54.013  1.00  0.00     0.014 A 
HETATM   14  C   UNL     1      27.819  46.579  55.747  1.00  0.00     0.015 A 
HETATM   15  C   UNL     1      25.727  47.179  52.739  1.00  0.00     0.013 A 
HETATM   16  C   UNL     1      28.792  45.690  56.185  1.00  0.00     0.020 A 
HETATM   17  C   UNL     1      29.177  44.683  55.324  1.00  0.00     0.117 A 
BRANCH   9  18
HETATM   18  O   UNL     1      27.565  44.224  51.569  1.00  0.00    -0.358 OA
HETATM   19  H   UNL     1      28.225  44.578  50.931  1.00  0.00     0.218 HD
ENDBRANCH   9  18
ENDBRANCH   1   8
BRANCH   1  20
HETATM   20  C   UNL     1      25.213  47.327  49.819  1.00  0.00    -0.031 A 
HETATM   21  C   UNL     1      23.855  47.612  49.580  1.00  0.00     0.009 A 
HETATM   22  C   UNL     1      23.464  48.803  48.967  1.00  0.00     0.001 A 
HETATM   23  C   UNL     1      24.426  49.729  48.574  1.00  0.00     0.000 A 
HETATM   24  C   UNL     1      25.774  49.465  48.795  1.00  0.00     0.001 A 
HETATM   25  C   UNL     1      26.168  48.274  49.414  1.00  0.00     0.009 A 
ENDBRANCH   1  20
TORSDOF 5
ENDMDL
MODEL 7
REMARK VINA RESULT:      -7.3      3.939      7.688
REMARK  5 active torsions:
REMARK  status: ('A' for Active; 'I' for Inactive)
REMARK    1  A    between atoms: C_2  and  C_3 
REMARK       I    between atoms: C_3  and  N_4 
REMARK    2  A    between atoms: N_4  and  C_5 
REMARK    3  A    between atoms: C_5  and  C_6 
REMARK    4  A    between atoms: C_5  and  C_17 
REMARK    5  A    between atoms: C_7  and  O_8 
ROOT
HETATM    1  C   UNL     1      26.094  46.392  50.296  1.00  0.00     0.154 C 
ENDROOT
BRANCH   1   2
HETATM    2  N   UNL     1      26.504  47.764  50.028  1.00  0.00    -0.348 N 
HETATM    3  C   UNL     1      27.589  48.036  49.231  1.00  0.00     0.218 C 
HETATM    4  O   UNL     1      28.275  47.152  48.721  1.00  0.00    -0.274 OA
HETATM    5  H   UNL     1      25.794  48.476  50.104  1.00  0.00     0.163 HD
BRANCH   3   6
HETATM    6  C   UNL     1      27.832  49.504  48.946  1.00  0.00     0.098 C 
HETATM    7  C   UNL     1      26.638  50.218  48.333  1.00  0.00     0.014 C 
ENDBRANCH   3   6
ENDBRANCH   1   2
BRANCH   1   8
HETATM    8  C   UNL     1      24.783  46.110  49.571  1.00  0.00     0.005 A 
HETATM    9  C   UNL     1      23.743  47.061  49.537  1.00  0.00     0.103 A 
HETATM   10  C   UNL     1      22.525  46.840  48.870  1.00  0.00     0.100 A 
HETATM   11  C   UNL     1      22.351  45.591  48.237  1.00  0.00    -0.004 A 
HETATM   12  N   UNL     1      21.544  47.774  48.842  1.00  0.00    -0.257 NA
HETATM   13  C   UNL     1      23.364  44.620  48.282  1.00  0.00     0.014 A 
HETATM   14  C   UNL     1      21.146  45.339  47.566  1.00  0.00     0.015 A 
HETATM   15  C   UNL     1      24.562  44.875  48.946  1.00  0.00     0.013 A 
HETATM   16  C   UNL     1      20.152  46.307  47.538  1.00  0.00     0.020 A 
HETATM   17  C   UNL     1      20.398  47.500  48.185  1.00  0.00     0.117 A 
BRANCH   9  18
HETATM   18  O   UNL     1      23.915  48.274  50.171  1.00  0.00    -0.358 OA
HETATM   19  H   UNL     1      23.033  48.697  50.273  1.00  0.00     0.218 HD
ENDBRANCH   9  18
ENDBRANCH   1   8
BRANCH   1  20
HETATM   20  C   UNL     1      26.057  46.056  51.788  1.00  0.00    -0.031 A 
HETATM   21  C   UNL     1      26.139  44.702  52.169  1.00  0.00     0.009 A 
HETATM   22  C   UNL     1      26.105  44.327  53.512  1.00  0.00     0.001 A 
HETATM   23  C   UNL     1      25.983  45.299  54.501  1.00  0.00     0.000 A 
HETATM   24  C   UNL     1      25.894  46.642  54.147  1.00  0.00     0.001 A 
HETATM   25  C   UNL     1      25.932  47.021  52.801  1.00  0.00     0.009 A 
ENDBRANCH   1  20
TORSDOF 5
ENDMDL
MODEL 8
REMARK VINA RESULT:      -7.1      1.712      4.186
REMARK  5 active torsions:
REMARK  status: ('A' for Active; 'I' for Inactive)
REMARK    1  A    between atoms: C_2  and  C_3 
REMARK       I    between atoms: C_3  and  N_4 
REMARK    2  A    between atoms: N_4  and  C_5 
REMARK    3  A    between atoms: C_5  and  C_6 
REMARK    4  A    between atoms: C_5  and  C_17 
REMARK    5  A    between atoms: C_7  and  O_8 
ROOT
HETATM    1  C   UNL     1      26.992  44.315  51.368  1.00  0.00     0.154 C 
ENDROOT
BRANCH   1   2
HETATM    2  N   UNL     1      26.472  42.957  51.448  1.00  0.00    -0.348 N 
HETATM    3  C   UNL     1      26.703  42.049  50.443  1.00  0.00     0.218 C 
HETATM    4  O   UNL     1      27.336  42.331  49.427  1.00  0.00    -0.274 OA
HETATM    5  H   UNL     1      26.288  42.590  52.369  1.00  0.00     0.163 HD
BRANCH   3   6
HETATM    6  C   UNL     1      26.201  40.645  50.709  1.00  0.00     0.098 C 
HETATM    7  C   UNL     1      26.619  39.632  49.655  1.00  0.00     0.014 C 
ENDBRANCH   3   6
ENDBRANCH   1   2
BRANCH   1   8
HETATM    8  C   UNL     1      27.489  44.742  52.744  1.00  0.00     0.005 A 
HETATM    9  C   UNL     1      28.648  44.177  53.315  1.00  0.00     0.103 A 
HETATM   10  C   UNL     1      29.142  44.554  54.577  1.00  0.00     0.100 A 
HETATM   11  C   UNL     1      28.411  45.523  55.295  1.00  0.00    -0.004 A 
HETATM   12  N   UNL     1      30.265  44.004  55.099  1.00  0.00    -0.257 NA
HETATM   13  C   UNL     1      27.239  46.079  54.757  1.00  0.00     0.014 A 
HETATM   14  C   UNL     1      28.875  45.917  56.558  1.00  0.00     0.015 A 
HETATM   15  C   UNL     1      26.782  45.688  53.499  1.00  0.00     0.013 A 
HETATM   16  C   UNL     1      30.032  45.352  57.078  1.00  0.00     0.020 A 
HETATM   17  C   UNL     1      30.686  44.408  56.316  1.00  0.00     0.117 A 
BRANCH   9  18
HETATM   18  O   UNL     1      29.349  43.219  52.612  1.00  0.00    -0.358 OA
HETATM   19  H   UNL     1      29.268  42.364  53.091  1.00  0.00     0.218 HD
ENDBRANCH   9  18
ENDBRANCH   1   8
BRANCH   1  20
HETATM   20  C   UNL     1      26.008  45.300  50.735  1.00  0.00    -0.031 A 
HETATM   21  C   UNL     1      26.486  46.569  50.357  1.00  0.00     0.009 A 
HETATM   22  C   UNL     1      25.639  47.516  49.780  1.00  0.00     0.001 A 
HETATM   23  C   UNL     1      24.296  47.214  49.576  1.00  0.00     0.000 A 
HETATM   24  C   UNL     1      23.801  45.967  49.948  1.00  0.00     0.001 A 
HETATM   25  C   UNL     1      24.649  45.015  50.523  1.00  0.00     0.009 A 
ENDBRANCH   1  20
TORSDOF 5
ENDMDL
MODEL 9
REMARK VINA RESULT:      -7.1      5.942      9.921
REMARK  5 active torsions:
REMARK  status: ('A' for Active; 'I' for Inactive)
REMARK    1  A    between atoms: C_2  and  C_3 
REMARK       I    between atoms: C_3  and  N_4 
REMARK    2  A    between atoms: N_4  and  C_5 
REMARK    3  A    between atoms: C_5  and  C_6 
REMARK    4  A    between atoms: C_5  and  C_17 
REMARK    5  A    between atoms: C_7  and  O_8 
ROOT
HETATM    1  C   UNL     1      20.828  49.284  47.500  1.00  0.00     0.154 C 
ENDROOT
BRANCH   1   2
HETATM    2  N   UNL     1      20.314  47.922  47.472  1.00  0.00    -0.348 N 
HETATM    3  C   UNL     1      19.418  47.523  46.511  1.00  0.00     0.218 C 
HETATM    4  O   UNL     1      18.992  48.284  45.644  1.00  0.00    -0.274 OA
HETATM    5  H   UNL     1      20.885  47.208  47.898  1.00  0.00     0.163 HD
BRANCH   3   6
HETATM    6  C   UNL     1      19.055  46.052  46.533  1.00  0.00     0.098 C 
HETATM    7  C   UNL     1      17.558  45.789  46.550  1.00  0.00     0.014 C 
ENDBRANCH   3   6
ENDBRANCH   1   2
BRANCH   1   8
HETATM    8  C   UNL     1      22.288  49.259  47.936  1.00  0.00     0.005 A 
HETATM    9  C   UNL     1      22.781  48.258  48.799  1.00  0.00     0.103 A 
HETATM   10  C   UNL     1      24.124  48.198  49.214  1.00  0.00     0.100 A 
HETATM   11  C   UNL     1      24.990  49.212  48.754  1.00  0.00    -0.004 A 
HETATM   12  N   UNL     1      24.575  47.219  50.034  1.00  0.00    -0.257 NA
HETATM   13  C   UNL     1      24.514  50.233  47.916  1.00  0.00     0.014 A 
HETATM   14  C   UNL     1      26.333  49.182  49.153  1.00  0.00     0.015 A 
HETATM   15  C   UNL     1      23.178  50.259  47.517  1.00  0.00     0.013 A 
HETATM   16  C   UNL     1      26.786  48.169  49.988  1.00  0.00     0.020 A 
HETATM   17  C   UNL     1      25.875  47.218  50.398  1.00  0.00     0.117 A 
BRANCH   9  18
HETATM   18  O   UNL     1      21.924  47.279  49.256  1.00  0.00    -0.358 OA
HETATM   19  H   UNL     1      22.463  46.539  49.614  1.00  0.00     0.218 HD
ENDBRANCH   9  18
ENDBRANCH   1   8
BRANCH   1  20
HETATM   20  C   UNL     1      19.958  50.240  48.318  1.00  0.00    -0.031 A 
HETATM   21  C   UNL     1      19.327  49.743  49.474  1.00  0.00     0.009 A 
HETATM   22  C   UNL     1      18.514  50.561  50.261  1.00  0.00     0.001 A 
HETATM   23  C   UNL     1      18.313  51.890  49.902  1.00  0.00     0.000 A 
HETATM   24  C   UNL     1      18.922  52.400  48.759  1.00  0.00     0.001 A 
HETATM   25  C   UNL     1      19.740  51.584  47.972  1.00  0.00     0.009 A 
ENDBRANCH   1  20
TORSDOF 5
ENDMDL
MODEL 10
REMARK VINA RESULT:      -7.0      3.501      7.236
REMARK  5 active torsions:
REMARK  status: ('A' for Active; 'I' for Inactive)
REMARK    1  A    between atoms: C_2  and  C_3 
REMARK       I    between atoms: C_3  and  N_4 
REMARK    2  A    between atoms: N_4  and  C_5 
REMARK    3  A    between atoms: C_5  and  C_6 
REMARK    4  A    between atoms: C_5  and  C_17 
REMARK    5  A    between atoms: C_7  and  O_8 
ROOT
HETATM    1  C   UNL     1      26.326  46.274  50.353  1.00  0.00     0.154 C 
ENDROOT
BRANCH   1   2
HETATM    2  N   UNL     1      26.255  47.665  49.925  1.00  0.00    -0.348 N 
HETATM    3  C   UNL     1      27.224  48.208  49.117  1.00  0.00     0.218 C 
HETATM    4  O   UNL     1      28.201  47.568  48.731  1.00  0.00    -0.274 OA
HETATM    5  H   UNL     1      25.341  48.090  49.902  1.00  0.00     0.163 HD
BRANCH   3   6
HETATM    6  C   UNL     1      26.965  49.628  48.658  1.00  0.00     0.098 C 
HETATM    7  C   UNL     1      25.519  49.896  48.274  1.00  0.00     0.014 C 
ENDBRANCH   3   6
ENDBRANCH   1   2
BRANCH   1   8
HETATM    8  C   UNL     1      25.222  45.481  49.664  1.00  0.00     0.005 A 
HETATM    9  C   UNL     1      25.466  44.204  49.118  1.00  0.00     0.103 A 
HETATM   10  C   UNL     1      24.470  43.440  48.483  1.00  0.00     0.100 A 
HETATM   11  C   UNL     1      23.184  44.011  48.379  1.00  0.00    -0.004 A 
HETATM   12  N   UNL     1      24.727  42.211  47.976  1.00  0.00    -0.257 NA
HETATM   13  C   UNL     1      22.926  45.292  48.892  1.00  0.00     0.014 A 
HETATM   14  C   UNL     1      22.170  43.275  47.749  1.00  0.00     0.015 A 
HETATM   15  C   UNL     1      23.935  46.020  49.522  1.00  0.00     0.013 A 
HETATM   16  C   UNL     1      22.444  42.013  47.241  1.00  0.00     0.020 A 
HETATM   17  C   UNL     1      23.728  41.528  47.378  1.00  0.00     0.117 A 
BRANCH   9  18
HETATM   18  O   UNL     1      26.730  43.660  49.210  1.00  0.00    -0.358 OA
HETATM   19  H   UNL     1      27.156  44.005  50.026  1.00  0.00     0.218 HD
ENDBRANCH   9  18
ENDBRANCH   1   8
BRANCH   1  20
HETATM   20  C   UNL     1      26.343  46.113  51.874  1.00  0.00    -0.031 A 
HETATM   21  C   UNL     1      25.940  47.206  52.665  1.00  0.00     0.009 A 
HETATM   22  C   UNL     1      25.938  47.126  54.058  1.00  0.00     0.001 A 
HETATM   23  C   UNL     1      26.345  45.954  54.687  1.00  0.00     0.000 A 
HETATM   24  C   UNL     1      26.753  44.863  53.924  1.00  0.00     0.001 A 
HETATM   25  C   UNL     1      26.752  44.939  52.528  1.00  0.00     0.009 A 
ENDBRANCH   1  20
TORSDOF 5
ENDMDL
