MODEL 1
REMARK VINA RESULT:      -8.9      0.000      0.000
REMARK  8 active torsions:
REMARK  status: ('A' for Active; 'I' for Inactive)
REMARK    1  A    between atoms: C_2  and  C_3 
REMARK    2  A    between atoms: C_3  and  N_4 
REMARK    3  A    between atoms: C_3  and  C_19 
REMARK       I    between atoms: C_19  and  N_20 
REMARK    4  A    between atoms: N_20  and  C_21 
REMARK    5  A    between atoms: C_21  and  C_22 
REMARK    6  A    between atoms: C_22  and  C_23 
REMARK    7  A    between atoms: C_23  and  O_24 
REMARK    8  A    between atoms: O_24  and  C_25 
ROOT
HETATM    1  N   UNL     1      27.475  44.585  52.501  1.00  0.00    -0.220 N 
HETATM    2  N   UNL     1      26.694  45.672  52.924  1.00  0.00    -0.172 NA
HETATM    3  C   UNL     1      26.955  46.246  54.066  1.00  0.00     0.069 A 
HETATM    4  C   UNL     1      26.115  47.424  54.482  1.00  0.00     0.074 C 
HETATM    5  C   UNL     1      28.023  45.760  54.895  1.00  0.00     0.048 A 
HETATM    6  C   UNL     1      28.782  44.675  54.539  1.00  0.00     0.064 A 
HETATM    7  C   UNL     1      28.504  44.001  53.277  1.00  0.00     0.277 A 
HETATM    8  O   UNL     1      29.124  42.999  52.931  1.00  0.00    -0.266 OA
HETATM    9  S   UNL     1      28.475  46.430  56.377  1.00  0.00    -0.086 SA
HETATM   10  C   UNL     1      29.719  45.260  56.605  1.00  0.00     0.017 A 
HETATM   11  C   UNL     1      29.779  44.361  55.532  1.00  0.00    -0.002 A 
HETATM   12  C   UNL     1      30.598  45.165  57.702  1.00  0.00     0.020 A 
HETATM   13  C   UNL     1      31.549  44.145  57.722  1.00  0.00     0.001 A 
HETATM   14  C   UNL     1      31.630  43.237  56.677  1.00  0.00     0.001 A 
HETATM   15  C   UNL     1      30.759  43.337  55.589  1.00  0.00     0.014 A 
ENDROOT
BRANCH   1  16
HETATM   16  C   UNL     1      27.114  43.919  51.228  1.00  0.00     0.205 C 
BRANCH  16  17
HETATM   17  C   UNL     1      26.315  42.623  51.459  1.00  0.00     0.032 C 
HETATM   18  C   UNL     1      26.899  41.382  50.798  1.00  0.00     0.007 C 
ENDBRANCH  16  17
BRANCH  16  19
HETATM   19  C   UNL     1      26.451  44.787  50.133  1.00  0.00     0.242 C 
HETATM   20  N   UNL     1      25.082  44.866  50.182  1.00  0.00    -0.359 N 
HETATM   21  H   UNL     1      24.635  44.377  50.956  1.00  0.00     0.162 HD
HETATM   22  O   UNL     1      27.107  45.270  49.212  1.00  0.00    -0.271 OA
BRANCH  20  23
HETATM   23  C   UNL     1      24.280  45.587  49.217  1.00  0.00     0.125 C 
BRANCH  23  24
HETATM   24  C   UNL     1      24.066  47.043  49.624  1.00  0.00     0.046 C 
BRANCH  24  25
HETATM   25  C   UNL     1      22.901  47.677  48.869  1.00  0.00     0.169 C 
BRANCH  25  26
HETATM   26  O   UNL     1      23.401  48.669  47.977  1.00  0.00    -0.387 OA
BRANCH  26  27
HETATM   27  C   UNL     1      24.092  49.742  48.622  1.00  0.00     0.113 C 
HETATM   28  C   UNL     1      25.412  50.046  47.921  1.00  0.00     0.039 C 
HETATM   29  C   UNL     1      23.170  50.956  48.559  1.00  0.00     0.039 C 
ENDBRANCH  26  27
ENDBRANCH  25  26
ENDBRANCH  24  25
ENDBRANCH  23  24
ENDBRANCH  20  23
ENDBRANCH  16  19
ENDBRANCH   1  16
TORSDOF 8
ENDMDL
MODEL 2
REMARK VINA RESULT:      -8.6      1.525      1.846
REMARK  8 active torsions:
REMARK  status: ('A' for Active; 'I' for Inactive)
REMARK    1  A    between atoms: C_2  and  C_3 
REMARK    2  A    between atoms: C_3  and  N_4 
REMARK    3  A    between atoms: C_3  and  C_19 
REMARK       I    between atoms: C_19  and  N_20 
REMARK    4  A    between atoms: N_20  and  C_21 
REMARK    5  A    between atoms: C_21  and  C_22 
REMARK    6  A    between atoms: C_22  and  C_23 
REMARK    7  A    between atoms: C_23  and  O_24 
REMARK    8  A    between atoms: O_24  and  C_25 
ROOT
HETATM    1  N   UNL     1      28.035  43.651  52.578  1.00  0.00    -0.220 N 
HETATM    2  N   UNL     1      27.093  44.682  52.718  1.00  0.00    -0.172 NA
HETATM    3  C   UNL     1      27.165  45.482  53.746  1.00  0.00     0.069 A 
HETATM    4  C   UNL     1      26.154  46.593  53.858  1.00  0.00     0.074 C 
HETATM    5  C   UNL     1      28.188  45.301  54.738  1.00  0.00     0.048 A 
HETATM    6  C   UNL     1      29.101  44.281  54.660  1.00  0.00     0.064 A 
HETATM    7  C   UNL     1      29.038  43.360  53.533  1.00  0.00     0.277 A 
HETATM    8  O   UNL     1      29.803  42.404  53.438  1.00  0.00    -0.266 OA
HETATM    9  S   UNL     1      28.400  46.282  56.096  1.00  0.00    -0.086 SA
HETATM   10  C   UNL     1      29.742  45.350  56.644  1.00  0.00     0.017 A 
HETATM   11  C   UNL     1      30.017  44.288  55.773  1.00  0.00    -0.002 A 
HETATM   12  C   UNL     1      30.505  45.573  57.808  1.00  0.00     0.020 A 
HETATM   13  C   UNL     1      31.561  44.710  58.101  1.00  0.00     0.001 A 
HETATM   14  C   UNL     1      31.855  43.647  57.260  1.00  0.00     0.001 A 
HETATM   15  C   UNL     1      31.098  43.431  56.106  1.00  0.00     0.014 A 
ENDROOT
BRANCH   1  16
HETATM   16  C   UNL     1      27.890  42.724  51.431  1.00  0.00     0.205 C 
BRANCH  16  17
HETATM   17  C   UNL     1      27.780  41.256  51.884  1.00  0.00     0.032 C 
HETATM   18  C   UNL     1      28.313  40.235  50.889  1.00  0.00     0.007 C 
ENDBRANCH  16  17
BRANCH  16  19
HETATM   19  C   UNL     1      26.808  43.058  50.378  1.00  0.00     0.242 C 
HETATM   20  N   UNL     1      25.511  42.823  50.759  1.00  0.00    -0.359 N 
HETATM   21  H   UNL     1      25.381  42.487  51.712  1.00  0.00     0.162 HD
HETATM   22  O   UNL     1      27.109  43.396  49.234  1.00  0.00    -0.271 OA
BRANCH  20  23
HETATM   23  C   UNL     1      24.367  43.026  49.896  1.00  0.00     0.125 C 
BRANCH  23  24
HETATM   24  C   UNL     1      23.522  44.219  50.336  1.00  0.00     0.046 C 
BRANCH  24  25
HETATM   25  C   UNL     1      23.881  45.484  49.562  1.00  0.00     0.169 C 
BRANCH  25  26
HETATM   26  O   UNL     1      25.142  45.971  50.012  1.00  0.00    -0.387 OA
BRANCH  26  27
HETATM   27  C   UNL     1      25.145  47.358  50.359  1.00  0.00     0.113 C 
HETATM   28  C   UNL     1      26.452  48.025  49.945  1.00  0.00     0.039 C 
HETATM   29  C   UNL     1      23.971  47.996  49.621  1.00  0.00     0.039 C 
ENDBRANCH  26  27
ENDBRANCH  25  26
ENDBRANCH  24  25
ENDBRANCH  23  24
ENDBRANCH  20  23
ENDBRANCH  16  19
ENDBRANCH   1  16
TORSDOF 8
ENDMDL
MODEL 3
REMARK VINA RESULT:      -8.3      1.613      2.073
REMARK  8 active torsions:
REMARK  status: ('A' for Active; 'I' for Inactive)
REMARK    1  A    between atoms: C_2  and  C_3 
REMARK    2  A    between atoms: C_3  and  N_4 
REMARK    3  A    between atoms: C_3  and  C_19 
REMARK       I    between atoms: C_19  and  N_20 
REMARK    4  A    between atoms: N_20  and  C_21 
REMARK    5  A    between atoms: C_21  and  C_22 
REMARK    6  A    between atoms: C_22  and  C_23 
REMARK    7  A    between atoms: C_23  and  O_24 
REMARK    8  A    between atoms: O_24  and  C_25 
ROOT
HETATM    1  N   UNL     1      26.594  45.538  52.617  1.00  0.00    -0.220 N 
HETATM    2  N   UNL     1      26.072  46.652  53.294  1.00  0.00    -0.172 NA
HETATM    3  C   UNL     1      26.603  47.022  54.426  1.00  0.00     0.069 A 
HETATM    4  C   UNL     1      26.037  48.234  55.118  1.00  0.00     0.074 C 
HETATM    5  C   UNL     1      27.702  46.288  54.988  1.00  0.00     0.048 A 
HETATM    6  C   UNL     1      28.214  45.170  54.380  1.00  0.00     0.064 A 
HETATM    7  C   UNL     1      27.632  44.720  53.122  1.00  0.00     0.277 A 
HETATM    8  O   UNL     1      28.023  43.701  52.559  1.00  0.00    -0.266 OA
HETATM    9  S   UNL     1      28.489  46.680  56.429  1.00  0.00    -0.086 SA
HETATM   10  C   UNL     1      29.556  45.334  56.293  1.00  0.00     0.017 A 
HETATM   11  C   UNL     1      29.298  44.591  55.134  1.00  0.00    -0.002 A 
HETATM   12  C   UNL     1      30.576  44.971  57.195  1.00  0.00     0.020 A 
HETATM   13  C   UNL     1      31.347  43.839  56.927  1.00  0.00     0.001 A 
HETATM   14  C   UNL     1      31.112  43.082  55.789  1.00  0.00     0.001 A 
HETATM   15  C   UNL     1      30.101  43.446  54.896  1.00  0.00     0.014 A 
ENDROOT
BRANCH   1  16
HETATM   16  C   UNL     1      25.930  45.109  51.364  1.00  0.00     0.205 C 
BRANCH  16  17
HETATM   17  C   UNL     1      24.701  44.221  51.635  1.00  0.00     0.032 C 
HETATM   18  C   UNL     1      24.730  42.859  50.956  1.00  0.00     0.007 C 
ENDBRANCH  16  17
BRANCH  16  19
HETATM   19  C   UNL     1      25.600  46.202  50.322  1.00  0.00     0.242 C 
HETATM   20  N   UNL     1      24.387  46.827  50.476  1.00  0.00    -0.359 N 
HETATM   21  H   UNL     1      23.837  46.538  51.282  1.00  0.00     0.162 HD
HETATM   22  O   UNL     1      26.328  46.405  49.351  1.00  0.00    -0.271 OA
BRANCH  20  23
HETATM   23  C   UNL     1      23.881  47.839  49.573  1.00  0.00     0.125 C 
BRANCH  23  24
HETATM   24  C   UNL     1      22.739  47.315  48.707  1.00  0.00     0.046 C 
BRANCH  24  25
HETATM   25  C   UNL     1      21.880  48.448  48.154  1.00  0.00     0.169 C 
BRANCH  25  26
HETATM   26  O   UNL     1      21.616  49.388  49.190  1.00  0.00    -0.387 OA
BRANCH  26  27
HETATM   27  C   UNL     1      20.253  49.816  49.261  1.00  0.00     0.113 C 
HETATM   28  C   UNL     1      19.388  48.781  49.972  1.00  0.00     0.039 C 
HETATM   29  C   UNL     1      20.246  51.130  50.036  1.00  0.00     0.039 C 
ENDBRANCH  26  27
ENDBRANCH  25  26
ENDBRANCH  24  25
ENDBRANCH  23  24
ENDBRANCH  20  23
ENDBRANCH  16  19
ENDBRANCH   1  16
TORSDOF 8
ENDMDL
MODEL 4
REMARK VINA RESULT:      -8.2      2.865      5.723
REMARK  8 active torsions:
REMARK  status: ('A' for Active; 'I' for Inactive)
REMARK    1  A    between atoms: C_2  and  C_3 
REMARK    2  A    between atoms: C_3  and  N_4 
REMARK    3  A    between atoms: C_3  and  C_19 
REMARK       I    between atoms: C_19  and  N_20 
REMARK    4  A    between atoms: N_20  and  C_21 
REMARK    5  A    between atoms: C_21  and  C_22 
REMARK    6  A    between atoms: C_22  and  C_23 
REMARK    7  A    between atoms: C_23  and  O_24 
REMARK    8  A    between atoms: O_24  and  C_25 
ROOT
HETATM    1  N   UNL     1      26.426  44.290  52.442  1.00  0.00    -0.220 N 
HETATM    2  N   UNL     1      25.872  45.540  52.760  1.00  0.00    -0.172 NA
HETATM    3  C   UNL     1      26.414  46.261  53.703  1.00  0.00     0.069 A 
HETATM    4  C   UNL     1      25.812  47.608  54.006  1.00  0.00     0.074 C 
HETATM    5  C   UNL     1      27.557  45.774  54.424  1.00  0.00     0.048 A 
HETATM    6  C   UNL     1      28.102  44.541  54.173  1.00  0.00     0.064 A 
HETATM    7  C   UNL     1      27.510  43.704  53.138  1.00  0.00     0.277 A 
HETATM    8  O   UNL     1      27.931  42.575  52.903  1.00  0.00    -0.266 OA
HETATM    9  S   UNL     1      28.361  46.621  55.644  1.00  0.00    -0.086 SA
HETATM   10  C   UNL     1      29.481  45.336  55.892  1.00  0.00     0.017 A 
HETATM   11  C   UNL     1      29.228  44.261  55.029  1.00  0.00    -0.002 A 
HETATM   12  C   UNL     1      30.538  45.305  56.824  1.00  0.00     0.020 A 
HETATM   13  C   UNL     1      31.350  44.173  56.892  1.00  0.00     0.001 A 
HETATM   14  C   UNL     1      31.121  43.092  56.053  1.00  0.00     0.001 A 
HETATM   15  C   UNL     1      30.074  43.128  55.128  1.00  0.00     0.014 A 
ENDROOT
BRANCH   1  16
HETATM   16  C   UNL     1      25.751  43.471  51.408  1.00  0.00     0.205 C 
BRANCH  16  17
HETATM   17  C   UNL     1      24.339  43.995  51.085  1.00  0.00     0.032 C 
HETATM   18  C   UNL     1      23.518  43.104  50.164  1.00  0.00     0.007 C 
ENDBRANCH  16  17
BRANCH  16  19
HETATM   19  C   UNL     1      26.537  43.172  50.111  1.00  0.00     0.242 C 
HETATM   20  N   UNL     1      26.919  41.865  49.932  1.00  0.00    -0.359 N 
HETATM   21  H   UNL     1      26.615  41.211  50.651  1.00  0.00     0.162 HD
HETATM   22  O   UNL     1      26.899  44.074  49.357  1.00  0.00    -0.271 OA
BRANCH  20  23
HETATM   23  C   UNL     1      27.703  41.401  48.807  1.00  0.00     0.125 C 
BRANCH  23  24
HETATM   24  C   UNL     1      26.932  40.406  47.944  1.00  0.00     0.046 C 
BRANCH  24  25
HETATM   25  C   UNL     1      26.881  39.021  48.582  1.00  0.00     0.169 C 
BRANCH  25  26
HETATM   26  O   UNL     1      27.906  38.916  49.564  1.00  0.00    -0.387 OA
BRANCH  26  27
HETATM   27  C   UNL     1      28.553  37.642  49.603  1.00  0.00     0.113 C 
HETATM   28  C   UNL     1      29.654  37.616  50.658  1.00  0.00     0.039 C 
HETATM   29  C   UNL     1      27.476  36.615  49.941  1.00  0.00     0.039 C 
ENDBRANCH  26  27
ENDBRANCH  25  26
ENDBRANCH  24  25
ENDBRANCH  23  24
ENDBRANCH  20  23
ENDBRANCH  16  19
ENDBRANCH   1  16
TORSDOF 8
ENDMDL
MODEL 5
REMARK VINA RESULT:      -8.1      2.331      3.639
REMARK  8 active torsions:
REMARK  status: ('A' for Active; 'I' for Inactive)
REMARK    1  A    between atoms: C_2  and  C_3 
REMARK    2  A    between atoms: C_3  and  N_4 
REMARK    3  A    between atoms: C_3  and  C_19 
REMARK       I    between atoms: C_19  and  N_20 
REMARK    4  A    between atoms: N_20  and  C_21 
REMARK    5  A    between atoms: C_21  and  C_22 
REMARK    6  A    between atoms: C_22  and  C_23 
REMARK    7  A    between atoms: C_23  and  O_24 
REMARK    8  A    between atoms: O_24  and  C_25 
ROOT
HETATM    1  N   UNL     1      27.787  44.189  52.660  1.00  0.00    -0.220 N 
HETATM    2  N   UNL     1      26.922  45.247  52.984  1.00  0.00    -0.172 NA
HETATM    3  C   UNL     1      27.104  45.908  54.093  1.00  0.00     0.069 A 
HETATM    4  C   UNL     1      26.176  47.053  54.403  1.00  0.00     0.074 C 
HETATM    5  C   UNL     1      28.169  45.547  54.988  1.00  0.00     0.048 A 
HETATM    6  C   UNL     1      29.008  44.494  54.730  1.00  0.00     0.064 A 
HETATM    7  C   UNL     1      28.821  43.725  53.507  1.00  0.00     0.277 A 
HETATM    8  O   UNL     1      29.516  42.746  53.248  1.00  0.00    -0.266 OA
HETATM    9  S   UNL     1      28.522  46.339  56.437  1.00  0.00    -0.086 SA
HETATM   10  C   UNL     1      29.829  45.271  56.782  1.00  0.00     0.017 A 
HETATM   11  C   UNL     1      29.985  44.310  55.774  1.00  0.00    -0.002 A 
HETATM   12  C   UNL     1      30.670  45.304  57.912  1.00  0.00     0.020 A 
HETATM   13  C   UNL     1      31.683  44.352  58.031  1.00  0.00     0.001 A 
HETATM   14  C   UNL     1      31.860  43.386  57.051  1.00  0.00     0.001 A 
HETATM   15  C   UNL     1      31.025  43.359  55.930  1.00  0.00     0.014 A 
ENDROOT
BRANCH   1  16
HETATM   16  C   UNL     1      27.516  43.421  51.422  1.00  0.00     0.205 C 
BRANCH  16  17
HETATM   17  C   UNL     1      26.990  42.005  51.723  1.00  0.00     0.032 C 
HETATM   18  C   UNL     1      27.154  41.004  50.588  1.00  0.00     0.007 C 
ENDBRANCH  16  17
BRANCH  16  19
HETATM   19  C   UNL     1      26.661  44.106  50.331  1.00  0.00     0.242 C 
HETATM   20  N   UNL     1      25.339  44.301  50.644  1.00  0.00    -0.359 N 
HETATM   21  H   UNL     1      25.055  44.010  51.578  1.00  0.00     0.162 HD
HETATM   22  O   UNL     1      27.117  44.345  49.214  1.00  0.00    -0.271 OA
BRANCH  20  23
HETATM   23  C   UNL     1      24.372  44.879  49.735  1.00  0.00     0.125 C 
BRANCH  23  24
HETATM   24  C   UNL     1      23.104  44.036  49.636  1.00  0.00     0.046 C 
BRANCH  24  25
HETATM   25  C   UNL     1      23.401  42.546  49.773  1.00  0.00     0.169 C 
BRANCH  25  26
HETATM   26  O   UNL     1      22.470  41.805  48.990  1.00  0.00    -0.387 OA
BRANCH  26  27
HETATM   27  C   UNL     1      23.000  41.319  47.753  1.00  0.00     0.113 C 
HETATM   28  C   UNL     1      24.440  40.845  47.921  1.00  0.00     0.039 C 
HETATM   29  C   UNL     1      22.109  40.158  47.322  1.00  0.00     0.039 C 
ENDBRANCH  26  27
ENDBRANCH  25  26
ENDBRANCH  24  25
ENDBRANCH  23  24
ENDBRANCH  20  23
ENDBRANCH  16  19
ENDBRANCH   1  16
TORSDOF 8
ENDMDL
MODEL 6
REMARK VINA RESULT:      -8.0      2.931      5.457
REMARK  8 active torsions:
REMARK  status: ('A' for Active; 'I' for Inactive)
REMARK    1  A    between atoms: C_2  and  C_3 
REMARK    2  A    between atoms: C_3  and  N_4 
REMARK    3  A    between atoms: C_3  and  C_19 
REMARK       I    between atoms: C_19  and  N_20 
REMARK    4  A    between atoms: N_20  and  C_21 
REMARK    5  A    between atoms: C_21  and  C_22 
REMARK    6  A    between atoms: C_22  and  C_23 
REMARK    7  A    between atoms: C_23  and  O_24 
REMARK    8  A    between atoms: O_24  and  C_25 
ROOT
HETATM    1  N   UNL     1      24.216  46.583  49.975  1.00  0.00    -0.220 N 
HETATM    2  N   UNL     1      24.112  45.445  49.159  1.00  0.00    -0.172 NA
HETATM    3  C   UNL     1      24.719  44.345  49.511  1.00  0.00     0.069 A 
HETATM    4  C   UNL     1      24.571  43.134  48.628  1.00  0.00     0.074 C 
HETATM    5  C   UNL     1      25.502  44.300  50.714  1.00  0.00     0.048 A 
HETATM    6  C   UNL     1      25.663  45.400  51.516  1.00  0.00     0.064 A 
HETATM    7  C   UNL     1      25.012  46.649  51.143  1.00  0.00     0.277 A 
HETATM    8  O   UNL     1      25.159  47.675  51.801  1.00  0.00    -0.266 OA
HETATM    9  S   UNL     1      26.311  42.934  51.288  1.00  0.00    -0.086 SA
HETATM   10  C   UNL     1      26.928  43.788  52.652  1.00  0.00     0.017 A 
HETATM   11  C   UNL     1      26.502  45.123  52.655  1.00  0.00    -0.002 A 
HETATM   12  C   UNL     1      27.756  43.271  53.668  1.00  0.00     0.020 A 
HETATM   13  C   UNL     1      28.167  44.112  54.702  1.00  0.00     0.001 A 
HETATM   14  C   UNL     1      27.765  45.440  54.730  1.00  0.00     0.001 A 
HETATM   15  C   UNL     1      26.940  45.948  53.723  1.00  0.00     0.014 A 
ENDROOT
BRANCH   1  16
HETATM   16  C   UNL     1      23.564  47.832  49.516  1.00  0.00     0.205 C 
BRANCH  16  17
HETATM   17  C   UNL     1      24.567  48.801  48.863  1.00  0.00     0.032 C 
HETATM   18  C   UNL     1      24.041  50.212  48.635  1.00  0.00     0.007 C 
ENDBRANCH  16  17
BRANCH  16  19
HETATM   19  C   UNL     1      22.289  47.694  48.653  1.00  0.00     0.242 C 
HETATM   20  N   UNL     1      21.106  47.615  49.345  1.00  0.00    -0.359 N 
HETATM   21  H   UNL     1      21.177  47.692  50.358  1.00  0.00     0.162 HD
HETATM   22  O   UNL     1      22.352  47.543  47.434  1.00  0.00    -0.271 OA
BRANCH  20  23
HETATM   23  C   UNL     1      19.815  47.435  48.716  1.00  0.00     0.125 C 
BRANCH  23  24
HETATM   24  C   UNL     1      18.733  48.287  49.374  1.00  0.00     0.046 C 
BRANCH  24  25
HETATM   25  C   UNL     1      18.567  49.632  48.673  1.00  0.00     0.169 C 
BRANCH  25  26
HETATM   26  O   UNL     1      19.824  50.051  48.152  1.00  0.00    -0.387 OA
BRANCH  26  27
HETATM   27  C   UNL     1      20.251  51.336  48.611  1.00  0.00     0.113 C 
HETATM   28  C   UNL     1      19.105  52.342  48.573  1.00  0.00     0.039 C 
HETATM   29  C   UNL     1      20.739  51.148  50.044  1.00  0.00     0.039 C 
ENDBRANCH  26  27
ENDBRANCH  25  26
ENDBRANCH  24  25
ENDBRANCH  23  24
ENDBRANCH  20  23
ENDBRANCH  16  19
ENDBRANCH   1  16
TORSDOF 8
ENDMDL
MODEL 7
REMARK VINA RESULT:      -8.0      3.309      9.433
REMARK  8 active torsions:
REMARK  status: ('A' for Active; 'I' for Inactive)
REMARK    1  A    between atoms: C_2  and  C_3 
REMARK    2  A    between atoms: C_3  and  N_4 
REMARK    3  A    between atoms: C_3  and  C_19 
REMARK       I    between atoms: C_19  and  N_20 
REMARK    4  A    between atoms: N_20  and  C_21 
REMARK    5  A    between atoms: C_21  and  C_22 
REMARK    6  A    between atoms: C_22  and  C_23 
REMARK    7  A    between atoms: C_23  and  O_24 
REMARK    8  A    between atoms: O_24  and  C_25 
ROOT
HETATM    1  N   UNL     1      24.067  46.704  49.509  1.00  0.00    -0.220 N 
HETATM    2  N   UNL     1      23.455  45.545  49.004  1.00  0.00    -0.172 NA
HETATM    3  C   UNL     1      22.310  45.641  48.387  1.00  0.00     0.069 A 
HETATM    4  C   UNL     1      21.689  44.384  47.836  1.00  0.00     0.074 C 
HETATM    5  C   UNL     1      21.668  46.918  48.239  1.00  0.00     0.048 A 
HETATM    6  C   UNL     1      22.212  48.066  48.755  1.00  0.00     0.064 A 
HETATM    7  C   UNL     1      23.482  47.992  49.464  1.00  0.00     0.277 A 
HETATM    8  O   UNL     1      23.990  48.982  49.982  1.00  0.00    -0.266 OA
HETATM    9  S   UNL     1      20.203  47.174  47.442  1.00  0.00    -0.086 SA
HETATM   10  C   UNL     1      20.238  48.864  47.776  1.00  0.00     0.017 A 
HETATM   11  C   UNL     1      21.384  49.219  48.500  1.00  0.00    -0.002 A 
HETATM   12  C   UNL     1      19.273  49.820  47.398  1.00  0.00     0.020 A 
HETATM   13  C   UNL     1      19.464  51.154  47.759  1.00  0.00     0.001 A 
HETATM   14  C   UNL     1      20.586  51.535  48.479  1.00  0.00     0.001 A 
HETATM   15  C   UNL     1      21.542  50.585  48.849  1.00  0.00     0.014 A 
ENDROOT
BRANCH   1  16
HETATM   16  C   UNL     1      25.338  46.553  50.256  1.00  0.00     0.205 C 
BRANCH  16  17
HETATM   17  C   UNL     1      25.106  46.433  51.774  1.00  0.00     0.032 C 
HETATM   18  C   UNL     1      26.213  47.016  52.641  1.00  0.00     0.007 C 
ENDBRANCH  16  17
BRANCH  16  19
HETATM   19  C   UNL     1      26.330  45.474  49.763  1.00  0.00     0.242 C 
HETATM   20  N   UNL     1      25.975  44.174  50.024  1.00  0.00    -0.359 N 
HETATM   21  H   UNL     1      25.076  44.042  50.482  1.00  0.00     0.162 HD
HETATM   22  O   UNL     1      27.420  45.777  49.281  1.00  0.00    -0.271 OA
BRANCH  20  23
HETATM   23  C   UNL     1      26.796  43.031  49.685  1.00  0.00     0.125 C 
BRANCH  23  24
HETATM   24  C   UNL     1      26.630  41.890  50.685  1.00  0.00     0.046 C 
BRANCH  24  25
HETATM   25  C   UNL     1      27.652  41.971  51.815  1.00  0.00     0.169 C 
BRANCH  25  26
HETATM   26  O   UNL     1      28.338  43.217  51.741  1.00  0.00    -0.387 OA
BRANCH  26  27
HETATM   27  C   UNL     1      28.892  43.656  52.984  1.00  0.00     0.113 C 
HETATM   28  C   UNL     1      27.905  43.449  54.129  1.00  0.00     0.039 C 
HETATM   29  C   UNL     1      30.152  42.828  53.219  1.00  0.00     0.039 C 
ENDBRANCH  26  27
ENDBRANCH  25  26
ENDBRANCH  24  25
ENDBRANCH  23  24
ENDBRANCH  20  23
ENDBRANCH  16  19
ENDBRANCH   1  16
TORSDOF 8
ENDMDL
MODEL 8
REMARK VINA RESULT:      -7.7      2.189      3.549
REMARK  8 active torsions:
REMARK  status: ('A' for Active; 'I' for Inactive)
REMARK    1  A    between atoms: C_2  and  C_3 
REMARK    2  A    between atoms: C_3  and  N_4 
REMARK    3  A    between atoms: C_3  and  C_19 
REMARK       I    between atoms: C_19  and  N_20 
REMARK    4  A    between atoms: N_20  and  C_21 
REMARK    5  A    between atoms: C_21  and  C_22 
REMARK    6  A    between atoms: C_22  and  C_23 
REMARK    7  A    between atoms: C_23  and  O_24 
REMARK    8  A    between atoms: O_24  and  C_25 
ROOT
HETATM    1  N   UNL     1      26.227  44.437  51.405  1.00  0.00    -0.220 N 
HETATM    2  N   UNL     1      26.575  43.241  50.758  1.00  0.00    -0.172 NA
HETATM    3  C   UNL     1      27.541  42.508  51.240  1.00  0.00     0.069 A 
HETATM    4  C   UNL     1      27.876  41.218  50.538  1.00  0.00     0.074 C 
HETATM    5  C   UNL     1      28.257  42.928  52.412  1.00  0.00     0.048 A 
HETATM    6  C   UNL     1      27.976  44.110  53.048  1.00  0.00     0.064 A 
HETATM    7  C   UNL     1      26.915  44.960  52.526  1.00  0.00     0.277 A 
HETATM    8  O   UNL     1      26.652  46.048  53.031  1.00  0.00    -0.266 OA
HETATM    9  S   UNL     1      29.505  42.058  53.144  1.00  0.00    -0.086 SA
HETATM   10  C   UNL     1      29.727  43.263  54.356  1.00  0.00     0.017 A 
HETATM   11  C   UNL     1      28.833  44.329  54.187  1.00  0.00    -0.002 A 
HETATM   12  C   UNL     1      30.665  43.240  55.407  1.00  0.00     0.020 A 
HETATM   13  C   UNL     1      30.708  44.310  56.300  1.00  0.00     0.001 A 
HETATM   14  C   UNL     1      29.838  45.382  56.157  1.00  0.00     0.001 A 
HETATM   15  C   UNL     1      28.907  45.399  55.115  1.00  0.00     0.014 A 
ENDROOT
BRANCH   1  16
HETATM   16  C   UNL     1      25.166  45.275  50.799  1.00  0.00     0.205 C 
BRANCH  16  17
HETATM   17  C   UNL     1      25.736  46.288  49.788  1.00  0.00     0.032 C 
HETATM   18  C   UNL     1      25.412  47.745  50.086  1.00  0.00     0.007 C 
ENDBRANCH  16  17
BRANCH  16  19
HETATM   19  C   UNL     1      23.932  44.550  50.216  1.00  0.00     0.242 C 
HETATM   20  N   UNL     1      23.640  44.829  48.904  1.00  0.00    -0.359 N 
HETATM   21  H   UNL     1      24.285  45.457  48.428  1.00  0.00     0.162 HD
HETATM   22  O   UNL     1      23.195  43.866  50.925  1.00  0.00    -0.271 OA
BRANCH  20  23
HETATM   23  C   UNL     1      22.498  44.287  48.199  1.00  0.00     0.125 C 
BRANCH  23  24
HETATM   24  C   UNL     1      21.319  45.257  48.186  1.00  0.00     0.046 C 
BRANCH  24  25
HETATM   25  C   UNL     1      21.577  46.451  47.272  1.00  0.00     0.169 C 
BRANCH  25  26
HETATM   26  O   UNL     1      22.398  47.396  47.951  1.00  0.00    -0.387 OA
BRANCH  26  27
HETATM   27  C   UNL     1      21.907  48.738  47.907  1.00  0.00     0.113 C 
HETATM   28  C   UNL     1      21.060  49.054  49.136  1.00  0.00     0.039 C 
HETATM   29  C   UNL     1      23.129  49.650  47.862  1.00  0.00     0.039 C 
ENDBRANCH  26  27
ENDBRANCH  25  26
ENDBRANCH  24  25
ENDBRANCH  23  24
ENDBRANCH  20  23
ENDBRANCH  16  19
ENDBRANCH   1  16
TORSDOF 8
ENDMDL
MODEL 9
REMARK VINA RESULT:      -7.6      2.576      5.239
REMARK  8 active torsions:
REMARK  status: ('A' for Active; 'I' for Inactive)
REMARK    1  A    between atoms: C_2  and  C_3 
REMARK    2  A    between atoms: C_3  and  N_4 
REMARK    3  A    between atoms: C_3  and  C_19 
REMARK       I    between atoms: C_19  and  N_20 
REMARK    4  A    between atoms: N_20  and  C_21 
REMARK    5  A    between atoms: C_21  and  C_22 
REMARK    6  A    between atoms: C_22  and  C_23 
REMARK    7  A    between atoms: C_23  and  O_24 
REMARK    8  A    between atoms: O_24  and  C_25 
ROOT
HETATM    1  N   UNL     1      27.030  44.595  52.811  1.00  0.00    -0.220 N 
HETATM    2  N   UNL     1      27.760  43.522  52.274  1.00  0.00    -0.172 NA
HETATM    3  C   UNL     1      28.791  43.058  52.925  1.00  0.00     0.069 A 
HETATM    4  C   UNL     1      29.541  41.893  52.336  1.00  0.00     0.074 C 
HETATM    5  C   UNL     1      29.190  43.649  54.173  1.00  0.00     0.048 A 
HETATM    6  C   UNL     1      28.529  44.724  54.709  1.00  0.00     0.064 A 
HETATM    7  C   UNL     1      27.383  45.277  53.999  1.00  0.00     0.277 A 
HETATM    8  O   UNL     1      26.783  46.265  54.413  1.00  0.00    -0.266 OA
HETATM    9  S   UNL     1      30.486  43.125  55.118  1.00  0.00    -0.086 SA
HETATM   10  C   UNL     1      30.210  44.350  56.298  1.00  0.00     0.017 A 
HETATM   11  C   UNL     1      29.117  45.155  55.953  1.00  0.00    -0.002 A 
HETATM   12  C   UNL     1      30.950  44.568  57.477  1.00  0.00     0.020 A 
HETATM   13  C   UNL     1      30.586  45.618  58.321  1.00  0.00     0.001 A 
HETATM   14  C   UNL     1      29.510  46.434  58.005  1.00  0.00     0.001 A 
HETATM   15  C   UNL     1      28.777  46.213  56.836  1.00  0.00     0.014 A 
ENDROOT
BRANCH   1  16
HETATM   16  C   UNL     1      25.901  45.136  52.018  1.00  0.00     0.205 C 
BRANCH  16  17
HETATM   17  C   UNL     1      26.352  46.249  51.054  1.00  0.00     0.032 C 
HETATM   18  C   UNL     1      25.294  47.298  50.743  1.00  0.00     0.007 C 
ENDBRANCH  16  17
BRANCH  16  19
HETATM   19  C   UNL     1      24.985  44.120  51.297  1.00  0.00     0.242 C 
HETATM   20  N   UNL     1      25.552  43.450  50.242  1.00  0.00    -0.359 N 
HETATM   21  H   UNL     1      26.532  43.657  50.058  1.00  0.00     0.162 HD
HETATM   22  O   UNL     1      23.793  44.017  51.580  1.00  0.00    -0.271 OA
BRANCH  20  23
HETATM   23  C   UNL     1      24.841  42.499  49.414  1.00  0.00     0.125 C 
BRANCH  23  24
HETATM   24  C   UNL     1      25.288  41.063  49.678  1.00  0.00     0.046 C 
BRANCH  24  25
HETATM   25  C   UNL     1      26.660  41.009  50.344  1.00  0.00     0.169 C 
BRANCH  25  26
HETATM   26  O   UNL     1      27.664  41.314  49.381  1.00  0.00    -0.387 OA
BRANCH  26  27
HETATM   27  C   UNL     1      27.804  40.334  48.350  1.00  0.00     0.113 C 
HETATM   28  C   UNL     1      28.020  40.993  46.991  1.00  0.00     0.039 C 
HETATM   29  C   UNL     1      29.013  39.480  48.720  1.00  0.00     0.039 C 
ENDBRANCH  26  27
ENDBRANCH  25  26
ENDBRANCH  24  25
ENDBRANCH  23  24
ENDBRANCH  20  23
ENDBRANCH  16  19
ENDBRANCH   1  16
TORSDOF 8
ENDMDL
MODEL 10
REMARK VINA RESULT:      -7.5      3.024      4.552
REMARK  8 active torsions:
REMARK  status: ('A' for Active; 'I' for Inactive)
REMARK    1  A    between atoms: C_2  and  C_3 
REMARK    2  A    between atoms: C_3  and  N_4 
REMARK    3  A    between atoms: C_3  and  C_19 
REMARK       I    between atoms: C_19  and  N_20 
REMARK    4  A    between atoms: N_20  and  C_21 
REMARK    5  A    between atoms: C_21  and  C_22 
REMARK    6  A    between atoms: C_22  and  C_23 
REMARK    7  A    between atoms: C_23  and  O_24 
REMARK    8  A    between atoms: O_24  and  C_25 
ROOT
HETATM    1  N   UNL     1      25.906  43.816  51.376  1.00  0.00    -0.220 N 
HETATM    2  N   UNL     1      26.460  42.666  50.792  1.00  0.00    -0.172 NA
HETATM    3  C   UNL     1      27.556  42.160  51.286  1.00  0.00     0.069 A 
HETATM    4  C   UNL     1      28.114  40.913  50.653  1.00  0.00     0.074 C 
HETATM    5  C   UNL     1      28.204  42.783  52.407  1.00  0.00     0.048 A 
HETATM    6  C   UNL     1      27.718  43.930  52.979  1.00  0.00     0.064 A 
HETATM    7  C   UNL     1      26.505  44.531  52.441  1.00  0.00     0.277 A 
HETATM    8  O   UNL     1      26.052  45.581  52.887  1.00  0.00    -0.266 OA
HETATM    9  S   UNL     1      29.608  42.212  53.150  1.00  0.00    -0.086 SA
HETATM   10  C   UNL     1      29.623  43.513  54.278  1.00  0.00     0.017 A 
HETATM   11  C   UNL     1      28.541  44.380  54.075  1.00  0.00    -0.002 A 
HETATM   12  C   UNL     1      30.570  43.736  55.298  1.00  0.00     0.020 A 
HETATM   13  C   UNL     1      30.428  44.852  56.123  1.00  0.00     0.001 A 
HETATM   14  C   UNL     1      29.369  45.730  55.943  1.00  0.00     0.001 A 
HETATM   15  C   UNL     1      28.430  45.504  54.933  1.00  0.00     0.014 A 
ENDROOT
BRANCH   1  16
HETATM   16  C   UNL     1      24.694  44.399  50.755  1.00  0.00     0.205 C 
BRANCH  16  17
HETATM   17  C   UNL     1      25.041  45.412  49.648  1.00  0.00     0.032 C 
HETATM   18  C   UNL     1      24.344  46.760  49.768  1.00  0.00     0.007 C 
ENDBRANCH  16  17
BRANCH  16  19
HETATM   19  C   UNL     1      23.595  43.420  50.280  1.00  0.00     0.242 C 
HETATM   20  N   UNL     1      23.937  42.602  49.233  1.00  0.00    -0.359 N 
HETATM   21  H   UNL     1      24.892  42.690  48.893  1.00  0.00     0.162 HD
HETATM   22  O   UNL     1      22.454  43.466  50.737  1.00  0.00    -0.271 OA
BRANCH  20  23
HETATM   23  C   UNL     1      23.029  41.656  48.619  1.00  0.00     0.125 C 
BRANCH  23  24
HETATM   24  C   UNL     1      22.975  41.816  47.102  1.00  0.00     0.046 C 
BRANCH  24  25
HETATM   25  C   UNL     1      22.332  43.139  46.694  1.00  0.00     0.169 C 
BRANCH  25  26
HETATM   26  O   UNL     1      21.323  43.484  47.638  1.00  0.00    -0.387 OA
BRANCH  26  27
HETATM   27  C   UNL     1      20.591  44.667  47.307  1.00  0.00     0.113 C 
HETATM   28  C   UNL     1      19.258  44.322  46.652  1.00  0.00     0.039 C 
HETATM   29  C   UNL     1      20.356  45.416  48.615  1.00  0.00     0.039 C 
ENDBRANCH  26  27
ENDBRANCH  25  26
ENDBRANCH  24  25
ENDBRANCH  23  24
ENDBRANCH  20  23
ENDBRANCH  16  19
ENDBRANCH   1  16
TORSDOF 8
ENDMDL
