MODEL 1
REMARK VINA RESULT:      -8.0      0.000      0.000
REMARK  12 active torsions:
REMARK  status: ('A' for Active; 'I' for Inactive)
REMARK    1  A    between atoms: C_2  and  C_3 
REMARK    2  A    between atoms: C_3  and  N_4 
REMARK    3  A    between atoms: C_3  and  C_25 
REMARK    4  A    between atoms: N_4  and  C_6 
REMARK    5  A    between atoms: N_4  and  C_21 
REMARK    6  A    between atoms: C_6  and  C_7 
REMARK    7  A    between atoms: C_8  and  O_9 
REMARK    8  A    between atoms: C_21  and  C_22 
REMARK    9  A    between atoms: C_22  and  C_23 
REMARK   10  A    between atoms: C_23  and  O_24 
REMARK   11  A    between atoms: N_26  and  C_27 
REMARK   12  A    between atoms: C_27  and  C_28 
ROOT
HETATM    1  N   UNL     1      26.163  48.896  38.975  1.00  0.00    -0.055 N 
HETATM    2  H   UNL     1      26.481  48.804  39.944  1.00  0.00     0.281 HD
ENDROOT
BRANCH   1   3
HETATM    3  C   UNL     1      26.803  47.702  38.235  1.00  0.00     0.263 C 
BRANCH   3   4
HETATM    4  C   UNL     1      26.027  47.250  36.956  1.00  0.00     0.016 C 
HETATM    5  C   UNL     1      26.628  46.001  36.298  1.00  0.00     0.012 C 
HETATM    6  C   UNL     1      25.760  48.312  35.885  1.00  0.00     0.012 C 
ENDBRANCH   3   4
BRANCH   3   7
HETATM    7  C   UNL     1      27.252  46.543  39.065  1.00  0.00     0.168 A 
HETATM    8  N   UNL     1      28.554  46.217  39.367  1.00  0.00    -0.257 N 
HETATM    9  N   UNL     1      28.580  45.080  40.080  1.00  0.00    -0.003 NA
HETATM   10  N   UNL     1      27.317  44.719  40.217  1.00  0.00     0.018 NA
HETATM   11  N   UNL     1      26.491  45.604  39.589  1.00  0.00    -0.145 NA
BRANCH   8  12
HETATM   12  C   UNL     1      29.802  46.885  39.045  1.00  0.00     0.186 C 
BRANCH  12  13
HETATM   13  C   UNL     1      30.357  47.678  40.207  1.00  0.00    -0.039 A 
HETATM   14  C   UNL     1      29.531  48.176  41.230  1.00  0.00     0.009 A 
HETATM   15  C   UNL     1      30.078  48.834  42.333  1.00  0.00     0.001 A 
HETATM   16  C   UNL     1      31.457  48.987  42.441  1.00  0.00     0.000 A 
HETATM   17  C   UNL     1      32.292  48.482  41.448  1.00  0.00     0.001 A 
HETATM   18  C   UNL     1      31.747  47.826  40.341  1.00  0.00     0.009 A 
ENDBRANCH  12  13
ENDBRANCH   8  12
ENDBRANCH   3   7
ENDBRANCH   1   3
BRANCH   1  19
HETATM   19  C   UNL     1      26.635  50.321  38.647  1.00  0.00     0.278 C 
BRANCH  19  20
HETATM   20  C   UNL     1      27.939  50.841  39.165  1.00  0.00     0.021 A 
HETATM   21  C   UNL     1      27.995  51.533  40.365  1.00  0.00     0.170 A 
HETATM   22  N   UNL     1      29.088  52.056  40.938  1.00  0.00    -0.224 NA
HETATM   23  C   UNL     1      30.256  51.897  40.300  1.00  0.00     0.072 A 
HETATM   24  C   UNL     1      30.336  51.249  39.036  1.00  0.00    -0.004 A 
HETATM   25  C   UNL     1      31.421  52.385  40.880  1.00  0.00     0.072 A 
HETATM   26  C   UNL     1      29.151  50.745  38.475  1.00  0.00     0.027 A 
HETATM   27  C   UNL     1      31.568  51.112  38.374  1.00  0.00     0.053 A 
HETATM   28  C   UNL     1      32.691  51.607  38.995  1.00  0.00     0.106 A 
HETATM   29  C   UNL     1      32.619  52.226  40.217  1.00  0.00     0.107 A 
HETATM   30  O   UNL     1      33.958  51.550  38.512  1.00  0.00    -0.323 OA
HETATM   31  O   UNL     1      33.836  52.638  40.660  1.00  0.00    -0.323 OA
HETATM   32  C   UNL     1      34.687  52.195  39.581  1.00  0.00     0.352 A 
BRANCH  21  33
HETATM   33  O   UNL     1      26.873  51.755  41.094  1.00  0.00    -0.344 OA
HETATM   34  H   UNL     1      26.869  52.735  41.088  1.00  0.00     0.219 HD
ENDBRANCH  21  33
ENDBRANCH  19  20
ENDBRANCH   1  19
BRANCH   1  35
HETATM   35  C   UNL     1      24.647  48.803  39.088  1.00  0.00     0.238 C 
BRANCH  35  36
HETATM   36  C   UNL     1      23.975  50.072  38.559  1.00  0.00     0.054 C 
BRANCH  36  37
HETATM   37  C   UNL     1      22.572  50.219  39.133  1.00  0.00     0.165 C 
BRANCH  37  38
HETATM   38  O   UNL     1      22.376  51.581  39.480  1.00  0.00    -0.401 OA
HETATM   39  H   UNL     1      21.942  52.015  38.721  1.00  0.00     0.209 HD
ENDBRANCH  37  38
ENDBRANCH  36  37
ENDBRANCH  35  36
ENDBRANCH   1  35
TORSDOF 12
ENDMDL
MODEL 2
REMARK VINA RESULT:      -7.9     12.362     14.759
REMARK  12 active torsions:
REMARK  status: ('A' for Active; 'I' for Inactive)
REMARK    1  A    between atoms: C_2  and  C_3 
REMARK    2  A    between atoms: C_3  and  N_4 
REMARK    3  A    between atoms: C_3  and  C_25 
REMARK    4  A    between atoms: N_4  and  C_6 
REMARK    5  A    between atoms: N_4  and  C_21 
REMARK    6  A    between atoms: C_6  and  C_7 
REMARK    7  A    between atoms: C_8  and  O_9 
REMARK    8  A    between atoms: C_21  and  C_22 
REMARK    9  A    between atoms: C_22  and  C_23 
REMARK   10  A    between atoms: C_23  and  O_24 
REMARK   11  A    between atoms: N_26  and  C_27 
REMARK   12  A    between atoms: C_27  and  C_28 
ROOT
HETATM    1  N   UNL     1      26.304  43.380  50.840  1.00  0.00    -0.055 N 
HETATM    2  H   UNL     1      26.221  43.341  49.820  1.00  0.00     0.281 HD
ENDROOT
BRANCH   1   3
HETATM    3  C   UNL     1      25.096  44.223  51.301  1.00  0.00     0.263 C 
BRANCH   3   4
HETATM    4  C   UNL     1      23.974  44.380  50.224  1.00  0.00     0.016 C 
HETATM    5  C   UNL     1      22.821  43.385  50.407  1.00  0.00     0.012 C 
HETATM    6  C   UNL     1      24.409  44.391  48.755  1.00  0.00     0.012 C 
ENDBRANCH   3   4
BRANCH   3   7
HETATM    7  C   UNL     1      25.388  45.508  52.007  1.00  0.00     0.168 A 
HETATM    8  N   UNL     1      25.968  46.625  51.452  1.00  0.00    -0.257 N 
HETATM    9  N   UNL     1      26.132  47.564  52.396  1.00  0.00    -0.003 NA
HETATM   10  N   UNL     1      25.656  47.034  53.509  1.00  0.00     0.018 NA
HETATM   11  N   UNL     1      25.205  45.766  53.286  1.00  0.00    -0.145 NA
BRANCH   8  12
HETATM   12  C   UNL     1      26.391  46.902  50.091  1.00  0.00     0.186 C 
BRANCH  12  13
HETATM   13  C   UNL     1      25.649  48.066  49.474  1.00  0.00    -0.039 A 
HETATM   14  C   UNL     1      26.318  49.098  48.792  1.00  0.00     0.009 A 
HETATM   15  C   UNL     1      25.604  50.117  48.161  1.00  0.00     0.001 A 
HETATM   16  C   UNL     1      24.213  50.113  48.183  1.00  0.00     0.000 A 
HETATM   17  C   UNL     1      23.532  49.087  48.836  1.00  0.00     0.001 A 
HETATM   18  C   UNL     1      24.244  48.067  49.472  1.00  0.00     0.009 A 
ENDBRANCH  12  13
ENDBRANCH   8  12
ENDBRANCH   3   7
ENDBRANCH   1   3
BRANCH   1  19
HETATM   19  C   UNL     1      27.720  43.953  50.997  1.00  0.00     0.278 C 
BRANCH  19  20
HETATM   20  C   UNL     1      28.477  43.801  52.278  1.00  0.00     0.021 A 
HETATM   21  C   UNL     1      29.229  42.661  52.521  1.00  0.00     0.170 A 
HETATM   22  N   UNL     1      29.946  42.394  53.622  1.00  0.00    -0.224 NA
HETATM   23  C   UNL     1      29.950  43.317  54.595  1.00  0.00     0.072 A 
HETATM   24  C   UNL     1      29.184  44.512  54.497  1.00  0.00    -0.004 A 
HETATM   25  C   UNL     1      30.715  43.100  55.735  1.00  0.00     0.072 A 
HETATM   26  C   UNL     1      28.433  44.721  53.329  1.00  0.00     0.027 A 
HETATM   27  C   UNL     1      29.186  45.456  55.538  1.00  0.00     0.053 A 
HETATM   28  C   UNL     1      29.966  45.195  56.642  1.00  0.00     0.106 A 
HETATM   29  C   UNL     1      30.712  44.048  56.736  1.00  0.00     0.107 A 
HETATM   30  O   UNL     1      30.099  45.997  57.728  1.00  0.00    -0.323 OA
HETATM   31  O   UNL     1      31.413  43.983  57.899  1.00  0.00    -0.323 OA
HETATM   32  C   UNL     1      31.033  45.229  58.520  1.00  0.00     0.352 A 
BRANCH  21  33
HETATM   33  O   UNL     1      29.295  41.662  51.608  1.00  0.00    -0.344 OA
HETATM   34  H   UNL     1      28.784  40.975  52.084  1.00  0.00     0.219 HD
ENDBRANCH  21  33
ENDBRANCH  19  20
ENDBRANCH   1  19
BRANCH   1  35
HETATM   35  C   UNL     1      26.224  41.917  51.260  1.00  0.00     0.238 C 
BRANCH  35  36
HETATM   36  C   UNL     1      25.844  41.024  50.077  1.00  0.00     0.054 C 
BRANCH  36  37
HETATM   37  C   UNL     1      27.006  40.899  49.101  1.00  0.00     0.165 C 
BRANCH  37  38
HETATM   38  O   UNL     1      26.994  42.035  48.251  1.00  0.00    -0.401 OA
HETATM   39  H   UNL     1      26.199  42.557  48.474  1.00  0.00     0.209 HD
ENDBRANCH  37  38
ENDBRANCH  36  37
ENDBRANCH  35  36
ENDBRANCH   1  35
TORSDOF 12
ENDMDL
MODEL 3
REMARK VINA RESULT:      -7.7     11.385     13.788
REMARK  12 active torsions:
REMARK  status: ('A' for Active; 'I' for Inactive)
REMARK    1  A    between atoms: C_2  and  C_3 
REMARK    2  A    between atoms: C_3  and  N_4 
REMARK    3  A    between atoms: C_3  and  C_25 
REMARK    4  A    between atoms: N_4  and  C_6 
REMARK    5  A    between atoms: N_4  and  C_21 
REMARK    6  A    between atoms: C_6  and  C_7 
REMARK    7  A    between atoms: C_8  and  O_9 
REMARK    8  A    between atoms: C_21  and  C_22 
REMARK    9  A    between atoms: C_22  and  C_23 
REMARK   10  A    between atoms: C_23  and  O_24 
REMARK   11  A    between atoms: N_26  and  C_27 
REMARK   12  A    between atoms: C_27  and  C_28 
ROOT
HETATM    1  N   UNL     1      23.491  45.850  50.094  1.00  0.00    -0.055 N 
HETATM    2  H   UNL     1      22.727  46.202  50.678  1.00  0.00     0.281 HD
ENDROOT
BRANCH   1   3
HETATM    3  C   UNL     1      24.688  45.702  51.057  1.00  0.00     0.263 C 
BRANCH   3   4
HETATM    4  C   UNL     1      25.272  47.059  51.567  1.00  0.00     0.016 C 
HETATM    5  C   UNL     1      26.527  47.498  50.804  1.00  0.00     0.012 C 
HETATM    6  C   UNL     1      25.518  47.195  53.073  1.00  0.00     0.012 C 
ENDBRANCH   3   4
BRANCH   3   7
HETATM    7  C   UNL     1      25.759  44.733  50.673  1.00  0.00     0.168 A 
HETATM    8  N   UNL     1      26.448  43.905  51.529  1.00  0.00    -0.257 N 
HETATM    9  N   UNL     1      27.377  43.220  50.843  1.00  0.00    -0.003 NA
HETATM   10  N   UNL     1      27.255  43.617  49.589  1.00  0.00     0.018 NA
HETATM   11  N   UNL     1      26.272  44.556  49.473  1.00  0.00    -0.145 NA
BRANCH   8  12
HETATM   12  C   UNL     1      26.315  43.688  52.958  1.00  0.00     0.186 C 
BRANCH  12  13
HETATM   13  C   UNL     1      27.627  43.834  53.696  1.00  0.00    -0.039 A 
HETATM   14  C   UNL     1      27.949  44.995  54.420  1.00  0.00     0.009 A 
HETATM   15  C   UNL     1      29.130  45.071  55.160  1.00  0.00     0.001 A 
HETATM   16  C   UNL     1      29.998  43.984  55.205  1.00  0.00     0.000 A 
HETATM   17  C   UNL     1      29.685  42.817  54.510  1.00  0.00     0.001 A 
HETATM   18  C   UNL     1      28.505  42.739  53.766  1.00  0.00     0.009 A 
ENDBRANCH  12  13
ENDBRANCH   8  12
ENDBRANCH   3   7
ENDBRANCH   1   3
BRANCH   1  19
HETATM   19  C   UNL     1      23.540  46.924  48.997  1.00  0.00     0.278 C 
BRANCH  19  20
HETATM   20  C   UNL     1      22.617  48.101  49.027  1.00  0.00     0.021 A 
HETATM   21  C   UNL     1      23.122  49.390  49.124  1.00  0.00     0.170 A 
HETATM   22  N   UNL     1      22.413  50.526  49.167  1.00  0.00    -0.224 NA
HETATM   23  C   UNL     1      21.077  50.424  49.106  1.00  0.00     0.072 A 
HETATM   24  C   UNL     1      20.425  49.160  49.052  1.00  0.00    -0.004 A 
HETATM   25  C   UNL     1      20.305  51.580  49.103  1.00  0.00     0.072 A 
HETATM   26  C   UNL     1      21.224  48.005  49.036  1.00  0.00     0.027 A 
HETATM   27  C   UNL     1      19.023  49.075  49.010  1.00  0.00     0.053 A 
HETATM   28  C   UNL     1      18.307  50.250  49.003  1.00  0.00     0.106 A 
HETATM   29  C   UNL     1      18.932  51.470  49.047  1.00  0.00     0.107 A 
HETATM   30  O   UNL     1      16.955  50.357  48.950  1.00  0.00    -0.323 OA
HETATM   31  O   UNL     1      18.050  52.504  49.026  1.00  0.00    -0.323 OA
HETATM   32  C   UNL     1      16.795  51.794  48.951  1.00  0.00     0.352 A 
BRANCH  21  33
HETATM   33  O   UNL     1      24.458  49.611  49.195  1.00  0.00    -0.344 OA
HETATM   34  H   UNL     1      24.775  48.852  48.665  1.00  0.00     0.219 HD
ENDBRANCH  21  33
ENDBRANCH  19  20
ENDBRANCH   1  19
BRANCH   1  35
HETATM   35  C   UNL     1      22.957  44.520  49.575  1.00  0.00     0.238 C 
BRANCH  35  36
HETATM   36  C   UNL     1      22.916  44.501  48.046  1.00  0.00     0.054 C 
BRANCH  36  37
HETATM   37  C   UNL     1      23.312  43.131  47.513  1.00  0.00     0.165 C 
BRANCH  37  38
HETATM   38  O   UNL     1      24.679  42.912  47.827  1.00  0.00    -0.401 OA
HETATM   39  H   UNL     1      25.017  43.731  48.238  1.00  0.00     0.209 HD
ENDBRANCH  37  38
ENDBRANCH  36  37
ENDBRANCH  35  36
ENDBRANCH   1  35
TORSDOF 12
ENDMDL
MODEL 4
REMARK VINA RESULT:      -7.6     11.070     14.004
REMARK  12 active torsions:
REMARK  status: ('A' for Active; 'I' for Inactive)
REMARK    1  A    between atoms: C_2  and  C_3 
REMARK    2  A    between atoms: C_3  and  N_4 
REMARK    3  A    between atoms: C_3  and  C_25 
REMARK    4  A    between atoms: N_4  and  C_6 
REMARK    5  A    between atoms: N_4  and  C_21 
REMARK    6  A    between atoms: C_6  and  C_7 
REMARK    7  A    between atoms: C_8  and  O_9 
REMARK    8  A    between atoms: C_21  and  C_22 
REMARK    9  A    between atoms: C_22  and  C_23 
REMARK   10  A    between atoms: C_23  and  O_24 
REMARK   11  A    between atoms: N_26  and  C_27 
REMARK   12  A    between atoms: C_27  and  C_28 
ROOT
HETATM    1  N   UNL     1      26.197  45.923  50.163  1.00  0.00    -0.055 N 
HETATM    2  H   UNL     1      25.870  45.353  49.378  1.00  0.00     0.281 HD
ENDROOT
BRANCH   1   3
HETATM    3  C   UNL     1      26.784  44.910  51.169  1.00  0.00     0.263 C 
BRANCH   3   4
HETATM    4  C   UNL     1      27.189  43.540  50.536  1.00  0.00     0.016 C 
HETATM    5  C   UNL     1      26.205  43.061  49.461  1.00  0.00     0.012 C 
HETATM    6  C   UNL     1      27.495  42.386  51.497  1.00  0.00     0.012 C 
ENDBRANCH   3   4
BRANCH   3   7
HETATM    7  C   UNL     1      26.068  44.745  52.470  1.00  0.00     0.168 A 
HETATM    8  N   UNL     1      26.509  45.179  53.700  1.00  0.00    -0.257 N 
HETATM    9  N   UNL     1      25.638  44.801  54.649  1.00  0.00    -0.003 NA
HETATM   10  N   UNL     1      24.679  44.153  54.012  1.00  0.00     0.018 NA
HETATM   11  N   UNL     1      24.937  44.102  52.674  1.00  0.00    -0.145 NA
BRANCH   8  12
HETATM   12  C   UNL     1      27.692  45.930  54.077  1.00  0.00     0.186 C 
BRANCH  12  13
HETATM   13  C   UNL     1      28.753  45.065  54.720  1.00  0.00    -0.039 A 
HETATM   14  C   UNL     1      29.154  43.840  54.160  1.00  0.00     0.009 A 
HETATM   15  C   UNL     1      30.193  43.102  54.729  1.00  0.00     0.001 A 
HETATM   16  C   UNL     1      30.860  43.583  55.851  1.00  0.00     0.000 A 
HETATM   17  C   UNL     1      30.490  44.807  56.406  1.00  0.00     0.001 A 
HETATM   18  C   UNL     1      29.448  45.546  55.842  1.00  0.00     0.009 A 
ENDBRANCH  12  13
ENDBRANCH   8  12
ENDBRANCH   3   7
ENDBRANCH   1   3
BRANCH   1  19
HETATM   19  C   UNL     1      24.912  46.683  50.528  1.00  0.00     0.278 C 
BRANCH  19  20
HETATM   20  C   UNL     1      23.723  46.670  49.621  1.00  0.00     0.021 A 
HETATM   21  C   UNL     1      23.168  47.859  49.171  1.00  0.00     0.170 A 
HETATM   22  N   UNL     1      22.104  47.991  48.366  1.00  0.00    -0.224 NA
HETATM   23  C   UNL     1      21.509  46.869  47.937  1.00  0.00     0.072 A 
HETATM   24  C   UNL     1      21.947  45.583  48.360  1.00  0.00    -0.004 A 
HETATM   25  C   UNL     1      20.431  46.960  47.065  1.00  0.00     0.072 A 
HETATM   26  C   UNL     1      23.051  45.511  49.226  1.00  0.00     0.027 A 
HETATM   27  C   UNL     1      21.296  44.419  47.915  1.00  0.00     0.053 A 
HETATM   28  C   UNL     1      20.238  44.565  47.048  1.00  0.00     0.106 A 
HETATM   29  C   UNL     1      19.818  45.803  46.633  1.00  0.00     0.107 A 
HETATM   30  O   UNL     1      19.506  43.557  46.509  1.00  0.00    -0.323 OA
HETATM   31  O   UNL     1      18.765  45.731  45.776  1.00  0.00    -0.323 OA
HETATM   32  C   UNL     1      18.578  44.303  45.688  1.00  0.00     0.352 A 
BRANCH  21  33
HETATM   33  O   UNL     1      23.686  49.055  49.543  1.00  0.00    -0.344 OA
HETATM   34  H   UNL     1      23.990  49.377  48.670  1.00  0.00     0.219 HD
ENDBRANCH  21  33
ENDBRANCH  19  20
ENDBRANCH   1  19
BRANCH   1  35
HETATM   35  C   UNL     1      27.243  46.833  49.530  1.00  0.00     0.238 C 
BRANCH  35  36
HETATM   36  C   UNL     1      27.030  48.290  49.944  1.00  0.00     0.054 C 
BRANCH  36  37
HETATM   37  C   UNL     1      27.471  49.235  48.834  1.00  0.00     0.165 C 
BRANCH  37  38
HETATM   38  O   UNL     1      26.310  49.698  48.160  1.00  0.00    -0.401 OA
HETATM   39  H   UNL     1      26.589  50.420  47.563  1.00  0.00     0.209 HD
ENDBRANCH  37  38
ENDBRANCH  36  37
ENDBRANCH  35  36
ENDBRANCH   1  35
TORSDOF 12
ENDMDL
MODEL 5
REMARK VINA RESULT:      -7.6     12.107     14.763
REMARK  12 active torsions:
REMARK  status: ('A' for Active; 'I' for Inactive)
REMARK    1  A    between atoms: C_2  and  C_3 
REMARK    2  A    between atoms: C_3  and  N_4 
REMARK    3  A    between atoms: C_3  and  C_25 
REMARK    4  A    between atoms: N_4  and  C_6 
REMARK    5  A    between atoms: N_4  and  C_21 
REMARK    6  A    between atoms: C_6  and  C_7 
REMARK    7  A    between atoms: C_8  and  O_9 
REMARK    8  A    between atoms: C_21  and  C_22 
REMARK    9  A    between atoms: C_22  and  C_23 
REMARK   10  A    between atoms: C_23  and  O_24 
REMARK   11  A    between atoms: N_26  and  C_27 
REMARK   12  A    between atoms: C_27  and  C_28 
ROOT
HETATM    1  N   UNL     1      26.752  43.038  49.967  1.00  0.00    -0.055 N 
HETATM    2  H   UNL     1      27.665  43.500  49.979  1.00  0.00     0.281 HD
ENDROOT
BRANCH   1   3
HETATM    3  C   UNL     1      25.730  44.186  49.820  1.00  0.00     0.263 C 
BRANCH   3   4
HETATM    4  C   UNL     1      26.103  45.481  50.610  1.00  0.00     0.016 C 
HETATM    5  C   UNL     1      25.047  45.875  51.651  1.00  0.00     0.012 C 
HETATM    6  C   UNL     1      26.495  46.715  49.791  1.00  0.00     0.012 C 
ENDBRANCH   3   4
BRANCH   3   7
HETATM    7  C   UNL     1      24.283  43.835  49.956  1.00  0.00     0.168 A 
HETATM    8  N   UNL     1      23.259  44.297  49.161  1.00  0.00    -0.257 N 
HETATM    9  N   UNL     1      22.088  43.822  49.615  1.00  0.00    -0.003 NA
HETATM   10  N   UNL     1      22.391  43.079  50.665  1.00  0.00     0.018 NA
HETATM   11  N   UNL     1      23.736  43.087  50.892  1.00  0.00    -0.145 NA
BRANCH   8  12
HETATM   12  C   UNL     1      23.273  45.157  47.993  1.00  0.00     0.186 C 
BRANCH  12  13
HETATM   13  C   UNL     1      22.510  46.445  48.205  1.00  0.00    -0.039 A 
HETATM   14  C   UNL     1      23.044  47.512  48.949  1.00  0.00     0.009 A 
HETATM   15  C   UNL     1      22.354  48.720  49.061  1.00  0.00     0.001 A 
HETATM   16  C   UNL     1      21.132  48.889  48.417  1.00  0.00     0.000 A 
HETATM   17  C   UNL     1      20.598  47.850  47.657  1.00  0.00     0.001 A 
HETATM   18  C   UNL     1      21.285  46.638  47.547  1.00  0.00     0.009 A 
ENDBRANCH  12  13
ENDBRANCH   8  12
ENDBRANCH   3   7
ENDBRANCH   1   3
BRANCH   1  19
HETATM   19  C   UNL     1      26.806  42.248  51.284  1.00  0.00     0.278 C 
BRANCH  19  20
HETATM   20  C   UNL     1      27.744  42.640  52.381  1.00  0.00     0.021 A 
HETATM   21  C   UNL     1      28.928  41.944  52.578  1.00  0.00     0.170 A 
HETATM   22  N   UNL     1      29.849  42.183  53.522  1.00  0.00    -0.224 NA
HETATM   23  C   UNL     1      29.620  43.199  54.367  1.00  0.00     0.072 A 
HETATM   24  C   UNL     1      28.423  43.965  54.307  1.00  0.00    -0.004 A 
HETATM   25  C   UNL     1      30.571  43.509  55.332  1.00  0.00     0.072 A 
HETATM   26  C   UNL     1      27.484  43.649  53.312  1.00  0.00     0.027 A 
HETATM   27  C   UNL     1      28.194  45.013  55.216  1.00  0.00     0.053 A 
HETATM   28  C   UNL     1      29.170  45.282  56.147  1.00  0.00     0.106 A 
HETATM   29  C   UNL     1      30.328  44.550  56.202  1.00  0.00     0.107 A 
HETATM   30  O   UNL     1      29.124  46.260  57.087  1.00  0.00    -0.323 OA
HETATM   31  O   UNL     1      31.162  44.977  57.187  1.00  0.00    -0.323 OA
HETATM   32  C   UNL     1      30.401  46.072  57.738  1.00  0.00     0.352 A 
BRANCH  21  33
HETATM   33  O   UNL     1      29.261  40.896  51.785  1.00  0.00    -0.344 OA
HETATM   34  H   UNL     1      28.811  41.171  50.959  1.00  0.00     0.219 HD
ENDBRANCH  21  33
ENDBRANCH  19  20
ENDBRANCH   1  19
BRANCH   1  35
HETATM   35  C   UNL     1      26.830  42.129  48.746  1.00  0.00     0.238 C 
BRANCH  35  36
HETATM   36  C   UNL     1      27.310  40.728  49.131  1.00  0.00     0.054 C 
BRANCH  36  37
HETATM   37  C   UNL     1      28.517  40.323  48.294  1.00  0.00     0.165 C 
BRANCH  37  38
HETATM   38  O   UNL     1      29.450  39.679  49.148  1.00  0.00    -0.401 OA
HETATM   39  H   UNL     1      29.646  38.805  48.757  1.00  0.00     0.209 HD
ENDBRANCH  37  38
ENDBRANCH  36  37
ENDBRANCH  35  36
ENDBRANCH   1  35
TORSDOF 12
ENDMDL
MODEL 6
REMARK VINA RESULT:      -7.5     12.506     15.092
REMARK  12 active torsions:
REMARK  status: ('A' for Active; 'I' for Inactive)
REMARK    1  A    between atoms: C_2  and  C_3 
REMARK    2  A    between atoms: C_3  and  N_4 
REMARK    3  A    between atoms: C_3  and  C_25 
REMARK    4  A    between atoms: N_4  and  C_6 
REMARK    5  A    between atoms: N_4  and  C_21 
REMARK    6  A    between atoms: C_6  and  C_7 
REMARK    7  A    between atoms: C_8  and  O_9 
REMARK    8  A    between atoms: C_21  and  C_22 
REMARK    9  A    between atoms: C_22  and  C_23 
REMARK   10  A    between atoms: C_23  and  O_24 
REMARK   11  A    between atoms: N_26  and  C_27 
REMARK   12  A    between atoms: C_27  and  C_28 
ROOT
HETATM    1  N   UNL     1      27.175  43.977  50.706  1.00  0.00    -0.055 N 
HETATM    2  H   UNL     1      28.015  43.639  50.229  1.00  0.00     0.281 HD
ENDROOT
BRANCH   1   3
HETATM    3  C   UNL     1      27.570  44.058  52.195  1.00  0.00     0.263 C 
BRANCH   3   4
HETATM    4  C   UNL     1      28.387  42.829  52.710  1.00  0.00     0.016 C 
HETATM    5  C   UNL     1      27.903  42.313  54.071  1.00  0.00     0.012 C 
HETATM    6  C   UNL     1      29.913  42.957  52.728  1.00  0.00     0.012 C 
ENDBRANCH   3   4
BRANCH   3   7
HETATM    7  C   UNL     1      26.512  44.481  53.162  1.00  0.00     0.168 A 
HETATM    8  N   UNL     1      26.625  45.478  54.104  1.00  0.00    -0.257 N 
HETATM    9  N   UNL     1      25.501  45.536  54.836  1.00  0.00    -0.003 NA
HETATM   10  N   UNL     1      24.712  44.596  54.347  1.00  0.00     0.018 NA
HETATM   11  N   UNL     1      25.325  43.933  53.325  1.00  0.00    -0.145 NA
BRANCH   8  12
HETATM   12  C   UNL     1      27.708  46.400  54.389  1.00  0.00     0.186 C 
BRANCH  12  13
HETATM   13  C   UNL     1      28.573  45.948  55.544  1.00  0.00    -0.039 A 
HETATM   14  C   UNL     1      29.717  45.154  55.351  1.00  0.00     0.009 A 
HETATM   15  C   UNL     1      30.544  44.820  56.425  1.00  0.00     0.001 A 
HETATM   16  C   UNL     1      30.253  45.288  57.703  1.00  0.00     0.000 A 
HETATM   17  C   UNL     1      29.136  46.094  57.909  1.00  0.00     0.001 A 
HETATM   18  C   UNL     1      28.304  46.427  56.837  1.00  0.00     0.009 A 
ENDBRANCH  12  13
ENDBRANCH   8  12
ENDBRANCH   3   7
ENDBRANCH   1   3
BRANCH   1  19
HETATM   19  C   UNL     1      26.145  42.927  50.261  1.00  0.00     0.278 C 
BRANCH  19  20
HETATM   20  C   UNL     1      26.574  41.656  49.599  1.00  0.00     0.021 A 
HETATM   21  C   UNL     1      26.582  40.462  50.306  1.00  0.00     0.170 A 
HETATM   22  N   UNL     1      26.948  39.259  49.841  1.00  0.00    -0.224 NA
HETATM   23  C   UNL     1      27.344  39.185  48.562  1.00  0.00     0.072 A 
HETATM   24  C   UNL     1      27.429  40.341  47.737  1.00  0.00    -0.004 A 
HETATM   25  C   UNL     1      27.689  37.950  48.027  1.00  0.00     0.072 A 
HETATM   26  C   UNL     1      27.057  41.577  48.290  1.00  0.00     0.027 A 
HETATM   27  C   UNL     1      27.867  40.244  46.405  1.00  0.00     0.053 A 
HETATM   28  C   UNL     1      28.191  38.997  45.924  1.00  0.00     0.106 A 
HETATM   29  C   UNL     1      28.102  37.879  46.714  1.00  0.00     0.107 A 
HETATM   30  O   UNL     1      28.616  38.716  44.665  1.00  0.00    -0.323 OA
HETATM   31  O   UNL     1      28.461  36.748  46.050  1.00  0.00    -0.323 OA
HETATM   32  C   UNL     1      28.773  37.281  44.745  1.00  0.00     0.352 A 
BRANCH  21  33
HETATM   33  O   UNL     1      26.204  40.420  51.607  1.00  0.00    -0.344 OA
HETATM   34  H   UNL     1      26.227  41.377  51.812  1.00  0.00     0.219 HD
ENDBRANCH  21  33
ENDBRANCH  19  20
ENDBRANCH   1  19
BRANCH   1  35
HETATM   35  C   UNL     1      26.925  45.337  50.065  1.00  0.00     0.238 C 
BRANCH  35  36
HETATM   36  C   UNL     1      25.434  45.561  49.809  1.00  0.00     0.054 C 
BRANCH  36  37
HETATM   37  C   UNL     1      24.916  46.734  50.631  1.00  0.00     0.165 C 
BRANCH  37  38
HETATM   38  O   UNL     1      26.032  47.409  51.189  1.00  0.00    -0.401 OA
HETATM   39  H   UNL     1      26.818  47.150  50.671  1.00  0.00     0.209 HD
ENDBRANCH  37  38
ENDBRANCH  36  37
ENDBRANCH  35  36
ENDBRANCH   1  35
TORSDOF 12
ENDMDL
MODEL 7
REMARK VINA RESULT:      -7.4     11.845     14.358
REMARK  12 active torsions:
REMARK  status: ('A' for Active; 'I' for Inactive)
REMARK    1  A    between atoms: C_2  and  C_3 
REMARK    2  A    between atoms: C_3  and  N_4 
REMARK    3  A    between atoms: C_3  and  C_25 
REMARK    4  A    between atoms: N_4  and  C_6 
REMARK    5  A    between atoms: N_4  and  C_21 
REMARK    6  A    between atoms: C_6  and  C_7 
REMARK    7  A    between atoms: C_8  and  O_9 
REMARK    8  A    between atoms: C_21  and  C_22 
REMARK    9  A    between atoms: C_22  and  C_23 
REMARK   10  A    between atoms: C_23  and  O_24 
REMARK   11  A    between atoms: N_26  and  C_27 
REMARK   12  A    between atoms: C_27  and  C_28 
ROOT
HETATM    1  N   UNL     1      26.639  43.493  50.165  1.00  0.00    -0.055 N 
HETATM    2  H   UNL     1      27.608  43.799  50.042  1.00  0.00     0.281 HD
ENDROOT
BRANCH   1   3
HETATM    3  C   UNL     1      25.824  44.800  50.277  1.00  0.00     0.263 C 
BRANCH   3   4
HETATM    4  C   UNL     1      24.335  44.668  49.821  1.00  0.00     0.016 C 
HETATM    5  C   UNL     1      23.579  43.552  50.553  1.00  0.00     0.012 C 
HETATM    6  C   UNL     1      24.069  44.562  48.316  1.00  0.00     0.012 C 
ENDBRANCH   3   4
BRANCH   3   7
HETATM    7  C   UNL     1      26.464  46.051  49.768  1.00  0.00     0.168 A 
HETATM    8  N   UNL     1      25.906  47.309  49.776  1.00  0.00    -0.257 N 
HETATM    9  N   UNL     1      26.742  48.176  49.184  1.00  0.00    -0.003 NA
HETATM   10  N   UNL     1      27.795  47.464  48.824  1.00  0.00     0.018 NA
HETATM   11  N   UNL     1      27.632  46.154  49.168  1.00  0.00    -0.145 NA
BRANCH   8  12
HETATM   12  C   UNL     1      24.639  47.785  50.299  1.00  0.00     0.186 C 
BRANCH  12  13
HETATM   13  C   UNL     1      23.827  48.536  49.267  1.00  0.00    -0.039 A 
HETATM   14  C   UNL     1      22.633  48.015  48.737  1.00  0.00     0.009 A 
HETATM   15  C   UNL     1      21.860  48.764  47.849  1.00  0.00     0.001 A 
HETATM   16  C   UNL     1      22.255  50.050  47.491  1.00  0.00     0.000 A 
HETATM   17  C   UNL     1      23.424  50.590  48.023  1.00  0.00     0.001 A 
HETATM   18  C   UNL     1      24.202  49.842  48.910  1.00  0.00     0.009 A 
ENDBRANCH  12  13
ENDBRANCH   8  12
ENDBRANCH   3   7
ENDBRANCH   1   3
BRANCH   1  19
HETATM   19  C   UNL     1      26.772  42.586  51.398  1.00  0.00     0.278 C 
BRANCH  19  20
HETATM   20  C   UNL     1      27.727  42.918  52.501  1.00  0.00     0.021 A 
HETATM   21  C   UNL     1      28.903  42.198  52.655  1.00  0.00     0.170 A 
HETATM   22  N   UNL     1      29.837  42.384  53.598  1.00  0.00    -0.224 NA
HETATM   23  C   UNL     1      29.632  43.366  54.487  1.00  0.00     0.072 A 
HETATM   24  C   UNL     1      28.446  44.151  54.473  1.00  0.00    -0.004 A 
HETATM   25  C   UNL     1      30.597  43.622  55.454  1.00  0.00     0.072 A 
HETATM   26  C   UNL     1      27.492  43.891  53.476  1.00  0.00     0.027 A 
HETATM   27  C   UNL     1      28.241  45.162  55.428  1.00  0.00     0.053 A 
HETATM   28  C   UNL     1      29.230  45.378  56.359  1.00  0.00     0.106 A 
HETATM   29  C   UNL     1      30.378  44.628  56.370  1.00  0.00     0.107 A 
HETATM   30  O   UNL     1      29.208  46.316  57.340  1.00  0.00    -0.323 OA
HETATM   31  O   UNL     1      31.229  45.001  57.363  1.00  0.00    -0.323 OA
HETATM   32  C   UNL     1      30.489  46.083  57.968  1.00  0.00     0.352 A 
BRANCH  21  33
HETATM   33  O   UNL     1      29.212  41.180  51.815  1.00  0.00    -0.344 OA
HETATM   34  H   UNL     1      30.180  41.314  51.750  1.00  0.00     0.219 HD
ENDBRANCH  21  33
ENDBRANCH  19  20
ENDBRANCH   1  19
BRANCH   1  35
HETATM   35  C   UNL     1      26.351  42.701  48.896  1.00  0.00     0.238 C 
BRANCH  35  36
HETATM   36  C   UNL     1      26.559  41.202  49.121  1.00  0.00     0.054 C 
BRANCH  36  37
HETATM   37  C   UNL     1      27.432  40.608  48.024  1.00  0.00     0.165 C 
BRANCH  37  38
HETATM   38  O   UNL     1      27.832  41.659  47.159  1.00  0.00    -0.401 OA
HETATM   39  H   UNL     1      28.044  41.259  46.293  1.00  0.00     0.209 HD
ENDBRANCH  37  38
ENDBRANCH  36  37
ENDBRANCH  35  36
ENDBRANCH   1  35
TORSDOF 12
ENDMDL
MODEL 8
REMARK VINA RESULT:      -7.4     12.902     15.538
REMARK  12 active torsions:
REMARK  status: ('A' for Active; 'I' for Inactive)
REMARK    1  A    between atoms: C_2  and  C_3 
REMARK    2  A    between atoms: C_3  and  N_4 
REMARK    3  A    between atoms: C_3  and  C_25 
REMARK    4  A    between atoms: N_4  and  C_6 
REMARK    5  A    between atoms: N_4  and  C_21 
REMARK    6  A    between atoms: C_6  and  C_7 
REMARK    7  A    between atoms: C_8  and  O_9 
REMARK    8  A    between atoms: C_21  and  C_22 
REMARK    9  A    between atoms: C_22  and  C_23 
REMARK   10  A    between atoms: C_23  and  O_24 
REMARK   11  A    between atoms: N_26  and  C_27 
REMARK   12  A    between atoms: C_27  and  C_28 
ROOT
HETATM    1  N   UNL     1      26.445  44.913  52.214  1.00  0.00    -0.055 N 
HETATM    2  H   UNL     1      27.028  44.309  51.628  1.00  0.00     0.281 HD
ENDROOT
BRANCH   1   3
HETATM    3  C   UNL     1      27.195  45.000  53.560  1.00  0.00     0.263 C 
BRANCH   3   4
HETATM    4  C   UNL     1      27.180  43.675  54.389  1.00  0.00     0.016 C 
HETATM    5  C   UNL     1      27.731  42.473  53.611  1.00  0.00     0.012 C 
HETATM    6  C   UNL     1      25.862  43.284  55.064  1.00  0.00     0.012 C 
ENDBRANCH   3   4
BRANCH   3   7
HETATM    7  C   UNL     1      26.939  46.203  54.409  1.00  0.00     0.168 A 
HETATM    8  N   UNL     1      27.893  46.967  55.042  1.00  0.00    -0.257 N 
HETATM    9  N   UNL     1      27.294  47.927  55.765  1.00  0.00    -0.003 NA
HETATM   10  N   UNL     1      25.998  47.757  55.575  1.00  0.00     0.018 NA
HETATM   11  N   UNL     1      25.766  46.694  54.752  1.00  0.00    -0.145 NA
BRANCH   8  12
HETATM   12  C   UNL     1      29.342  46.883  55.031  1.00  0.00     0.186 C 
BRANCH  12  13
HETATM   13  C   UNL     1      29.872  45.821  55.969  1.00  0.00    -0.039 A 
HETATM   14  C   UNL     1      30.432  44.622  55.494  1.00  0.00     0.009 A 
HETATM   15  C   UNL     1      30.990  43.697  56.378  1.00  0.00     0.001 A 
HETATM   16  C   UNL     1      31.015  43.961  57.743  1.00  0.00     0.000 A 
HETATM   17  C   UNL     1      30.484  45.154  58.229  1.00  0.00     0.001 A 
HETATM   18  C   UNL     1      29.922  46.082  57.348  1.00  0.00     0.009 A 
ENDBRANCH  12  13
ENDBRANCH   8  12
ENDBRANCH   3   7
ENDBRANCH   1   3
BRANCH   1  19
HETATM   19  C   UNL     1      25.101  44.170  52.152  1.00  0.00     0.278 C 
BRANCH  19  20
HETATM   20  C   UNL     1      24.775  43.258  51.012  1.00  0.00     0.021 A 
HETATM   21  C   UNL     1      23.528  43.308  50.405  1.00  0.00     0.170 A 
HETATM   22  N   UNL     1      23.104  42.547  49.386  1.00  0.00    -0.224 NA
HETATM   23  C   UNL     1      23.962  41.646  48.887  1.00  0.00     0.072 A 
HETATM   24  C   UNL     1      25.257  41.458  49.446  1.00  0.00    -0.004 A 
HETATM   25  C   UNL     1      23.578  40.869  47.801  1.00  0.00     0.072 A 
HETATM   26  C   UNL     1      25.633  42.267  50.530  1.00  0.00     0.027 A 
HETATM   27  C   UNL     1      26.133  40.492  48.921  1.00  0.00     0.053 A 
HETATM   28  C   UNL     1      25.706  39.754  47.842  1.00  0.00     0.106 A 
HETATM   29  C   UNL     1      24.462  39.939  47.296  1.00  0.00     0.107 A 
HETATM   30  O   UNL     1      26.421  38.794  47.201  1.00  0.00    -0.323 OA
HETATM   31  O   UNL     1      24.235  39.117  46.237  1.00  0.00    -0.323 OA
HETATM   32  C   UNL     1      25.487  38.401  46.171  1.00  0.00     0.352 A 
BRANCH  21  33
HETATM   33  O   UNL     1      22.580  44.179  50.830  1.00  0.00    -0.344 OA
HETATM   34  H   UNL     1      22.580  43.962  51.785  1.00  0.00     0.219 HD
ENDBRANCH  21  33
ENDBRANCH  19  20
ENDBRANCH   1  19
BRANCH   1  35
HETATM   35  C   UNL     1      26.412  46.229  51.447  1.00  0.00     0.238 C 
BRANCH  35  36
HETATM   36  C   UNL     1      25.006  46.834  51.449  1.00  0.00     0.054 C 
BRANCH  36  37
HETATM   37  C   UNL     1      24.625  47.319  50.057  1.00  0.00     0.165 C 
BRANCH  37  38
HETATM   38  O   UNL     1      23.421  46.671  49.677  1.00  0.00    -0.401 OA
HETATM   39  H   UNL     1      23.247  46.905  48.745  1.00  0.00     0.209 HD
ENDBRANCH  37  38
ENDBRANCH  36  37
ENDBRANCH  35  36
ENDBRANCH   1  35
TORSDOF 12
ENDMDL
MODEL 9
REMARK VINA RESULT:      -7.3     10.683     13.731
REMARK  12 active torsions:
REMARK  status: ('A' for Active; 'I' for Inactive)
REMARK    1  A    between atoms: C_2  and  C_3 
REMARK    2  A    between atoms: C_3  and  N_4 
REMARK    3  A    between atoms: C_3  and  C_25 
REMARK    4  A    between atoms: N_4  and  C_6 
REMARK    5  A    between atoms: N_4  and  C_21 
REMARK    6  A    between atoms: C_6  and  C_7 
REMARK    7  A    between atoms: C_8  and  O_9 
REMARK    8  A    between atoms: C_21  and  C_22 
REMARK    9  A    between atoms: C_22  and  C_23 
REMARK   10  A    between atoms: C_23  and  O_24 
REMARK   11  A    between atoms: N_26  and  C_27 
REMARK   12  A    between atoms: C_27  and  C_28 
ROOT
HETATM    1  N   UNL     1      21.575  48.268  49.170  1.00  0.00    -0.055 N 
HETATM    2  H   UNL     1      21.552  47.810  50.085  1.00  0.00     0.281 HD
ENDROOT
BRANCH   1   3
HETATM    3  C   UNL     1      20.100  48.593  48.853  1.00  0.00     0.263 C 
BRANCH   3   4
HETATM    4  C   UNL     1      19.100  48.208  49.991  1.00  0.00     0.016 C 
HETATM    5  C   UNL     1      17.724  47.782  49.463  1.00  0.00     0.012 C 
HETATM    6  C   UNL     1      18.919  49.211  51.135  1.00  0.00     0.012 C 
ENDBRANCH   3   4
BRANCH   3   7
HETATM    7  C   UNL     1      19.591  48.215  47.500  1.00  0.00     0.168 A 
HETATM    8  N   UNL     1      19.158  49.083  46.524  1.00  0.00    -0.257 N 
HETATM    9  N   UNL     1      18.715  48.386  45.465  1.00  0.00    -0.003 NA
HETATM   10  N   UNL     1      18.878  47.115  45.785  1.00  0.00     0.018 NA
HETATM   11  N   UNL     1      19.406  46.995  47.037  1.00  0.00    -0.145 NA
BRANCH   8  12
HETATM   12  C   UNL     1      19.122  50.533  46.487  1.00  0.00     0.186 C 
BRANCH  12  13
HETATM   13  C   UNL     1      18.245  51.123  47.569  1.00  0.00    -0.039 A 
HETATM   14  C   UNL     1      16.893  50.764  47.709  1.00  0.00     0.009 A 
HETATM   15  C   UNL     1      16.129  51.260  48.767  1.00  0.00     0.001 A 
HETATM   16  C   UNL     1      16.705  52.104  49.710  1.00  0.00     0.000 A 
HETATM   17  C   UNL     1      18.050  52.453  49.600  1.00  0.00     0.001 A 
HETATM   18  C   UNL     1      18.817  51.962  48.541  1.00  0.00     0.009 A 
ENDBRANCH  12  13
ENDBRANCH   8  12
ENDBRANCH   3   7
ENDBRANCH   1   3
BRANCH   1  19
HETATM   19  C   UNL     1      22.305  47.208  48.331  1.00  0.00     0.278 C 
BRANCH  19  20
HETATM   20  C   UNL     1      23.035  46.076  48.982  1.00  0.00     0.021 A 
HETATM   21  C   UNL     1      22.410  44.852  49.173  1.00  0.00     0.170 A 
HETATM   22  N   UNL     1      22.942  43.763  49.745  1.00  0.00    -0.224 NA
HETATM   23  C   UNL     1      24.208  43.847  50.178  1.00  0.00     0.072 A 
HETATM   24  C   UNL     1      24.950  45.058  50.088  1.00  0.00    -0.004 A 
HETATM   25  C   UNL     1      24.812  42.727  50.737  1.00  0.00     0.072 A 
HETATM   26  C   UNL     1      24.328  46.172  49.501  1.00  0.00     0.027 A 
HETATM   27  C   UNL     1      26.269  45.130  50.567  1.00  0.00     0.053 A 
HETATM   28  C   UNL     1      26.822  43.991  51.106  1.00  0.00     0.106 A 
HETATM   29  C   UNL     1      26.112  42.821  51.187  1.00  0.00     0.107 A 
HETATM   30  O   UNL     1      28.080  43.875  51.601  1.00  0.00    -0.323 OA
HETATM   31  O   UNL     1      26.837  41.815  51.745  1.00  0.00    -0.323 OA
HETATM   32  C   UNL     1      28.091  42.484  51.993  1.00  0.00     0.352 A 
BRANCH  21  33
HETATM   33  O   UNL     1      21.129  44.654  48.777  1.00  0.00    -0.344 OA
HETATM   34  H   UNL     1      21.185  45.013  47.867  1.00  0.00     0.219 HD
ENDBRANCH  21  33
ENDBRANCH  19  20
ENDBRANCH   1  19
BRANCH   1  35
HETATM   35  C   UNL     1      22.435  49.503  49.412  1.00  0.00     0.238 C 
BRANCH  35  36
HETATM   36  C   UNL     1      23.272  49.843  48.177  1.00  0.00     0.054 C 
BRANCH  36  37
HETATM   37  C   UNL     1      24.757  49.841  48.516  1.00  0.00     0.165 C 
BRANCH  37  38
HETATM   38  O   UNL     1      25.476  50.226  47.354  1.00  0.00    -0.401 OA
HETATM   39  H   UNL     1      24.843  50.665  46.753  1.00  0.00     0.209 HD
ENDBRANCH  37  38
ENDBRANCH  36  37
ENDBRANCH  35  36
ENDBRANCH   1  35
TORSDOF 12
ENDMDL
MODEL 10
REMARK VINA RESULT:      -7.2     10.907     13.948
REMARK  12 active torsions:
REMARK  status: ('A' for Active; 'I' for Inactive)
REMARK    1  A    between atoms: C_2  and  C_3 
REMARK    2  A    between atoms: C_3  and  N_4 
REMARK    3  A    between atoms: C_3  and  C_25 
REMARK    4  A    between atoms: N_4  and  C_6 
REMARK    5  A    between atoms: N_4  and  C_21 
REMARK    6  A    between atoms: C_6  and  C_7 
REMARK    7  A    between atoms: C_8  and  O_9 
REMARK    8  A    between atoms: C_21  and  C_22 
REMARK    9  A    between atoms: C_22  and  C_23 
REMARK   10  A    between atoms: C_23  and  O_24 
REMARK   11  A    between atoms: N_26  and  C_27 
REMARK   12  A    between atoms: C_27  and  C_28 
ROOT
HETATM    1  N   UNL     1      22.144  48.150  48.638  1.00  0.00    -0.055 N 
HETATM    2  H   UNL     1      22.380  48.413  49.598  1.00  0.00     0.281 HD
ENDROOT
BRANCH   1   3
HETATM    3  C   UNL     1      20.601  48.094  48.612  1.00  0.00     0.263 C 
BRANCH   3   4
HETATM    4  C   UNL     1      19.914  48.787  49.832  1.00  0.00     0.016 C 
HETATM    5  C   UNL     1      18.507  48.246  50.117  1.00  0.00     0.012 C 
HETATM    6  C   UNL     1      19.882  50.319  49.843  1.00  0.00     0.012 C 
ENDBRANCH   3   4
BRANCH   3   7
HETATM    7  C   UNL     1      19.971  46.781  48.277  1.00  0.00     0.168 A 
HETATM    8  N   UNL     1      19.108  46.539  47.232  1.00  0.00    -0.257 N 
HETATM    9  N   UNL     1      18.694  45.263  47.277  1.00  0.00    -0.003 NA
HETATM   10  N   UNL     1      19.296  44.731  48.325  1.00  0.00     0.018 NA
HETATM   11  N   UNL     1      20.075  45.657  48.955  1.00  0.00    -0.145 NA
BRANCH   8  12
HETATM   12  C   UNL     1      18.625  47.407  46.174  1.00  0.00     0.186 C 
BRANCH  12  13
HETATM   13  C   UNL     1      17.578  48.387  46.654  1.00  0.00    -0.039 A 
HETATM   14  C   UNL     1      16.343  47.961  47.173  1.00  0.00     0.009 A 
HETATM   15  C   UNL     1      15.428  48.882  47.685  1.00  0.00     0.001 A 
HETATM   16  C   UNL     1      15.739  50.238  47.706  1.00  0.00     0.000 A 
HETATM   17  C   UNL     1      16.967  50.676  47.216  1.00  0.00     0.001 A 
HETATM   18  C   UNL     1      17.884  49.757  46.699  1.00  0.00     0.009 A 
ENDBRANCH  12  13
ENDBRANCH   8  12
ENDBRANCH   3   7
ENDBRANCH   1   3
BRANCH   1  19
HETATM   19  C   UNL     1      22.944  46.848  48.484  1.00  0.00     0.278 C 
BRANCH  19  20
HETATM   20  C   UNL     1      23.625  46.217  49.658  1.00  0.00     0.021 A 
HETATM   21  C   UNL     1      23.360  44.900  50.002  1.00  0.00     0.170 A 
HETATM   22  N   UNL     1      23.891  44.218  51.026  1.00  0.00    -0.224 NA
HETATM   23  C   UNL     1      24.775  44.859  51.804  1.00  0.00     0.072 A 
HETATM   24  C   UNL     1      25.103  46.228  51.592  1.00  0.00    -0.004 A 
HETATM   25  C   UNL     1      25.384  44.176  52.850  1.00  0.00     0.072 A 
HETATM   26  C   UNL     1      24.492  46.895  50.518  1.00  0.00     0.027 A 
HETATM   27  C   UNL     1      26.016  46.887  52.433  1.00  0.00     0.053 A 
HETATM   28  C   UNL     1      26.594  46.163  53.450  1.00  0.00     0.106 A 
HETATM   29  C   UNL     1      26.287  44.842  53.651  1.00  0.00     0.107 A 
HETATM   30  O   UNL     1      27.503  46.631  54.342  1.00  0.00    -0.323 OA
HETATM   31  O   UNL     1      26.966  44.308  54.700  1.00  0.00    -0.323 OA
HETATM   32  C   UNL     1      27.749  45.443  55.128  1.00  0.00     0.352 A 
BRANCH  21  33
HETATM   33  O   UNL     1      22.480  44.156  49.287  1.00  0.00    -0.344 OA
HETATM   34  H   UNL     1      22.540  43.314  49.784  1.00  0.00     0.219 HD
ENDBRANCH  21  33
ENDBRANCH  19  20
ENDBRANCH   1  19
BRANCH   1  35
HETATM   35  C   UNL     1      22.727  49.286  47.806  1.00  0.00     0.238 C 
BRANCH  35  36
HETATM   36  C   UNL     1      23.616  50.194  48.658  1.00  0.00     0.054 C 
BRANCH  36  37
HETATM   37  C   UNL     1      25.079  49.788  48.533  1.00  0.00     0.165 C 
BRANCH  37  38
HETATM   38  O   UNL     1      25.582  50.316  47.316  1.00  0.00    -0.401 OA
HETATM   39  H   UNL     1      25.576  51.290  47.397  1.00  0.00     0.209 HD
ENDBRANCH  37  38
ENDBRANCH  36  37
ENDBRANCH  35  36
ENDBRANCH   1  35
TORSDOF 12
ENDMDL
