MODEL 1
REMARK VINA RESULT:      -9.1      0.000      0.000
REMARK  6 active torsions:
REMARK  status: ('A' for Active; 'I' for Inactive)
REMARK    1  A    between atoms: C_7  and  S_8 
REMARK    2  A    between atoms: S_8  and  C_9 
REMARK    3  A    between atoms: C_9  and  C_10 
REMARK    4  A    between atoms: C_18  and  C_19 
REMARK    5  A    between atoms: C_26  and  C_27 
REMARK    6  A    between atoms: C_27  and  O_28 
ROOT
HETATM    1  C   UNL     1      26.861  49.857  48.417  1.00  0.00     0.070 C 
HETATM    2  C   UNL     1      26.035  48.756  49.035  1.00  0.00     0.037 C 
HETATM    3  N   UNL     1      26.757  47.722  49.626  1.00  0.00    -0.192 N 
HETATM    4  C   UNL     1      26.193  46.814  50.447  1.00  0.00     0.726 A 
HETATM    5  N   UNL     1      24.832  46.756  50.550  1.00  0.00    -0.082 N 
HETATM    6  N   UNL     1      24.447  45.868  51.490  1.00  0.00    -0.128 NA
HETATM    7  C   UNL     1      25.638  45.403  51.895  1.00  0.00     0.226 A 
HETATM    8  N   UNL     1      26.729  45.949  51.264  1.00  0.00    -0.035 NA
HETATM    9  C   UNL     1      23.919  47.630  49.804  1.00  0.00     0.203 C 
HETATM   10  C   UNL     1      24.679  48.753  49.103  1.00  0.00     0.070 C 
HETATM   11  H   UNL     1      27.771  47.811  49.644  1.00  0.00     0.184 HD
ENDROOT
BRANCH   7  12
HETATM   12  S   UNL     1      25.831  44.242  53.177  1.00  0.00    -0.083 SA
BRANCH  12  13
HETATM   13  C   UNL     1      26.816  45.183  54.374  1.00  0.00     0.123 C 
BRANCH  13  14
HETATM   14  C   UNL     1      28.161  44.529  54.595  1.00  0.00    -0.027 A 
HETATM   15  C   UNL     1      29.076  44.970  55.565  1.00  0.00     0.041 A 
HETATM   16 CL   UNL     1      28.725  46.289  56.627  1.00  0.00    -0.084 Cl
HETATM   17  C   UNL     1      30.324  44.351  55.701  1.00  0.00     0.024 A 
HETATM   18  C   UNL     1      30.679  43.292  54.867  1.00  0.00     0.002 A 
HETATM   19  C   UNL     1      29.788  42.847  53.895  1.00  0.00     0.001 A 
HETATM   20  C   UNL     1      28.541  43.460  53.760  1.00  0.00     0.009 A 
ENDBRANCH  13  14
ENDBRANCH  12  13
ENDBRANCH   7  12
BRANCH   9  21
HETATM   21  C   UNL     1      23.085  46.807  48.821  1.00  0.00    -0.026 A 
HETATM   22  C   UNL     1      23.573  45.574  48.356  1.00  0.00     0.033 A 
HETATM   23  C   UNL     1      22.811  44.799  47.480  1.00  0.00     0.034 A 
HETATM   24 CL   UNL     1      23.422  43.289  46.923  1.00  0.00    -0.084 Cl
HETATM   25  C   UNL     1      21.557  45.233  47.058  1.00  0.00     0.024 A 
HETATM   26  C   UNL     1      21.057  46.451  47.517  1.00  0.00     0.002 A 
HETATM   27  C   UNL     1      21.813  47.231  48.394  1.00  0.00     0.010 A 
ENDBRANCH   9  21
BRANCH  10  28
HETATM   28  C   UNL     1      23.799  49.825  48.593  1.00  0.00     0.293 C 
HETATM   29  O   UNL     1      23.627  50.022  47.398  1.00  0.00    -0.259 OA
BRANCH  28  30
HETATM   30  O   UNL     1      23.287  50.568  49.602  1.00  0.00    -0.323 OA
HETATM   31  C   UNL     1      21.876  50.773  49.514  1.00  0.00     0.213 C 
ENDBRANCH  28  30
ENDBRANCH  10  28
TORSDOF 6
ENDMDL
MODEL 2
REMARK VINA RESULT:      -8.6      4.551      5.998
REMARK  6 active torsions:
REMARK  status: ('A' for Active; 'I' for Inactive)
REMARK    1  A    between atoms: C_7  and  S_8 
REMARK    2  A    between atoms: S_8  and  C_9 
REMARK    3  A    between atoms: C_9  and  C_10 
REMARK    4  A    between atoms: C_18  and  C_19 
REMARK    5  A    between atoms: C_26  and  C_27 
REMARK    6  A    between atoms: C_27  and  O_28 
ROOT
HETATM    1  C   UNL     1      24.154  44.975  48.905  1.00  0.00     0.070 C 
HETATM    2  C   UNL     1      25.007  43.876  49.487  1.00  0.00     0.037 C 
HETATM    3  N   UNL     1      26.026  44.292  50.340  1.00  0.00    -0.192 N 
HETATM    4  C   UNL     1      26.696  43.445  51.145  1.00  0.00     0.726 A 
HETATM    5  N   UNL     1      26.537  42.098  50.984  1.00  0.00    -0.082 N 
HETATM    6  N   UNL     1      27.196  41.407  51.938  1.00  0.00    -0.128 NA
HETATM    7  C   UNL     1      27.758  42.409  52.628  1.00  0.00     0.226 A 
HETATM    8  N   UNL     1      27.486  43.672  52.159  1.00  0.00    -0.035 NA
HETATM    9  C   UNL     1      25.672  41.494  49.963  1.00  0.00     0.203 C 
HETATM   10  C   UNL     1      24.801  42.549  49.285  1.00  0.00     0.070 C 
HETATM   11  H   UNL     1      26.084  45.288  50.547  1.00  0.00     0.184 HD
ENDROOT
BRANCH   7  12
HETATM   12  S   UNL     1      28.712  42.171  54.064  1.00  0.00    -0.083 SA
BRANCH  12  13
HETATM   13  C   UNL     1      29.811  43.612  54.012  1.00  0.00     0.123 C 
BRANCH  13  14
HETATM   14  C   UNL     1      30.206  44.038  55.409  1.00  0.00    -0.027 A 
HETATM   15  C   UNL     1      29.717  45.205  56.019  1.00  0.00     0.041 A 
HETATM   16 CL   UNL     1      28.584  46.248  55.235  1.00  0.00    -0.084 Cl
HETATM   17  C   UNL     1      30.145  45.571  57.301  1.00  0.00     0.024 A 
HETATM   18  C   UNL     1      31.070  44.784  57.986  1.00  0.00     0.002 A 
HETATM   19  C   UNL     1      31.570  43.629  57.393  1.00  0.00     0.001 A 
HETATM   20  C   UNL     1      31.142  43.259  56.116  1.00  0.00     0.009 A 
ENDBRANCH  13  14
ENDBRANCH  12  13
ENDBRANCH   7  12
BRANCH   9  21
HETATM   21  C   UNL     1      26.512  40.714  48.952  1.00  0.00    -0.026 A 
HETATM   22  C   UNL     1      26.425  39.312  48.907  1.00  0.00     0.033 A 
HETATM   23  C   UNL     1      27.165  38.588  47.972  1.00  0.00     0.034 A 
HETATM   24 CL   UNL     1      27.044  36.872  47.929  1.00  0.00    -0.084 Cl
HETATM   25  C   UNL     1      27.996  39.243  47.067  1.00  0.00     0.024 A 
HETATM   26  C   UNL     1      28.087  40.634  47.093  1.00  0.00     0.002 A 
HETATM   27  C   UNL     1      27.349  41.365  48.026  1.00  0.00     0.010 A 
ENDBRANCH   9  21
BRANCH  10  28
HETATM   28  C   UNL     1      23.708  41.972  48.475  1.00  0.00     0.293 C 
HETATM   29  O   UNL     1      22.670  41.559  48.971  1.00  0.00    -0.259 OA
BRANCH  28  30
HETATM   30  O   UNL     1      24.042  41.908  47.165  1.00  0.00    -0.323 OA
HETATM   31  C   UNL     1      23.725  40.661  46.543  1.00  0.00     0.213 C 
ENDBRANCH  28  30
ENDBRANCH  10  28
TORSDOF 6
ENDMDL
MODEL 3
REMARK VINA RESULT:      -8.6      4.624      6.320
REMARK  6 active torsions:
REMARK  status: ('A' for Active; 'I' for Inactive)
REMARK    1  A    between atoms: C_7  and  S_8 
REMARK    2  A    between atoms: S_8  and  C_9 
REMARK    3  A    between atoms: C_9  and  C_10 
REMARK    4  A    between atoms: C_18  and  C_19 
REMARK    5  A    between atoms: C_26  and  C_27 
REMARK    6  A    between atoms: C_27  and  O_28 
ROOT
HETATM    1  C   UNL     1      28.401  38.352  48.624  1.00  0.00     0.070 C 
HETATM    2  C   UNL     1      27.849  39.621  49.225  1.00  0.00     0.037 C 
HETATM    3  N   UNL     1      27.856  39.680  50.617  1.00  0.00    -0.192 N 
HETATM    4  C   UNL     1      27.658  40.825  51.300  1.00  0.00     0.726 A 
HETATM    5  N   UNL     1      27.223  41.937  50.636  1.00  0.00    -0.082 N 
HETATM    6  N   UNL     1      27.182  43.011  51.450  1.00  0.00    -0.128 NA
HETATM    7  C   UNL     1      27.580  42.463  52.607  1.00  0.00     0.226 A 
HETATM    8  N   UNL     1      27.864  41.120  52.554  1.00  0.00    -0.035 NA
HETATM    9  C   UNL     1      26.941  41.969  49.196  1.00  0.00     0.203 C 
HETATM   10  C   UNL     1      27.426  40.694  48.510  1.00  0.00     0.070 C 
HETATM   11  H   UNL     1      28.275  38.898  51.115  1.00  0.00     0.184 HD
ENDROOT
BRANCH   7  12
HETATM   12  S   UNL     1      27.803  43.370  54.075  1.00  0.00    -0.083 SA
BRANCH  12  13
HETATM   13  C   UNL     1      29.572  43.761  53.995  1.00  0.00     0.123 C 
BRANCH  13  14
HETATM   14  C   UNL     1      30.117  44.073  55.371  1.00  0.00    -0.027 A 
HETATM   15  C   UNL     1      29.900  45.299  56.019  1.00  0.00     0.041 A 
HETATM   16 CL   UNL     1      28.952  46.560  55.311  1.00  0.00    -0.084 Cl
HETATM   17  C   UNL     1      30.460  45.548  57.278  1.00  0.00     0.024 A 
HETATM   18  C   UNL     1      31.249  44.582  57.902  1.00  0.00     0.002 A 
HETATM   19  C   UNL     1      31.480  43.364  57.269  1.00  0.00     0.001 A 
HETATM   20  C   UNL     1      30.920  43.112  56.016  1.00  0.00     0.009 A 
ENDBRANCH  13  14
ENDBRANCH  12  13
ENDBRANCH   7  12
BRANCH   9  21
HETATM   21  C   UNL     1      25.451  42.214  48.954  1.00  0.00    -0.026 A 
HETATM   22  C   UNL     1      24.974  43.529  48.820  1.00  0.00     0.033 A 
HETATM   23  C   UNL     1      23.621  43.767  48.572  1.00  0.00     0.034 A 
HETATM   24 CL   UNL     1      23.054  45.384  48.407  1.00  0.00    -0.084 Cl
HETATM   25  C   UNL     1      22.727  42.707  48.449  1.00  0.00     0.024 A 
HETATM   26  C   UNL     1      23.187  41.397  48.572  1.00  0.00     0.002 A 
HETATM   27  C   UNL     1      24.539  41.151  48.819  1.00  0.00     0.010 A 
ENDBRANCH   9  21
BRANCH  10  28
HETATM   28  C   UNL     1      27.446  40.795  47.035  1.00  0.00     0.293 C 
HETATM   29  O   UNL     1      26.582  40.292  46.331  1.00  0.00    -0.259 OA
BRANCH  28  30
HETATM   30  O   UNL     1      28.550  41.443  46.597  1.00  0.00    -0.323 OA
HETATM   31  C   UNL     1      28.886  41.164  45.236  1.00  0.00     0.213 C 
ENDBRANCH  28  30
ENDBRANCH  10  28
TORSDOF 6
ENDMDL
MODEL 4
REMARK VINA RESULT:      -8.2      4.519      6.680
REMARK  6 active torsions:
REMARK  status: ('A' for Active; 'I' for Inactive)
REMARK    1  A    between atoms: C_7  and  S_8 
REMARK    2  A    between atoms: S_8  and  C_9 
REMARK    3  A    between atoms: C_9  and  C_10 
REMARK    4  A    between atoms: C_18  and  C_19 
REMARK    5  A    between atoms: C_26  and  C_27 
REMARK    6  A    between atoms: C_27  and  O_28 
ROOT
HETATM    1  C   UNL     1      23.474  47.766  49.500  1.00  0.00     0.070 C 
HETATM    2  C   UNL     1      24.171  46.429  49.544  1.00  0.00     0.037 C 
HETATM    3  N   UNL     1      23.398  45.335  49.161  1.00  0.00    -0.192 N 
HETATM    4  C   UNL     1      23.928  44.128  48.885  1.00  0.00     0.726 A 
HETATM    5  N   UNL     1      25.238  43.884  49.188  1.00  0.00    -0.082 N 
HETATM    6  N   UNL     1      25.626  42.669  48.749  1.00  0.00    -0.128 NA
HETATM    7  C   UNL     1      24.482  42.221  48.212  1.00  0.00     0.226 A 
HETATM    8  N   UNL     1      23.416  43.083  48.293  1.00  0.00    -0.035 NA
HETATM    9  C   UNL     1      26.126  44.867  49.818  1.00  0.00     0.203 C 
HETATM   10  C   UNL     1      25.479  46.249  49.860  1.00  0.00     0.070 C 
HETATM   11  H   UNL     1      22.452  45.523  48.834  1.00  0.00     0.184 HD
ENDROOT
BRANCH   7  12
HETATM   12  S   UNL     1      24.338  40.690  47.397  1.00  0.00    -0.083 SA
BRANCH  12  13
HETATM   13  C   UNL     1      26.078  40.256  47.128  1.00  0.00     0.123 C 
BRANCH  13  14
HETATM   14  C   UNL     1      26.459  39.035  47.935  1.00  0.00    -0.027 A 
HETATM   15  C   UNL     1      27.412  39.067  48.967  1.00  0.00     0.041 A 
HETATM   16 CL   UNL     1      28.214  40.525  49.434  1.00  0.00    -0.084 Cl
HETATM   17  C   UNL     1      27.753  37.898  49.657  1.00  0.00     0.024 A 
HETATM   18  C   UNL     1      27.157  36.683  49.322  1.00  0.00     0.002 A 
HETATM   19  C   UNL     1      26.217  36.632  48.297  1.00  0.00     0.001 A 
HETATM   20  C   UNL     1      25.872  37.797  47.609  1.00  0.00     0.009 A 
ENDBRANCH  13  14
ENDBRANCH  12  13
ENDBRANCH   7  12
BRANCH   9  21
HETATM   21  C   UNL     1      26.540  44.391  51.211  1.00  0.00    -0.026 A 
HETATM   22  C   UNL     1      27.858  43.958  51.436  1.00  0.00     0.033 A 
HETATM   23  C   UNL     1      28.258  43.545  52.708  1.00  0.00     0.034 A 
HETATM   24 CL   UNL     1      29.877  43.021  52.968  1.00  0.00    -0.084 Cl
HETATM   25  C   UNL     1      27.360  43.561  53.772  1.00  0.00     0.024 A 
HETATM   26  C   UNL     1      26.051  43.996  53.566  1.00  0.00     0.002 A 
HETATM   27  C   UNL     1      25.645  44.411  52.296  1.00  0.00     0.010 A 
ENDBRANCH   9  21
BRANCH  10  28
HETATM   28  C   UNL     1      26.428  47.330  50.200  1.00  0.00     0.293 C 
HETATM   29  O   UNL     1      26.446  47.867  51.299  1.00  0.00    -0.259 OA
BRANCH  28  30
HETATM   30  O   UNL     1      27.197  47.667  49.139  1.00  0.00    -0.323 OA
HETATM   31  C   UNL     1      27.240  49.071  48.876  1.00  0.00     0.213 C 
ENDBRANCH  28  30
ENDBRANCH  10  28
TORSDOF 6
ENDMDL
MODEL 5
REMARK VINA RESULT:      -8.2      4.230      6.625
REMARK  6 active torsions:
REMARK  status: ('A' for Active; 'I' for Inactive)
REMARK    1  A    between atoms: C_7  and  S_8 
REMARK    2  A    between atoms: S_8  and  C_9 
REMARK    3  A    between atoms: C_9  and  C_10 
REMARK    4  A    between atoms: C_18  and  C_19 
REMARK    5  A    between atoms: C_26  and  C_27 
REMARK    6  A    between atoms: C_27  and  O_28 
ROOT
HETATM    1  C   UNL     1      23.460  47.052  49.168  1.00  0.00     0.070 C 
HETATM    2  C   UNL     1      24.372  45.876  49.413  1.00  0.00     0.037 C 
HETATM    3  N   UNL     1      23.876  44.637  49.015  1.00  0.00    -0.192 N 
HETATM    4  C   UNL     1      24.651  43.539  48.911  1.00  0.00     0.726 A 
HETATM    5  N   UNL     1      25.923  43.565  49.409  1.00  0.00    -0.082 N 
HETATM    6  N   UNL     1      26.586  42.425  49.125  1.00  0.00    -0.128 NA
HETATM    7  C   UNL     1      25.635  41.740  48.473  1.00  0.00     0.226 A 
HETATM    8  N   UNL     1      24.430  42.387  48.339  1.00  0.00    -0.035 NA
HETATM    9  C   UNL     1      26.515  44.732  50.075  1.00  0.00     0.203 C 
HETATM   10  C   UNL     1      25.629  45.965  49.918  1.00  0.00     0.070 C 
HETATM   11  H   UNL     1      22.971  44.624  48.549  1.00  0.00     0.184 HD
ENDROOT
BRANCH   7  12
HETATM   12  S   UNL     1      25.893  40.169  47.770  1.00  0.00    -0.083 SA
BRANCH  12  13
HETATM   13  C   UNL     1      27.682  40.192  47.478  1.00  0.00     0.123 C 
BRANCH  13  14
HETATM   14  C   UNL     1      28.417  39.460  48.578  1.00  0.00    -0.027 A 
HETATM   15  C   UNL     1      28.982  38.186  48.404  1.00  0.00     0.041 A 
HETATM   16 CL   UNL     1      28.919  37.351  46.892  1.00  0.00    -0.084 Cl
HETATM   17  C   UNL     1      29.619  37.538  49.469  1.00  0.00     0.024 A 
HETATM   18  C   UNL     1      29.692  38.146  50.721  1.00  0.00     0.002 A 
HETATM   19  C   UNL     1      29.131  39.405  50.913  1.00  0.00     0.001 A 
HETATM   20  C   UNL     1      28.498  40.056  49.852  1.00  0.00     0.009 A 
ENDBRANCH  13  14
ENDBRANCH  12  13
ENDBRANCH   7  12
BRANCH   9  21
HETATM   21  C   UNL     1      26.796  44.416  51.544  1.00  0.00    -0.026 A 
HETATM   22  C   UNL     1      28.081  44.003  51.935  1.00  0.00     0.033 A 
HETATM   23  C   UNL     1      28.359  43.737  53.277  1.00  0.00     0.034 A 
HETATM   24 CL   UNL     1      29.940  43.235  53.739  1.00  0.00    -0.084 Cl
HETATM   25  C   UNL     1      27.371  43.882  54.247  1.00  0.00     0.024 A 
HETATM   26  C   UNL     1      26.094  44.299  53.876  1.00  0.00     0.002 A 
HETATM   27  C   UNL     1      25.808  44.567  52.535  1.00  0.00     0.010 A 
ENDBRANCH   9  21
BRANCH  10  28
HETATM   28  C   UNL     1      26.306  47.223  50.298  1.00  0.00     0.293 C 
HETATM   29  O   UNL     1      26.075  47.801  51.351  1.00  0.00    -0.259 OA
BRANCH  28  30
HETATM   30  O   UNL     1      27.135  47.656  49.320  1.00  0.00    -0.323 OA
HETATM   31  C   UNL     1      26.922  49.017  48.938  1.00  0.00     0.213 C 
ENDBRANCH  28  30
ENDBRANCH  10  28
TORSDOF 6
ENDMDL
MODEL 6
REMARK VINA RESULT:      -8.1      4.028      6.975
REMARK  6 active torsions:
REMARK  status: ('A' for Active; 'I' for Inactive)
REMARK    1  A    between atoms: C_7  and  S_8 
REMARK    2  A    between atoms: S_8  and  C_9 
REMARK    3  A    between atoms: C_9  and  C_10 
REMARK    4  A    between atoms: C_18  and  C_19 
REMARK    5  A    between atoms: C_26  and  C_27 
REMARK    6  A    between atoms: C_27  and  O_28 
ROOT
HETATM    1  C   UNL     1      23.423  48.141  49.544  1.00  0.00     0.070 C 
HETATM    2  C   UNL     1      24.011  46.752  49.577  1.00  0.00     0.037 C 
HETATM    3  N   UNL     1      23.132  45.720  49.258  1.00  0.00    -0.192 N 
HETATM    4  C   UNL     1      23.547  44.469  48.978  1.00  0.00     0.726 A 
HETATM    5  N   UNL     1      24.848  44.124  49.215  1.00  0.00    -0.082 N 
HETATM    6  N   UNL     1      25.112  42.874  48.779  1.00  0.00    -0.128 NA
HETATM    7  C   UNL     1      23.908  42.512  48.314  1.00  0.00     0.226 A 
HETATM    8  N   UNL     1      22.921  43.460  48.436  1.00  0.00    -0.035 NA
HETATM    9  C   UNL     1      25.847  45.041  49.775  1.00  0.00     0.203 C 
HETATM   10  C   UNL     1      25.316  46.472  49.824  1.00  0.00     0.070 C 
HETATM   11  H   UNL     1      22.188  45.979  48.980  1.00  0.00     0.184 HD
ENDROOT
BRANCH   7  12
HETATM   12  S   UNL     1      23.595  40.986  47.539  1.00  0.00    -0.083 SA
BRANCH  12  13
HETATM   13  C   UNL     1      25.193  40.149  47.730  1.00  0.00     0.123 C 
BRANCH  13  14
HETATM   14  C   UNL     1      26.091  40.430  46.546  1.00  0.00    -0.027 A 
HETATM   15  C   UNL     1      27.460  40.716  46.676  1.00  0.00     0.041 A 
HETATM   16 CL   UNL     1      28.254  40.736  48.212  1.00  0.00    -0.084 Cl
HETATM   17  C   UNL     1      28.238  41.006  45.549  1.00  0.00     0.024 A 
HETATM   18  C   UNL     1      27.659  41.023  44.280  1.00  0.00     0.002 A 
HETATM   19  C   UNL     1      26.303  40.750  44.134  1.00  0.00     0.001 A 
HETATM   20  C   UNL     1      25.526  40.457  45.256  1.00  0.00     0.009 A 
ENDBRANCH  13  14
ENDBRANCH  12  13
ENDBRANCH   7  12
BRANCH   9  21
HETATM   21  C   UNL     1      26.298  44.554  51.152  1.00  0.00    -0.026 A 
HETATM   22  C   UNL     1      27.620  44.112  51.337  1.00  0.00     0.033 A 
HETATM   23  C   UNL     1      28.054  43.690  52.594  1.00  0.00     0.034 A 
HETATM   24 CL   UNL     1      29.676  43.155  52.803  1.00  0.00    -0.084 Cl
HETATM   25  C   UNL     1      27.187  43.706  53.684  1.00  0.00     0.024 A 
HETATM   26  C   UNL     1      25.876  44.149  53.519  1.00  0.00     0.002 A 
HETATM   27  C   UNL     1      25.435  44.574  52.263  1.00  0.00     0.010 A 
ENDBRANCH   9  21
BRANCH  10  28
HETATM   28  C   UNL     1      26.366  47.476  50.090  1.00  0.00     0.293 C 
HETATM   29  O   UNL     1      26.556  47.950  51.202  1.00  0.00    -0.259 OA
BRANCH  28  30
HETATM   30  O   UNL     1      27.015  47.828  48.956  1.00  0.00    -0.323 OA
HETATM   31  C   UNL     1      27.623  49.121  49.011  1.00  0.00     0.213 C 
ENDBRANCH  28  30
ENDBRANCH  10  28
TORSDOF 6
ENDMDL
MODEL 7
REMARK VINA RESULT:      -8.1      2.765      3.906
REMARK  6 active torsions:
REMARK  status: ('A' for Active; 'I' for Inactive)
REMARK    1  A    between atoms: C_7  and  S_8 
REMARK    2  A    between atoms: S_8  and  C_9 
REMARK    3  A    between atoms: C_9  and  C_10 
REMARK    4  A    between atoms: C_18  and  C_19 
REMARK    5  A    between atoms: C_26  and  C_27 
REMARK    6  A    between atoms: C_27  and  O_28 
ROOT
HETATM    1  C   UNL     1      22.903  47.748  48.243  1.00  0.00     0.070 C 
HETATM    2  C   UNL     1      23.306  46.565  49.088  1.00  0.00     0.037 C 
HETATM    3  N   UNL     1      24.334  46.799  49.999  1.00  0.00    -0.192 N 
HETATM    4  C   UNL     1      24.628  45.949  51.002  1.00  0.00     0.726 A 
HETATM    5  N   UNL     1      24.056  44.709  51.021  1.00  0.00    -0.082 N 
HETATM    6  N   UNL     1      24.378  44.035  52.145  1.00  0.00    -0.128 NA
HETATM    7  C   UNL     1      25.177  44.927  52.748  1.00  0.00     0.226 A 
HETATM    8  N   UNL     1      25.366  46.104  52.067  1.00  0.00    -0.035 NA
HETATM    9  C   UNL     1      23.126  44.223  49.994  1.00  0.00     0.203 C 
HETATM   10  C   UNL     1      22.699  45.351  49.058  1.00  0.00     0.070 C 
HETATM   11  H   UNL     1      24.694  47.749  50.062  1.00  0.00     0.184 HD
ENDROOT
BRANCH   7  12
HETATM   12  S   UNL     1      25.885  44.674  54.318  1.00  0.00    -0.083 SA
BRANCH  12  13
HETATM   13  C   UNL     1      27.475  45.528  54.140  1.00  0.00     0.123 C 
BRANCH  13  14
HETATM   14  C   UNL     1      28.614  44.535  54.069  1.00  0.00    -0.027 A 
HETATM   15  C   UNL     1      28.893  43.773  52.923  1.00  0.00     0.041 A 
HETATM   16 CL   UNL     1      27.974  43.930  51.467  1.00  0.00    -0.084 Cl
HETATM   17  C   UNL     1      29.937  42.841  52.925  1.00  0.00     0.024 A 
HETATM   18  C   UNL     1      30.710  42.651  54.070  1.00  0.00     0.002 A 
HETATM   19  C   UNL     1      30.441  43.392  55.217  1.00  0.00     0.001 A 
HETATM   20  C   UNL     1      29.403  44.325  55.217  1.00  0.00     0.009 A 
ENDBRANCH  13  14
ENDBRANCH  12  13
ENDBRANCH   7  12
BRANCH   9  21
HETATM   21  C   UNL     1      23.747  43.053  49.229  1.00  0.00    -0.026 A 
HETATM   22  C   UNL     1      25.145  42.911  49.189  1.00  0.00     0.033 A 
HETATM   23  C   UNL     1      25.725  41.834  48.518  1.00  0.00     0.034 A 
HETATM   24 CL   UNL     1      27.438  41.672  48.481  1.00  0.00    -0.084 Cl
HETATM   25  C   UNL     1      24.930  40.883  47.883  1.00  0.00     0.024 A 
HETATM   26  C   UNL     1      23.541  41.007  47.921  1.00  0.00     0.002 A 
HETATM   27  C   UNL     1      22.954  42.082  48.592  1.00  0.00     0.010 A 
ENDBRANCH   9  21
BRANCH  10  28
HETATM   28  C   UNL     1      21.547  44.997  48.203  1.00  0.00     0.293 C 
HETATM   29  O   UNL     1      20.447  44.726  48.663  1.00  0.00    -0.259 OA
BRANCH  28  30
HETATM   30  O   UNL     1      21.894  44.954  46.896  1.00  0.00    -0.323 OA
HETATM   31  C   UNL     1      20.797  45.132  45.997  1.00  0.00     0.213 C 
ENDBRANCH  28  30
ENDBRANCH  10  28
TORSDOF 6
ENDMDL
MODEL 8
REMARK VINA RESULT:      -8.0      3.044      4.810
REMARK  6 active torsions:
REMARK  status: ('A' for Active; 'I' for Inactive)
REMARK    1  A    between atoms: C_7  and  S_8 
REMARK    2  A    between atoms: S_8  and  C_9 
REMARK    3  A    between atoms: C_9  and  C_10 
REMARK    4  A    between atoms: C_18  and  C_19 
REMARK    5  A    between atoms: C_26  and  C_27 
REMARK    6  A    between atoms: C_27  and  O_28 
ROOT
HETATM    1  C   UNL     1      21.273  43.348  46.709  1.00  0.00     0.070 C 
HETATM    2  C   UNL     1      21.723  44.590  47.437  1.00  0.00     0.037 C 
HETATM    3  N   UNL     1      22.457  44.373  48.600  1.00  0.00    -0.192 N 
HETATM    4  C   UNL     1      23.156  45.347  49.215  1.00  0.00     0.726 A 
HETATM    5  N   UNL     1      22.984  46.645  48.825  1.00  0.00    -0.082 N 
HETATM    6  N   UNL     1      23.836  47.469  49.470  1.00  0.00    -0.128 NA
HETATM    7  C   UNL     1      24.477  46.595  50.261  1.00  0.00     0.226 A 
HETATM    8  N   UNL     1      24.073  45.288  50.142  1.00  0.00    -0.035 NA
HETATM    9  C   UNL     1      22.061  47.063  47.764  1.00  0.00     0.203 C 
HETATM   10  C   UNL     1      21.516  45.859  47.000  1.00  0.00     0.070 C 
HETATM   11  H   UNL     1      22.677  43.408  48.840  1.00  0.00     0.184 HD
ENDROOT
BRANCH   7  12
HETATM   12  S   UNL     1      25.782  47.039  51.323  1.00  0.00    -0.083 SA
BRANCH  12  13
HETATM   13  C   UNL     1      25.821  45.626  52.459  1.00  0.00     0.123 C 
BRANCH  13  14
HETATM   14  C   UNL     1      26.816  45.860  53.574  1.00  0.00    -0.027 A 
HETATM   15  C   UNL     1      27.563  44.826  54.162  1.00  0.00     0.041 A 
HETATM   16 CL   UNL     1      27.437  43.185  53.633  1.00  0.00    -0.084 Cl
HETATM   17  C   UNL     1      28.443  45.094  55.216  1.00  0.00     0.024 A 
HETATM   18  C   UNL     1      28.583  46.393  55.705  1.00  0.00     0.002 A 
HETATM   19  C   UNL     1      27.844  47.428  55.139  1.00  0.00     0.001 A 
HETATM   20  C   UNL     1      26.968  47.164  54.084  1.00  0.00     0.009 A 
ENDBRANCH  13  14
ENDBRANCH  12  13
ENDBRANCH   7  12
BRANCH   9  21
HETATM   21  C   UNL     1      20.939  47.922  48.347  1.00  0.00    -0.026 A 
HETATM   22  C   UNL     1      20.961  49.316  48.166  1.00  0.00     0.033 A 
HETATM   23  C   UNL     1      19.930  50.110  48.670  1.00  0.00     0.034 A 
HETATM   24 CL   UNL     1      19.972  51.815  48.436  1.00  0.00    -0.084 Cl
HETATM   25  C   UNL     1      18.863  49.534  49.354  1.00  0.00     0.024 A 
HETATM   26  C   UNL     1      18.822  48.152  49.535  1.00  0.00     0.002 A 
HETATM   27  C   UNL     1      19.850  47.351  49.033  1.00  0.00     0.010 A 
ENDBRANCH   9  21
BRANCH  10  28
HETATM   28  C   UNL     1      20.830  46.225  45.744  1.00  0.00     0.293 C 
HETATM   29  O   UNL     1      19.633  46.471  45.697  1.00  0.00    -0.259 OA
BRANCH  28  30
HETATM   30  O   UNL     1      21.674  46.184  44.687  1.00  0.00    -0.323 OA
HETATM   31  C   UNL     1      21.130  45.538  43.534  1.00  0.00     0.213 C 
ENDBRANCH  28  30
ENDBRANCH  10  28
TORSDOF 6
ENDMDL
MODEL 9
REMARK VINA RESULT:      -8.0      4.934      7.610
REMARK  6 active torsions:
REMARK  status: ('A' for Active; 'I' for Inactive)
REMARK    1  A    between atoms: C_7  and  S_8 
REMARK    2  A    between atoms: S_8  and  C_9 
REMARK    3  A    between atoms: C_9  and  C_10 
REMARK    4  A    between atoms: C_18  and  C_19 
REMARK    5  A    between atoms: C_26  and  C_27 
REMARK    6  A    between atoms: C_27  and  O_28 
ROOT
HETATM    1  C   UNL     1      23.492  46.937  49.161  1.00  0.00     0.070 C 
HETATM    2  C   UNL     1      24.398  45.752  49.383  1.00  0.00     0.037 C 
HETATM    3  N   UNL     1      23.859  44.511  49.050  1.00  0.00    -0.192 N 
HETATM    4  C   UNL     1      24.608  43.398  48.930  1.00  0.00     0.726 A 
HETATM    5  N   UNL     1      25.908  43.414  49.351  1.00  0.00    -0.082 N 
HETATM    6  N   UNL     1      26.534  42.255  49.059  1.00  0.00    -0.128 NA
HETATM    7  C   UNL     1      25.534  41.571  48.484  1.00  0.00     0.226 A 
HETATM    8  N   UNL     1      24.335  42.235  48.404  1.00  0.00    -0.035 NA
HETATM    9  C   UNL     1      26.558  44.587  49.947  1.00  0.00     0.203 C 
HETATM   10  C   UNL     1      25.684  45.832  49.809  1.00  0.00     0.070 C 
HETATM   11  H   UNL     1      22.928  44.502  48.638  1.00  0.00     0.184 HD
ENDROOT
BRANCH   7  12
HETATM   12  S   UNL     1      25.725  39.977  47.810  1.00  0.00    -0.083 SA
BRANCH  12  13
HETATM   13  C   UNL     1      27.530  39.841  47.704  1.00  0.00     0.123 C 
BRANCH  13  14
HETATM   14  C   UNL     1      27.974  39.681  46.267  1.00  0.00    -0.027 A 
HETATM   15  C   UNL     1      28.211  38.430  45.675  1.00  0.00     0.041 A 
HETATM   16 CL   UNL     1      27.979  36.947  46.533  1.00  0.00    -0.084 Cl
HETATM   17  C   UNL     1      28.657  38.342  44.351  1.00  0.00     0.024 A 
HETATM   18  C   UNL     1      28.881  39.498  43.605  1.00  0.00     0.002 A 
HETATM   19  C   UNL     1      28.658  40.746  44.179  1.00  0.00     0.001 A 
HETATM   20  C   UNL     1      28.209  40.837  45.498  1.00  0.00     0.009 A 
ENDBRANCH  13  14
ENDBRANCH  12  13
ENDBRANCH   7  12
BRANCH   9  21
HETATM   21  C   UNL     1      26.920  44.305  51.406  1.00  0.00    -0.026 A 
HETATM   22  C   UNL     1      25.920  44.342  52.392  1.00  0.00     0.033 A 
HETATM   23  C   UNL     1      26.231  44.060  53.723  1.00  0.00     0.034 A 
HETATM   24 CL   UNL     1      24.993  44.106  54.919  1.00  0.00    -0.084 Cl
HETATM   25  C   UNL     1      27.533  43.735  54.093  1.00  0.00     0.024 A 
HETATM   26  C   UNL     1      28.535  43.687  53.124  1.00  0.00     0.002 A 
HETATM   27  C   UNL     1      28.231  43.967  51.790  1.00  0.00     0.010 A 
ENDBRANCH   9  21
BRANCH  10  28
HETATM   28  C   UNL     1      26.403  47.087  50.115  1.00  0.00     0.293 C 
HETATM   29  O   UNL     1      26.184  47.740  51.124  1.00  0.00    -0.259 OA
BRANCH  28  30
HETATM   30  O   UNL     1      27.255  47.425  49.119  1.00  0.00    -0.323 OA
HETATM   31  C   UNL     1      27.623  48.806  49.113  1.00  0.00     0.213 C 
ENDBRANCH  28  30
ENDBRANCH  10  28
TORSDOF 6
ENDMDL
MODEL 10
REMARK VINA RESULT:      -7.8      9.925     13.825
REMARK  6 active torsions:
REMARK  status: ('A' for Active; 'I' for Inactive)
REMARK    1  A    between atoms: C_7  and  S_8 
REMARK    2  A    between atoms: S_8  and  C_9 
REMARK    3  A    between atoms: C_9  and  C_10 
REMARK    4  A    between atoms: C_18  and  C_19 
REMARK    5  A    between atoms: C_26  and  C_27 
REMARK    6  A    between atoms: C_27  and  O_28 
ROOT
HETATM    1  C   UNL     1      14.567  52.998  44.828  1.00  0.00     0.070 C 
HETATM    2  C   UNL     1      14.870  52.954  46.305  1.00  0.00     0.037 C 
HETATM    3  N   UNL     1      14.604  54.126  47.009  1.00  0.00    -0.192 N 
HETATM    4  C   UNL     1      14.560  54.175  48.355  1.00  0.00     0.726 A 
HETATM    5  N   UNL     1      14.995  53.102  49.081  1.00  0.00    -0.082 N 
HETATM    6  N   UNL     1      14.780  53.282  50.400  1.00  0.00    -0.128 NA
HETATM    7  C   UNL     1      14.235  54.507  50.400  1.00  0.00     0.226 A 
HETATM    8  N   UNL     1      14.101  55.091  49.163  1.00  0.00    -0.035 NA
HETATM    9  C   UNL     1      15.529  51.874  48.481  1.00  0.00     0.203 C 
HETATM   10  C   UNL     1      15.307  51.855  46.971  1.00  0.00     0.070 C 
HETATM   11  H   UNL     1      14.183  54.895  46.493  1.00  0.00     0.184 HD
ENDROOT
BRANCH   7  12
HETATM   12  S   UNL     1      13.659  55.304  51.836  1.00  0.00    -0.083 SA
BRANCH  12  13
HETATM   13  C   UNL     1      15.213  55.832  52.605  1.00  0.00     0.123 C 
BRANCH  13  14
HETATM   14  C   UNL     1      15.088  57.232  53.164  1.00  0.00    -0.027 A 
HETATM   15  C   UNL     1      15.146  58.383  52.362  1.00  0.00     0.041 A 
HETATM   16 CL   UNL     1      15.330  58.300  50.645  1.00  0.00    -0.084 Cl
HETATM   17  C   UNL     1      15.061  59.657  52.937  1.00  0.00     0.024 A 
HETATM   18  C   UNL     1      14.928  59.798  54.318  1.00  0.00     0.002 A 
HETATM   19  C   UNL     1      14.878  58.668  55.128  1.00  0.00     0.001 A 
HETATM   20  C   UNL     1      14.958  57.397  54.557  1.00  0.00     0.009 A 
ENDBRANCH  13  14
ENDBRANCH  12  13
ENDBRANCH   7  12
BRANCH   9  21
HETATM   21  C   UNL     1      17.006  51.708  48.841  1.00  0.00    -0.026 A 
HETATM   22  C   UNL     1      17.395  50.705  49.745  1.00  0.00     0.033 A 
HETATM   23  C   UNL     1      18.742  50.524  50.062  1.00  0.00     0.034 A 
HETATM   24 CL   UNL     1      19.202  49.288  51.168  1.00  0.00    -0.084 Cl
HETATM   25  C   UNL     1      19.719  51.332  49.486  1.00  0.00     0.024 A 
HETATM   26  C   UNL     1      19.349  52.326  48.582  1.00  0.00     0.002 A 
HETATM   27  C   UNL     1      18.004  52.512  48.258  1.00  0.00     0.010 A 
ENDBRANCH   9  21
BRANCH  10  28
HETATM   28  C   UNL     1      15.545  50.530  46.362  1.00  0.00     0.293 C 
HETATM   29  O   UNL     1      14.776  49.590  46.508  1.00  0.00    -0.259 OA
BRANCH  28  30
HETATM   30  O   UNL     1      16.726  50.493  45.701  1.00  0.00    -0.323 OA
HETATM   31  C   UNL     1      17.537  49.361  46.023  1.00  0.00     0.213 C 
ENDBRANCH  28  30
ENDBRANCH  10  28
TORSDOF 6
ENDMDL
