MODEL 1
REMARK VINA RESULT:      -8.6      0.000      0.000
REMARK  5 active torsions:
REMARK  status: ('A' for Active; 'I' for Inactive)
REMARK    1  A    between atoms: C_9  and  C_10 
REMARK    2  A    between atoms: C_10  and  N_11 
REMARK    3  A    between atoms: N_11  and  C_12 
REMARK    4  A    between atoms: C_13  and  O_14 
REMARK    5  A    between atoms: C_16  and  O_17 
ROOT
HETATM    1  C   UNL     1      32.104  43.364  57.127  1.00  0.00     0.048 C 
HETATM    2  C   UNL     1      30.972  43.990  56.365  1.00  0.00    -0.061 A 
HETATM    3  C   UNL     1      30.469  43.381  55.205  1.00  0.00     0.020 A 
HETATM    4  C   UNL     1      29.393  43.950  54.517  1.00  0.00    -0.008 A 
HETATM    5  C   UNL     1      28.814  45.127  55.001  1.00  0.00     0.045 A 
HETATM    6  N   UNL     1      27.728  45.685  54.318  1.00  0.00    -0.322 N 
HETATM    7  C   UNL     1      27.179  45.143  53.185  1.00  0.00     0.253 A 
HETATM    8  O   UNL     1      26.195  45.656  52.661  1.00  0.00    -0.268 OA
HETATM    9  C   UNL     1      27.819  43.906  52.645  1.00  0.00     0.024 A 
HETATM   10  C   UNL     1      28.852  43.343  53.301  1.00  0.00     0.027 A 
HETATM   11  C   UNL     1      29.295  45.736  56.158  1.00  0.00     0.031 A 
HETATM   12  C   UNL     1      30.370  45.163  56.839  1.00  0.00     0.009 A 
HETATM   13  H   UNL     1      27.285  46.525  54.663  1.00  0.00     0.169 HD
ENDROOT
BRANCH   9  14
HETATM   14  C   UNL     1      27.211  43.313  51.408  1.00  0.00     0.136 C 
BRANCH  14  15
HETATM   15  N   UNL     1      25.888  42.786  51.746  1.00  0.00    -0.286 NA
HETATM   16  H   UNL     1      25.462  43.314  52.510  1.00  0.00     0.128 HD
BRANCH  15  17
HETATM   17  C   UNL     1      24.933  42.638  50.721  1.00  0.00     0.042 A 
HETATM   18  C   UNL     1      23.899  43.591  50.655  1.00  0.00     0.089 A 
HETATM   19  C   UNL     1      22.919  43.573  49.669  1.00  0.00     0.074 A 
HETATM   20  C   UNL     1      22.951  42.551  48.731  1.00  0.00     0.068 A 
HETATM   21  C   UNL     1      23.935  41.569  48.782  1.00  0.00     0.038 A 
HETATM   22  C   UNL     1      24.919  41.607  49.778  1.00  0.00     0.029 A 
BRANCH  18  23
HETATM   23  O   UNL     1      23.823  44.552  51.630  1.00  0.00    -0.359 OA
HETATM   24  H   UNL     1      23.792  45.389  51.124  1.00  0.00     0.218 HD
ENDBRANCH  18  23
BRANCH  20  25
HETATM   25  O   UNL     1      22.018  42.465  47.740  1.00  0.00    -0.361 OA
HETATM   26  H   UNL     1      21.583  41.599  47.804  1.00  0.00     0.217 HD
ENDBRANCH  20  25
ENDBRANCH  15  17
ENDBRANCH  14  15
ENDBRANCH   9  14
TORSDOF 5
ENDMDL
MODEL 2
REMARK VINA RESULT:      -8.5      3.744      4.438
REMARK  5 active torsions:
REMARK  status: ('A' for Active; 'I' for Inactive)
REMARK    1  A    between atoms: C_9  and  C_10 
REMARK    2  A    between atoms: C_10  and  N_11 
REMARK    3  A    between atoms: N_11  and  C_12 
REMARK    4  A    between atoms: C_13  and  O_14 
REMARK    5  A    between atoms: C_16  and  O_17 
ROOT
HETATM    1  C   UNL     1      31.010  43.210  55.905  1.00  0.00     0.048 C 
HETATM    2  C   UNL     1      29.999  44.302  55.709  1.00  0.00    -0.061 A 
HETATM    3  C   UNL     1      29.151  44.298  54.591  1.00  0.00     0.020 A 
HETATM    4  C   UNL     1      28.188  45.300  54.429  1.00  0.00    -0.008 A 
HETATM    5  C   UNL     1      28.069  46.300  55.399  1.00  0.00     0.045 A 
HETATM    6  N   UNL     1      27.095  47.291  55.241  1.00  0.00    -0.322 N 
HETATM    7  C   UNL     1      26.228  47.347  54.182  1.00  0.00     0.253 A 
HETATM    8  O   UNL     1      25.363  48.216  54.127  1.00  0.00    -0.268 OA
HETATM    9  C   UNL     1      26.377  46.301  53.126  1.00  0.00     0.024 A 
HETATM   10  C   UNL     1      27.296  45.327  53.271  1.00  0.00     0.027 A 
HETATM   11  C   UNL     1      28.896  46.309  56.520  1.00  0.00     0.031 A 
HETATM   12  C   UNL     1      29.856  45.308  56.674  1.00  0.00     0.009 A 
HETATM   13  H   UNL     1      26.982  48.012  55.940  1.00  0.00     0.169 HD
ENDROOT
BRANCH   9  14
HETATM   14  C   UNL     1      25.422  46.363  51.970  1.00  0.00     0.136 C 
BRANCH  14  15
HETATM   15  N   UNL     1      26.139  46.871  50.800  1.00  0.00    -0.286 NA
HETATM   16  H   UNL     1      26.523  46.108  50.240  1.00  0.00     0.128 HD
BRANCH  15  17
HETATM   17  C   UNL     1      25.482  47.770  49.937  1.00  0.00     0.042 A 
HETATM   18  C   UNL     1      26.274  48.712  49.254  1.00  0.00     0.089 A 
HETATM   19  C   UNL     1      25.748  49.625  48.349  1.00  0.00     0.074 A 
HETATM   20  C   UNL     1      24.376  49.623  48.137  1.00  0.00     0.068 A 
HETATM   21  C   UNL     1      23.553  48.733  48.818  1.00  0.00     0.038 A 
HETATM   22  C   UNL     1      24.102  47.814  49.722  1.00  0.00     0.029 A 
BRANCH  18  23
HETATM   23  O   UNL     1      27.618  48.765  49.526  1.00  0.00    -0.359 OA
HETATM   24  H   UNL     1      27.927  49.530  48.998  1.00  0.00     0.218 HD
ENDBRANCH  18  23
BRANCH  20  25
HETATM   25  O   UNL     1      23.789  50.496  47.270  1.00  0.00    -0.361 OA
HETATM   26  H   UNL     1      24.200  50.383  46.397  1.00  0.00     0.217 HD
ENDBRANCH  20  25
ENDBRANCH  15  17
ENDBRANCH  14  15
ENDBRANCH   9  14
TORSDOF 5
ENDMDL
MODEL 3
REMARK VINA RESULT:      -8.4      3.522      4.509
REMARK  5 active torsions:
REMARK  status: ('A' for Active; 'I' for Inactive)
REMARK    1  A    between atoms: C_9  and  C_10 
REMARK    2  A    between atoms: C_10  and  N_11 
REMARK    3  A    between atoms: N_11  and  C_12 
REMARK    4  A    between atoms: C_13  and  O_14 
REMARK    5  A    between atoms: C_16  and  O_17 
ROOT
HETATM    1  C   UNL     1      30.270  45.109  56.678  1.00  0.00     0.048 C 
HETATM    2  C   UNL     1      29.739  44.534  55.397  1.00  0.00    -0.061 A 
HETATM    3  C   UNL     1      28.595  45.075  54.791  1.00  0.00     0.020 A 
HETATM    4  C   UNL     1      28.123  44.558  53.581  1.00  0.00    -0.008 A 
HETATM    5  C   UNL     1      28.809  43.502  52.973  1.00  0.00     0.045 A 
HETATM    6  N   UNL     1      28.341  42.997  51.754  1.00  0.00    -0.322 N 
HETATM    7  C   UNL     1      27.238  43.479  51.101  1.00  0.00     0.253 A 
HETATM    8  O   UNL     1      26.909  43.024  50.010  1.00  0.00    -0.268 OA
HETATM    9  C   UNL     1      26.484  44.584  51.766  1.00  0.00     0.024 A 
HETATM   10  C   UNL     1      26.930  45.096  52.930  1.00  0.00     0.027 A 
HETATM   11  C   UNL     1      29.952  42.962  53.557  1.00  0.00     0.031 A 
HETATM   12  C   UNL     1      30.417  43.482  54.765  1.00  0.00     0.009 A 
HETATM   13  H   UNL     1      28.834  42.246  51.291  1.00  0.00     0.169 HD
ENDROOT
BRANCH   9  14
HETATM   14  C   UNL     1      25.279  45.113  51.044  1.00  0.00     0.136 C 
BRANCH  14  15
HETATM   15  N   UNL     1      25.134  46.534  51.360  1.00  0.00    -0.286 NA
HETATM   16  H   UNL     1      25.639  46.778  52.214  1.00  0.00     0.128 HD
BRANCH  15  17
HETATM   17  C   UNL     1      25.449  47.486  50.371  1.00  0.00     0.042 A 
HETATM   18  C   UNL     1      24.377  48.088  49.685  1.00  0.00     0.089 A 
HETATM   19  C   UNL     1      24.558  49.067  48.715  1.00  0.00     0.074 A 
HETATM   20  C   UNL     1      25.855  49.440  48.392  1.00  0.00     0.068 A 
HETATM   21  C   UNL     1      26.943  48.844  49.020  1.00  0.00     0.038 A 
HETATM   22  C   UNL     1      26.742  47.864  50.001  1.00  0.00     0.029 A 
BRANCH  18  23
HETATM   23  O   UNL     1      23.101  47.661  49.948  1.00  0.00    -0.359 OA
HETATM   24  H   UNL     1      22.874  48.121  50.782  1.00  0.00     0.218 HD
ENDBRANCH  18  23
BRANCH  20  25
HETATM   25  O   UNL     1      26.109  50.387  47.444  1.00  0.00    -0.361 OA
HETATM   26  H   UNL     1      25.264  50.788  47.179  1.00  0.00     0.217 HD
ENDBRANCH  20  25
ENDBRANCH  15  17
ENDBRANCH  14  15
ENDBRANCH   9  14
TORSDOF 5
ENDMDL
MODEL 4
REMARK VINA RESULT:      -8.3      3.661      4.512
REMARK  5 active torsions:
REMARK  status: ('A' for Active; 'I' for Inactive)
REMARK    1  A    between atoms: C_9  and  C_10 
REMARK    2  A    between atoms: C_10  and  N_11 
REMARK    3  A    between atoms: N_11  and  C_12 
REMARK    4  A    between atoms: C_13  and  O_14 
REMARK    5  A    between atoms: C_16  and  O_17 
ROOT
HETATM    1  C   UNL     1      30.472  45.979  57.917  1.00  0.00     0.048 C 
HETATM    2  C   UNL     1      29.865  45.440  56.654  1.00  0.00    -0.061 A 
HETATM    3  C   UNL     1      28.864  46.156  55.980  1.00  0.00     0.020 A 
HETATM    4  C   UNL     1      28.325  45.666  54.787  1.00  0.00    -0.008 A 
HETATM    5  C   UNL     1      28.799  44.460  54.263  1.00  0.00     0.045 A 
HETATM    6  N   UNL     1      28.267  43.981  53.062  1.00  0.00    -0.322 N 
HETATM    7  C   UNL     1      27.296  44.629  52.345  1.00  0.00     0.253 A 
HETATM    8  O   UNL     1      26.907  44.179  51.272  1.00  0.00    -0.268 OA
HETATM    9  C   UNL     1      26.762  45.900  52.920  1.00  0.00     0.024 A 
HETATM   10  C   UNL     1      27.276  46.387  54.066  1.00  0.00     0.027 A 
HETATM   11  C   UNL     1      29.800  43.744  54.916  1.00  0.00     0.031 A 
HETATM   12  C   UNL     1      30.333  44.238  56.107  1.00  0.00     0.009 A 
HETATM   13  H   UNL     1      28.610  43.120  52.659  1.00  0.00     0.169 HD
ENDROOT
BRANCH   9  14
HETATM   14  C   UNL     1      25.702  46.610  52.128  1.00  0.00     0.136 C 
BRANCH  14  15
HETATM   15  N   UNL     1      26.236  46.908  50.799  1.00  0.00    -0.286 NA
HETATM   16  H   UNL     1      26.439  46.052  50.280  1.00  0.00     0.128 HD
BRANCH  15  17
HETATM   17  C   UNL     1      25.516  47.778  49.957  1.00  0.00     0.042 A 
HETATM   18  C   UNL     1      26.251  48.733  49.228  1.00  0.00     0.089 A 
HETATM   19  C   UNL     1      25.659  49.621  48.338  1.00  0.00     0.074 A 
HETATM   20  C   UNL     1      24.280  49.580  48.190  1.00  0.00     0.068 A 
HETATM   21  C   UNL     1      23.512  48.677  48.918  1.00  0.00     0.038 A 
HETATM   22  C   UNL     1      24.127  47.784  49.805  1.00  0.00     0.029 A 
BRANCH  18  23
HETATM   23  O   UNL     1      27.603  48.825  49.437  1.00  0.00    -0.359 OA
HETATM   24  H   UNL     1      27.966  48.940  48.535  1.00  0.00     0.218 HD
ENDBRANCH  18  23
BRANCH  20  25
HETATM   25  O   UNL     1      23.630  50.427  47.341  1.00  0.00    -0.361 OA
HETATM   26  H   UNL     1      22.913  50.861  47.832  1.00  0.00     0.217 HD
ENDBRANCH  20  25
ENDBRANCH  15  17
ENDBRANCH  14  15
ENDBRANCH   9  14
TORSDOF 5
ENDMDL
MODEL 5
REMARK VINA RESULT:      -8.3      3.129      3.733
REMARK  5 active torsions:
REMARK  status: ('A' for Active; 'I' for Inactive)
REMARK    1  A    between atoms: C_9  and  C_10 
REMARK    2  A    between atoms: C_10  and  N_11 
REMARK    3  A    between atoms: N_11  and  C_12 
REMARK    4  A    between atoms: C_13  and  O_14 
REMARK    5  A    between atoms: C_16  and  O_17 
ROOT
HETATM    1  C   UNL     1      32.088  43.389  57.044  1.00  0.00     0.048 C 
HETATM    2  C   UNL     1      30.946  43.874  56.199  1.00  0.00    -0.061 A 
HETATM    3  C   UNL     1      30.341  43.024  55.261  1.00  0.00     0.020 A 
HETATM    4  C   UNL     1      29.255  43.469  54.500  1.00  0.00    -0.008 A 
HETATM    5  C   UNL     1      28.770  44.766  54.689  1.00  0.00     0.045 A 
HETATM    6  N   UNL     1      27.675  45.202  53.935  1.00  0.00    -0.322 N 
HETATM    7  C   UNL     1      27.029  44.427  53.009  1.00  0.00     0.253 A 
HETATM    8  O   UNL     1      26.043  44.854  52.415  1.00  0.00    -0.268 OA
HETATM    9  C   UNL     1      27.568  43.053  52.779  1.00  0.00     0.024 A 
HETATM   10  C   UNL     1      28.609  42.609  53.509  1.00  0.00     0.027 A 
HETATM   11  C   UNL     1      29.354  45.617  55.624  1.00  0.00     0.031 A 
HETATM   12  C   UNL     1      30.437  45.167  56.380  1.00  0.00     0.009 A 
HETATM   13  H   UNL     1      27.299  46.131  54.071  1.00  0.00     0.169 HD
ENDROOT
BRANCH   9  14
HETATM   14  C   UNL     1      26.854  42.205  51.767  1.00  0.00     0.136 C 
BRANCH  14  15
HETATM   15  N   UNL     1      27.627  42.211  50.525  1.00  0.00    -0.286 NA
HETATM   16  H   UNL     1      28.462  42.795  50.610  1.00  0.00     0.128 HD
BRANCH  15  17
HETATM   17  C   UNL     1      28.002  40.980  49.951  1.00  0.00     0.042 A 
HETATM   18  C   UNL     1      27.906  40.860  48.552  1.00  0.00     0.089 A 
HETATM   19  C   UNL     1      28.281  39.711  47.867  1.00  0.00     0.074 A 
HETATM   20  C   UNL     1      28.740  38.628  48.603  1.00  0.00     0.068 A 
HETATM   21  C   UNL     1      28.816  38.692  49.991  1.00  0.00     0.038 A 
HETATM   22  C   UNL     1      28.441  39.862  50.664  1.00  0.00     0.029 A 
BRANCH  18  23
HETATM   23  O   UNL     1      27.377  41.903  47.834  1.00  0.00    -0.359 OA
HETATM   24  H   UNL     1      26.993  42.482  48.523  1.00  0.00     0.218 HD
ENDBRANCH  18  23
BRANCH  20  25
HETATM   25  O   UNL     1      29.117  37.465  47.999  1.00  0.00    -0.361 OA
HETATM   26  H   UNL     1      29.005  36.740  48.636  1.00  0.00     0.217 HD
ENDBRANCH  20  25
ENDBRANCH  15  17
ENDBRANCH  14  15
ENDBRANCH   9  14
TORSDOF 5
ENDMDL
MODEL 6
REMARK VINA RESULT:      -8.3      2.121      2.526
REMARK  5 active torsions:
REMARK  status: ('A' for Active; 'I' for Inactive)
REMARK    1  A    between atoms: C_9  and  C_10 
REMARK    2  A    between atoms: C_10  and  N_11 
REMARK    3  A    between atoms: N_11  and  C_12 
REMARK    4  A    between atoms: C_13  and  O_14 
REMARK    5  A    between atoms: C_16  and  O_17 
ROOT
HETATM    1  C   UNL     1      32.122  43.354  56.993  1.00  0.00     0.048 C 
HETATM    2  C   UNL     1      30.932  44.111  56.479  1.00  0.00    -0.061 A 
HETATM    3  C   UNL     1      30.240  43.666  55.342  1.00  0.00     0.020 A 
HETATM    4  C   UNL     1      29.112  44.355  54.886  1.00  0.00    -0.008 A 
HETATM    5  C   UNL     1      28.671  45.486  55.580  1.00  0.00     0.045 A 
HETATM    6  N   UNL     1      27.533  46.164  55.129  1.00  0.00    -0.322 N 
HETATM    7  C   UNL     1      26.803  45.784  54.034  1.00  0.00     0.253 A 
HETATM    8  O   UNL     1      25.786  46.394  53.719  1.00  0.00    -0.268 OA
HETATM    9  C   UNL     1      27.292  44.597  53.269  1.00  0.00     0.024 A 
HETATM   10  C   UNL     1      28.374  43.920  53.701  1.00  0.00     0.027 A 
HETATM   11  C   UNL     1      29.341  45.932  56.717  1.00  0.00     0.031 A 
HETATM   12  C   UNL     1      30.467  45.241  57.166  1.00  0.00     0.009 A 
HETATM   13  H   UNL     1      27.190  46.973  55.628  1.00  0.00     0.169 HD
ENDROOT
BRANCH   9  14
HETATM   14  C   UNL     1      26.486  44.182  52.074  1.00  0.00     0.136 C 
BRANCH  14  15
HETATM   15  N   UNL     1      26.647  45.194  51.029  1.00  0.00    -0.286 NA
HETATM   16  H   UNL     1      27.342  44.906  50.338  1.00  0.00     0.128 HD
BRANCH  15  17
HETATM   17  C   UNL     1      25.504  45.654  50.346  1.00  0.00     0.042 A 
HETATM   18  C   UNL     1      25.234  47.035  50.389  1.00  0.00     0.089 A 
HETATM   19  C   UNL     1      24.158  47.613  49.726  1.00  0.00     0.074 A 
HETATM   20  C   UNL     1      23.301  46.784  49.017  1.00  0.00     0.068 A 
HETATM   21  C   UNL     1      23.512  45.409  48.978  1.00  0.00     0.038 A 
HETATM   22  C   UNL     1      24.605  44.844  49.647  1.00  0.00     0.029 A 
BRANCH  18  23
HETATM   23  O   UNL     1      26.036  47.841  51.156  1.00  0.00    -0.359 OA
HETATM   24  H   UNL     1      26.201  48.614  50.578  1.00  0.00     0.218 HD
ENDBRANCH  18  23
BRANCH  20  25
HETATM   25  O   UNL     1      22.221  47.280  48.348  1.00  0.00    -0.361 OA
HETATM   26  H   UNL     1      22.468  48.137  47.963  1.00  0.00     0.217 HD
ENDBRANCH  20  25
ENDBRANCH  15  17
ENDBRANCH  14  15
ENDBRANCH   9  14
TORSDOF 5
ENDMDL
MODEL 7
REMARK VINA RESULT:      -8.1      3.360      7.214
REMARK  5 active torsions:
REMARK  status: ('A' for Active; 'I' for Inactive)
REMARK    1  A    between atoms: C_9  and  C_10 
REMARK    2  A    between atoms: C_10  and  N_11 
REMARK    3  A    between atoms: N_11  and  C_12 
REMARK    4  A    between atoms: C_13  and  O_14 
REMARK    5  A    between atoms: C_16  and  O_17 
ROOT
HETATM    1  C   UNL     1      26.945  49.856  48.694  1.00  0.00     0.048 C 
HETATM    2  C   UNL     1      26.175  48.660  49.172  1.00  0.00    -0.061 A 
HETATM    3  C   UNL     1      26.845  47.503  49.597  1.00  0.00     0.020 A 
HETATM    4  C   UNL     1      26.124  46.403  50.074  1.00  0.00    -0.008 A 
HETATM    5  C   UNL     1      24.729  46.470  50.134  1.00  0.00     0.045 A 
HETATM    6  N   UNL     1      24.013  45.373  50.625  1.00  0.00    -0.322 N 
HETATM    7  C   UNL     1      24.598  44.215  51.064  1.00  0.00     0.253 A 
HETATM    8  O   UNL     1      23.915  43.307  51.529  1.00  0.00    -0.268 OA
HETATM    9  C   UNL     1      26.086  44.126  50.968  1.00  0.00     0.024 A 
HETATM   10  C   UNL     1      26.794  45.180  50.516  1.00  0.00     0.027 A 
HETATM   11  C   UNL     1      24.051  47.617  49.726  1.00  0.00     0.031 A 
HETATM   12  C   UNL     1      24.777  48.711  49.251  1.00  0.00     0.009 A 
HETATM   13  H   UNL     1      23.005  45.410  50.692  1.00  0.00     0.169 HD
ENDROOT
BRANCH   9  14
HETATM   14  C   UNL     1      26.723  42.858  51.455  1.00  0.00     0.136 C 
BRANCH  14  15
HETATM   15  N   UNL     1      26.603  42.807  52.913  1.00  0.00    -0.286 NA
HETATM   16  H   UNL     1      26.396  41.860  53.235  1.00  0.00     0.128 HD
BRANCH  15  17
HETATM   17  C   UNL     1      27.651  43.326  53.699  1.00  0.00     0.042 A 
HETATM   18  C   UNL     1      28.725  42.466  53.998  1.00  0.00     0.089 A 
HETATM   19  C   UNL     1      29.832  42.871  54.734  1.00  0.00     0.074 A 
HETATM   20  C   UNL     1      29.860  44.172  55.217  1.00  0.00     0.068 A 
HETATM   21  C   UNL     1      28.802  45.043  54.974  1.00  0.00     0.038 A 
HETATM   22  C   UNL     1      27.697  44.619  54.225  1.00  0.00     0.029 A 
BRANCH  18  23
HETATM   23  O   UNL     1      28.658  41.158  53.589  1.00  0.00    -0.359 OA
HETATM   24  H   UNL     1      29.056  41.179  52.695  1.00  0.00     0.218 HD
ENDBRANCH  18  23
BRANCH  20  25
HETATM   25  O   UNL     1      30.910  44.636  55.953  1.00  0.00    -0.361 OA
HETATM   26  H   UNL     1      30.990  44.087  56.751  1.00  0.00     0.217 HD
ENDBRANCH  20  25
ENDBRANCH  15  17
ENDBRANCH  14  15
ENDBRANCH   9  14
TORSDOF 5
ENDMDL
MODEL 8
REMARK VINA RESULT:      -7.6      2.629      8.310
REMARK  5 active torsions:
REMARK  status: ('A' for Active; 'I' for Inactive)
REMARK    1  A    between atoms: C_9  and  C_10 
REMARK    2  A    between atoms: C_10  and  N_11 
REMARK    3  A    between atoms: N_11  and  C_12 
REMARK    4  A    between atoms: C_13  and  O_14 
REMARK    5  A    between atoms: C_16  and  O_17 
ROOT
HETATM    1  C   UNL     1      23.456  43.234  47.891  1.00  0.00     0.048 C 
HETATM    2  C   UNL     1      24.424  42.831  48.965  1.00  0.00    -0.061 A 
HETATM    3  C   UNL     1      24.735  43.713  50.012  1.00  0.00     0.020 A 
HETATM    4  C   UNL     1      25.612  43.321  51.029  1.00  0.00    -0.008 A 
HETATM    5  C   UNL     1      26.167  42.039  51.001  1.00  0.00     0.045 A 
HETATM    6  N   UNL     1      27.032  41.646  52.028  1.00  0.00    -0.322 N 
HETATM    7  C   UNL     1      27.375  42.448  53.085  1.00  0.00     0.253 A 
HETATM    8  O   UNL     1      28.101  42.026  53.980  1.00  0.00    -0.268 OA
HETATM    9  C   UNL     1      26.811  43.831  53.099  1.00  0.00     0.024 A 
HETATM   10  C   UNL     1      25.961  44.220  52.129  1.00  0.00     0.027 A 
HETATM   11  C   UNL     1      25.858  41.149  49.974  1.00  0.00     0.031 A 
HETATM   12  C   UNL     1      24.983  41.547  48.962  1.00  0.00     0.009 A 
HETATM   13  H   UNL     1      27.429  40.717  52.034  1.00  0.00     0.169 HD
ENDROOT
BRANCH   9  14
HETATM   14  C   UNL     1      27.185  44.704  54.261  1.00  0.00     0.136 C 
BRANCH  14  15
HETATM   15  N   UNL     1      28.629  44.938  54.222  1.00  0.00    -0.286 NA
HETATM   16  H   UNL     1      28.856  45.773  53.679  1.00  0.00     0.128 HD
BRANCH  15  17
HETATM   17  C   UNL     1      29.343  44.990  55.436  1.00  0.00     0.042 A 
HETATM   18  C   UNL     1      30.402  44.078  55.606  1.00  0.00     0.089 A 
HETATM   19  C   UNL     1      31.202  44.055  56.742  1.00  0.00     0.074 A 
HETATM   20  C   UNL     1      30.919  44.954  57.762  1.00  0.00     0.068 A 
HETATM   21  C   UNL     1      29.859  45.847  57.649  1.00  0.00     0.038 A 
HETATM   22  C   UNL     1      29.068  45.861  56.493  1.00  0.00     0.029 A 
BRANCH  18  23
HETATM   23  O   UNL     1      30.628  43.138  54.632  1.00  0.00    -0.359 OA
HETATM   24  H   UNL     1      31.592  42.979  54.689  1.00  0.00     0.218 HD
ENDBRANCH  18  23
BRANCH  20  25
HETATM   25  O   UNL     1      31.657  44.984  58.908  1.00  0.00    -0.361 OA
HETATM   26  H   UNL     1      32.547  45.305  58.690  1.00  0.00     0.217 HD
ENDBRANCH  20  25
ENDBRANCH  15  17
ENDBRANCH  14  15
ENDBRANCH   9  14
TORSDOF 5
ENDMDL
MODEL 9
REMARK VINA RESULT:      -7.5      1.517      2.015
REMARK  5 active torsions:
REMARK  status: ('A' for Active; 'I' for Inactive)
REMARK    1  A    between atoms: C_9  and  C_10 
REMARK    2  A    between atoms: C_10  and  N_11 
REMARK    3  A    between atoms: N_11  and  C_12 
REMARK    4  A    between atoms: C_13  and  O_14 
REMARK    5  A    between atoms: C_16  and  O_17 
ROOT
HETATM    1  C   UNL     1      31.168  43.196  55.850  1.00  0.00     0.048 C 
HETATM    2  C   UNL     1      30.156  44.276  55.603  1.00  0.00    -0.061 A 
HETATM    3  C   UNL     1      29.161  44.113  54.627  1.00  0.00     0.020 A 
HETATM    4  C   UNL     1      28.199  45.108  54.424  1.00  0.00    -0.008 A 
HETATM    5  C   UNL     1      28.231  46.264  55.209  1.00  0.00     0.045 A 
HETATM    6  N   UNL     1      27.259  47.250  55.012  1.00  0.00    -0.322 N 
HETATM    7  C   UNL     1      26.253  47.157  54.086  1.00  0.00     0.253 A 
HETATM    8  O   UNL     1      25.403  48.036  53.996  1.00  0.00    -0.268 OA
HETATM    9  C   UNL     1      26.238  45.939  53.221  1.00  0.00     0.024 A 
HETATM   10  C   UNL     1      27.155  44.969  53.410  1.00  0.00     0.027 A 
HETATM   11  C   UNL     1      29.206  46.435  56.189  1.00  0.00     0.031 A 
HETATM   12  C   UNL     1      30.163  45.438  56.386  1.00  0.00     0.009 A 
HETATM   13  H   UNL     1      27.255  48.085  55.582  1.00  0.00     0.169 HD
ENDROOT
BRANCH   9  14
HETATM   14  C   UNL     1      25.132  45.838  52.212  1.00  0.00     0.136 C 
BRANCH  14  15
HETATM   15  N   UNL     1      25.630  45.106  51.047  1.00  0.00    -0.286 NA
HETATM   16  H   UNL     1      26.307  44.390  51.319  1.00  0.00     0.128 HD
BRANCH  15  17
HETATM   17  C   UNL     1      24.702  44.524  50.161  1.00  0.00     0.042 A 
HETATM   18  C   UNL     1      24.097  43.316  50.556  1.00  0.00     0.089 A 
HETATM   19  C   UNL     1      23.139  42.665  49.786  1.00  0.00     0.074 A 
HETATM   20  C   UNL     1      22.792  43.221  48.563  1.00  0.00     0.068 A 
HETATM   21  C   UNL     1      23.392  44.395  48.120  1.00  0.00     0.038 A 
HETATM   22  C   UNL     1      24.350  45.041  48.912  1.00  0.00     0.029 A 
BRANCH  18  23
HETATM   23  O   UNL     1      24.500  42.727  51.727  1.00  0.00    -0.359 OA
HETATM   24  H   UNL     1      24.426  43.449  52.383  1.00  0.00     0.218 HD
ENDBRANCH  18  23
BRANCH  20  25
HETATM   25  O   UNL     1      21.866  42.635  47.752  1.00  0.00    -0.361 OA
HETATM   26  H   UNL     1      21.613  41.782  48.144  1.00  0.00     0.217 HD
ENDBRANCH  20  25
ENDBRANCH  15  17
ENDBRANCH  14  15
ENDBRANCH   9  14
TORSDOF 5
ENDMDL
MODEL 10
REMARK VINA RESULT:      -7.4      2.172      3.129
REMARK  5 active torsions:
REMARK  status: ('A' for Active; 'I' for Inactive)
REMARK    1  A    between atoms: C_9  and  C_10 
REMARK    2  A    between atoms: C_10  and  N_11 
REMARK    3  A    between atoms: N_11  and  C_12 
REMARK    4  A    between atoms: C_13  and  O_14 
REMARK    5  A    between atoms: C_16  and  O_17 
ROOT
HETATM    1  C   UNL     1      29.494  45.976  56.575  1.00  0.00     0.048 C 
HETATM    2  C   UNL     1      29.433  44.871  55.562  1.00  0.00    -0.061 A 
HETATM    3  C   UNL     1      28.305  44.716  54.740  1.00  0.00     0.020 A 
HETATM    4  C   UNL     1      28.267  43.706  53.774  1.00  0.00    -0.008 A 
HETATM    5  C   UNL     1      29.366  42.856  53.626  1.00  0.00     0.045 A 
HETATM    6  N   UNL     1      29.329  41.855  52.649  1.00  0.00    -0.322 N 
HETATM    7  C   UNL     1      28.268  41.651  51.806  1.00  0.00     0.253 A 
HETATM    8  O   UNL     1      28.319  40.786  50.937  1.00  0.00    -0.268 OA
HETATM    9  C   UNL     1      27.077  42.534  51.986  1.00  0.00     0.024 A 
HETATM   10  C   UNL     1      27.103  43.516  52.909  1.00  0.00     0.027 A 
HETATM   11  C   UNL     1      30.497  43.004  54.427  1.00  0.00     0.031 A 
HETATM   12  C   UNL     1      30.528  44.014  55.389  1.00  0.00     0.009 A 
HETATM   13  H   UNL     1      30.122  41.242  52.515  1.00  0.00     0.169 HD
ENDROOT
BRANCH   9  14
HETATM   14  C   UNL     1      25.920  42.310  51.058  1.00  0.00     0.136 C 
BRANCH  14  15
HETATM   15  N   UNL     1      24.783  43.099  51.533  1.00  0.00    -0.286 NA
HETATM   16  H   UNL     1      24.949  43.461  52.474  1.00  0.00     0.128 HD
BRANCH  15  17
HETATM   17  C   UNL     1      24.302  44.152  50.729  1.00  0.00     0.042 A 
HETATM   18  C   UNL     1      23.194  43.884  49.904  1.00  0.00     0.089 A 
HETATM   19  C   UNL     1      22.607  44.850  49.094  1.00  0.00     0.074 A 
HETATM   20  C   UNL     1      23.161  46.122  49.082  1.00  0.00     0.068 A 
HETATM   21  C   UNL     1      24.279  46.418  49.856  1.00  0.00     0.038 A 
HETATM   22  C   UNL     1      24.853  45.434  50.672  1.00  0.00     0.029 A 
BRANCH  18  23
HETATM   23  O   UNL     1      22.698  42.607  49.856  1.00  0.00    -0.359 OA
HETATM   24  H   UNL     1      22.598  42.366  50.800  1.00  0.00     0.218 HD
ENDBRANCH  18  23
BRANCH  20  25
HETATM   25  O   UNL     1      22.644  47.117  48.307  1.00  0.00    -0.361 OA
HETATM   26  H   UNL     1      23.377  47.675  47.997  1.00  0.00     0.217 HD
ENDBRANCH  20  25
ENDBRANCH  15  17
ENDBRANCH  14  15
ENDBRANCH   9  14
TORSDOF 5
ENDMDL
