MODEL 1
REMARK VINA RESULT:     -10.9      0.000      0.000
REMARK  8 active torsions:
REMARK  status: ('A' for Active; 'I' for Inactive)
REMARK    1  A    between atoms: C_2  and  C_3 
REMARK    2  A    between atoms: C_6  and  N_7 
REMARK       I    between atoms: N_7  and  C_8 
REMARK    3  A    between atoms: C_8  and  C_9 
REMARK    4  A    between atoms: C_9  and  S_10 
REMARK    5  A    between atoms: S_10  and  C_11 
REMARK    6  A    between atoms: C_23  and  C_24 
REMARK    7  A    between atoms: C_24  and  C_25 
REMARK       I    between atoms: C_25  and  N_26 
REMARK    8  A    between atoms: N_26  and  C_27 
ROOT
HETATM    1  C   UNL     1      24.918  44.997  49.185  1.00  0.00     0.178 A 
HETATM    2  N   UNL     1      24.198  46.174  49.329  1.00  0.00    -0.241 N 
HETATM    3  C   UNL     1      23.010  46.351  48.702  1.00  0.00     0.147 A 
HETATM    4  N   UNL     1      22.450  47.518  48.793  1.00  0.00    -0.256 NA
HETATM    5  C   UNL     1      22.453  45.221  47.958  1.00  0.00     0.039 A 
HETATM    6  C   UNL     1      23.226  44.057  47.913  1.00  0.00     0.073 A 
HETATM    7  C   UNL     1      21.208  45.301  47.328  1.00  0.00     0.018 A 
HETATM    8  C   UNL     1      20.727  44.195  46.629  1.00  0.00     0.001 A 
HETATM    9  C   UNL     1      21.491  43.029  46.560  1.00  0.00     0.002 A 
HETATM   10  C   UNL     1      22.735  42.963  47.197  1.00  0.00     0.032 A 
HETATM   11  C   UNL     1      24.474  47.328  50.025  1.00  0.00     0.257 A 
HETATM   12  O   UNL     1      25.379  47.553  50.813  1.00  0.00    -0.270 OA
HETATM   13  C   UNL     1      23.372  48.305  49.664  1.00  0.00     0.211 A 
HETATM   14  N   UNL     1      24.485  43.962  48.534  1.00  0.00    -0.223 NA
ENDROOT
BRANCH   1  15
HETATM   15  S   UNL     1      26.531  44.878  49.836  1.00  0.00    -0.082 SA
BRANCH  15  16
HETATM   16  C   UNL     1      26.535  43.137  50.328  1.00  0.00     0.185 C 
BRANCH  16  17
HETATM   17  C   UNL     1      27.176  42.861  51.683  1.00  0.00     0.231 C 
HETATM   18  N   UNL     1      27.841  43.928  52.253  1.00  0.00    -0.327 N 
HETATM   19  H   UNL     1      27.710  44.838  51.817  1.00  0.00     0.169 HD
HETATM   20  O   UNL     1      27.153  41.715  52.130  1.00  0.00    -0.272 OA
BRANCH  18  21
HETATM   21  C   UNL     1      28.698  43.915  53.373  1.00  0.00     0.034 A 
HETATM   22  C   UNL     1      29.822  43.101  53.493  1.00  0.00     0.030 A 
HETATM   23  C   UNL     1      30.659  43.204  54.613  1.00  0.00     0.010 A 
HETATM   24  C   UNL     1      30.401  44.131  55.629  1.00  0.00    -0.055 A 
HETATM   25  C   UNL     1      29.250  44.925  55.513  1.00  0.00     0.010 A 
HETATM   26  C   UNL     1      28.408  44.811  54.404  1.00  0.00     0.030 A 
BRANCH  24  27
HETATM   27  C   UNL     1      31.303  44.316  56.839  1.00  0.00     0.010 C 
HETATM   28  C   UNL     1      31.930  43.026  57.380  1.00  0.00     0.015 C 
HETATM   29  C   UNL     1      30.558  45.041  57.963  1.00  0.00     0.015 C 
ENDBRANCH  24  27
ENDBRANCH  18  21
ENDBRANCH  16  17
ENDBRANCH  15  16
ENDBRANCH   1  15
BRANCH  13  30
HETATM   30  C   UNL     1      23.971  49.468  48.902  1.00  0.00     0.140 C 
BRANCH  30  31
HETATM   31  C   UNL     1      22.935  50.158  48.051  1.00  0.00     0.220 C 
HETATM   32  N   UNL     1      21.722  50.319  48.680  1.00  0.00    -0.356 N 
HETATM   33  H   UNL     1      21.625  49.980  49.627  1.00  0.00     0.162 HD
HETATM   34  O   UNL     1      23.166  50.506  46.899  1.00  0.00    -0.274 OA
BRANCH  32  35
HETATM   35  C   UNL     1      20.515  50.687  47.950  1.00  0.00     0.084 C 
HETATM   36  C   UNL     1      19.517  49.518  47.933  1.00  0.00     0.025 C 
HETATM   37  C   UNL     1      18.930  49.242  49.317  1.00  0.00     0.002 C 
HETATM   38  C   UNL     1      18.284  50.490  49.910  1.00  0.00     0.000 C 
HETATM   39  C   UNL     1      19.244  51.676  49.932  1.00  0.00     0.002 C 
HETATM   40  C   UNL     1      19.869  51.938  48.559  1.00  0.00     0.025 C 
ENDBRANCH  32  35
ENDBRANCH  30  31
ENDBRANCH  13  30
TORSDOF 8
ENDMDL
MODEL 2
REMARK VINA RESULT:     -10.7      2.013      3.584
REMARK  8 active torsions:
REMARK  status: ('A' for Active; 'I' for Inactive)
REMARK    1  A    between atoms: C_2  and  C_3 
REMARK    2  A    between atoms: C_6  and  N_7 
REMARK       I    between atoms: N_7  and  C_8 
REMARK    3  A    between atoms: C_8  and  C_9 
REMARK    4  A    between atoms: C_9  and  S_10 
REMARK    5  A    between atoms: S_10  and  C_11 
REMARK    6  A    between atoms: C_23  and  C_24 
REMARK    7  A    between atoms: C_24  and  C_25 
REMARK       I    between atoms: C_25  and  N_26 
REMARK    8  A    between atoms: N_26  and  C_27 
ROOT
HETATM    1  C   UNL     1      23.879  45.743  49.656  1.00  0.00     0.178 A 
HETATM    2  N   UNL     1      22.727  45.887  48.898  1.00  0.00    -0.241 N 
HETATM    3  C   UNL     1      22.419  47.067  48.305  1.00  0.00     0.147 A 
HETATM    4  N   UNL     1      21.271  47.159  47.707  1.00  0.00    -0.256 NA
HETATM    5  C   UNL     1      23.396  48.152  48.394  1.00  0.00     0.039 A 
HETATM    6  C   UNL     1      24.554  47.896  49.134  1.00  0.00     0.073 A 
HETATM    7  C   UNL     1      23.184  49.382  47.765  1.00  0.00     0.018 A 
HETATM    8  C   UNL     1      24.146  50.383  47.886  1.00  0.00     0.001 A 
HETATM    9  C   UNL     1      25.301  50.152  48.633  1.00  0.00     0.002 A 
HETATM   10  C   UNL     1      25.501  48.915  49.256  1.00  0.00     0.032 A 
HETATM   11  C   UNL     1      21.711  45.004  48.611  1.00  0.00     0.257 A 
HETATM   12  O   UNL     1      21.642  43.809  48.849  1.00  0.00    -0.270 OA
HETATM   13  C   UNL     1      20.662  45.804  47.863  1.00  0.00     0.211 A 
HETATM   14  N   UNL     1      24.780  46.667  49.781  1.00  0.00    -0.223 NA
ENDROOT
BRANCH   1  15
HETATM   15  S   UNL     1      24.143  44.282  50.570  1.00  0.00    -0.082 SA
BRANCH  15  16
HETATM   16  C   UNL     1      25.643  43.679  49.759  1.00  0.00     0.185 C 
BRANCH  16  17
HETATM   17  C   UNL     1      26.930  43.925  50.538  1.00  0.00     0.231 C 
HETATM   18  N   UNL     1      27.075  43.181  51.692  1.00  0.00    -0.327 N 
HETATM   19  H   UNL     1      26.411  42.426  51.839  1.00  0.00     0.169 HD
HETATM   20  O   UNL     1      27.692  44.814  50.162  1.00  0.00    -0.272 OA
BRANCH  18  21
HETATM   21  C   UNL     1      28.035  43.346  52.711  1.00  0.00     0.034 A 
HETATM   22  C   UNL     1      29.265  42.695  52.746  1.00  0.00     0.030 A 
HETATM   23  C   UNL     1      30.191  42.972  53.761  1.00  0.00     0.010 A 
HETATM   24  C   UNL     1      29.914  43.916  54.756  1.00  0.00    -0.055 A 
HETATM   25  C   UNL     1      28.661  44.546  54.730  1.00  0.00     0.010 A 
HETATM   26  C   UNL     1      27.733  44.258  53.726  1.00  0.00     0.030 A 
BRANCH  24  27
HETATM   27  C   UNL     1      30.902  44.289  55.851  1.00  0.00     0.010 C 
HETATM   28  C   UNL     1      31.376  43.118  56.718  1.00  0.00     0.015 C 
HETATM   29  C   UNL     1      30.330  45.396  56.741  1.00  0.00     0.015 C 
ENDBRANCH  24  27
ENDBRANCH  18  21
ENDBRANCH  16  17
ENDBRANCH  15  16
ENDBRANCH   1  15
BRANCH  13  30
HETATM   30  C   UNL     1      19.402  45.874  48.701  1.00  0.00     0.140 C 
BRANCH  30  31
HETATM   31  C   UNL     1      18.627  47.136  48.421  1.00  0.00     0.220 C 
HETATM   32  N   UNL     1      19.078  48.230  49.125  1.00  0.00    -0.356 N 
HETATM   33  H   UNL     1      19.865  48.107  49.747  1.00  0.00     0.162 HD
HETATM   34  O   UNL     1      17.669  47.156  47.657  1.00  0.00    -0.274 OA
BRANCH  32  35
HETATM   35  C   UNL     1      18.300  49.458  49.227  1.00  0.00     0.084 C 
HETATM   36  C   UNL     1      18.862  50.361  50.337  1.00  0.00     0.025 C 
HETATM   37  C   UNL     1      20.233  50.932  49.975  1.00  0.00     0.002 C 
HETATM   38  C   UNL     1      20.197  51.676  48.644  1.00  0.00     0.000 C 
HETATM   39  C   UNL     1      19.633  50.812  47.520  1.00  0.00     0.002 C 
HETATM   40  C   UNL     1      18.277  50.202  47.886  1.00  0.00     0.025 C 
ENDBRANCH  32  35
ENDBRANCH  30  31
ENDBRANCH  13  30
TORSDOF 8
ENDMDL
MODEL 3
REMARK VINA RESULT:     -10.5      2.658      4.435
REMARK  8 active torsions:
REMARK  status: ('A' for Active; 'I' for Inactive)
REMARK    1  A    between atoms: C_2  and  C_3 
REMARK    2  A    between atoms: C_6  and  N_7 
REMARK       I    between atoms: N_7  and  C_8 
REMARK    3  A    between atoms: C_8  and  C_9 
REMARK    4  A    between atoms: C_9  and  S_10 
REMARK    5  A    between atoms: S_10  and  C_11 
REMARK    6  A    between atoms: C_23  and  C_24 
REMARK    7  A    between atoms: C_24  and  C_25 
REMARK       I    between atoms: C_25  and  N_26 
REMARK    8  A    between atoms: N_26  and  C_27 
ROOT
HETATM    1  C   UNL     1      22.082  45.973  48.677  1.00  0.00     0.178 A 
HETATM    2  N   UNL     1      20.873  46.410  48.156  1.00  0.00    -0.241 N 
HETATM    3  C   UNL     1      20.662  47.719  47.874  1.00  0.00     0.147 A 
HETATM    4  N   UNL     1      19.471  48.069  47.497  1.00  0.00    -0.256 NA
HETATM    5  C   UNL     1      21.786  48.641  48.030  1.00  0.00     0.039 A 
HETATM    6  C   UNL     1      22.982  48.100  48.510  1.00  0.00     0.073 A 
HETATM    7  C   UNL     1      21.671  49.998  47.709  1.00  0.00     0.018 A 
HETATM    8  C   UNL     1      22.773  50.833  47.881  1.00  0.00     0.001 A 
HETATM    9  C   UNL     1      23.971  50.314  48.373  1.00  0.00     0.002 A 
HETATM   10  C   UNL     1      24.072  48.954  48.689  1.00  0.00     0.032 A 
HETATM   11  C   UNL     1      19.714  45.731  47.856  1.00  0.00     0.257 A 
HETATM   12  O   UNL     1      19.507  44.528  47.851  1.00  0.00    -0.270 OA
HETATM   13  C   UNL     1      18.701  46.790  47.464  1.00  0.00     0.211 A 
HETATM   14  N   UNL     1      23.113  46.739  48.846  1.00  0.00    -0.223 NA
ENDROOT
BRANCH   1  15
HETATM   15  S   UNL     1      22.251  44.323  49.217  1.00  0.00    -0.082 SA
BRANCH  15  16
HETATM   16  C   UNL     1      24.055  44.196  49.253  1.00  0.00     0.185 C 
BRANCH  16  17
HETATM   17  C   UNL     1      24.658  44.103  50.650  1.00  0.00     0.231 C 
HETATM   18  N   UNL     1      25.783  44.875  50.862  1.00  0.00    -0.327 N 
HETATM   19  H   UNL     1      26.016  45.556  50.144  1.00  0.00     0.169 HD
HETATM   20  O   UNL     1      24.186  43.297  51.449  1.00  0.00    -0.272 OA
BRANCH  18  21
HETATM   21  C   UNL     1      26.668  44.830  51.959  1.00  0.00     0.034 A 
HETATM   22  C   UNL     1      26.544  45.618  53.101  1.00  0.00     0.030 A 
HETATM   23  C   UNL     1      27.429  45.458  54.177  1.00  0.00     0.010 A 
HETATM   24  C   UNL     1      28.447  44.498  54.141  1.00  0.00    -0.055 A 
HETATM   25  C   UNL     1      28.582  43.730  52.974  1.00  0.00     0.010 A 
HETATM   26  C   UNL     1      27.709  43.901  51.897  1.00  0.00     0.030 A 
BRANCH  24  27
HETATM   27  C   UNL     1      29.402  44.251  55.299  1.00  0.00     0.010 C 
HETATM   28  C   UNL     1      29.956  45.518  55.960  1.00  0.00     0.015 C 
HETATM   29  C   UNL     1      30.557  43.345  54.863  1.00  0.00     0.015 C 
ENDBRANCH  24  27
ENDBRANCH  18  21
ENDBRANCH  16  17
ENDBRANCH  15  16
ENDBRANCH   1  15
BRANCH  13  30
HETATM   30  C   UNL     1      17.583  46.809  48.485  1.00  0.00     0.140 C 
BRANCH  30  31
HETATM   31  C   UNL     1      16.750  48.058  48.362  1.00  0.00     0.220 C 
HETATM   32  N   UNL     1      17.465  49.221  48.540  1.00  0.00    -0.356 N 
HETATM   33  H   UNL     1      18.456  49.148  48.728  1.00  0.00     0.162 HD
HETATM   34  O   UNL     1      15.542  48.018  48.154  1.00  0.00    -0.274 OA
BRANCH  32  35
HETATM   35  C   UNL     1      16.813  50.506  48.755  1.00  0.00     0.084 C 
HETATM   36  C   UNL     1      17.471  51.258  49.922  1.00  0.00     0.025 C 
HETATM   37  C   UNL     1      18.889  51.720  49.582  1.00  0.00     0.002 C 
HETATM   38  C   UNL     1      18.912  52.569  48.316  1.00  0.00     0.000 C 
HETATM   39  C   UNL     1      18.255  51.858  47.137  1.00  0.00     0.002 C 
HETATM   40  C   UNL     1      16.849  51.355  47.477  1.00  0.00     0.025 C 
ENDBRANCH  32  35
ENDBRANCH  30  31
ENDBRANCH  13  30
TORSDOF 8
ENDMDL
MODEL 4
REMARK VINA RESULT:     -10.1      3.072     11.194
REMARK  8 active torsions:
REMARK  status: ('A' for Active; 'I' for Inactive)
REMARK    1  A    between atoms: C_2  and  C_3 
REMARK    2  A    between atoms: C_6  and  N_7 
REMARK       I    between atoms: N_7  and  C_8 
REMARK    3  A    between atoms: C_8  and  C_9 
REMARK    4  A    between atoms: C_9  and  S_10 
REMARK    5  A    between atoms: S_10  and  C_11 
REMARK    6  A    between atoms: C_23  and  C_24 
REMARK    7  A    between atoms: C_24  and  C_25 
REMARK       I    between atoms: C_25  and  N_26 
REMARK    8  A    between atoms: N_26  and  C_27 
ROOT
HETATM    1  C   UNL     1      26.194  44.858  52.229  1.00  0.00     0.178 A 
HETATM    2  N   UNL     1      26.463  43.648  51.608  1.00  0.00    -0.241 N 
HETATM    3  C   UNL     1      27.542  42.904  51.955  1.00  0.00     0.147 A 
HETATM    4  N   UNL     1      27.792  41.842  51.254  1.00  0.00    -0.256 NA
HETATM    5  C   UNL     1      28.352  43.361  53.084  1.00  0.00     0.039 A 
HETATM    6  C   UNL     1      27.973  44.566  53.684  1.00  0.00     0.073 A 
HETATM    7  C   UNL     1      29.450  42.627  53.543  1.00  0.00     0.018 A 
HETATM    8  C   UNL     1      30.189  43.111  54.621  1.00  0.00     0.001 A 
HETATM    9  C   UNL     1      29.835  44.318  55.222  1.00  0.00     0.002 A 
HETATM   10  C   UNL     1      28.733  45.043  54.753  1.00  0.00     0.032 A 
HETATM   11  C   UNL     1      25.815  42.984  50.590  1.00  0.00     0.257 A 
HETATM   12  O   UNL     1      24.744  43.241  50.066  1.00  0.00    -0.270 OA
HETATM   13  C   UNL     1      26.685  41.788  50.254  1.00  0.00     0.211 A 
HETATM   14  N   UNL     1      26.876  45.322  53.229  1.00  0.00    -0.223 NA
ENDROOT
BRANCH   1  15
HETATM   15  S   UNL     1      24.921  45.883  51.623  1.00  0.00    -0.082 SA
BRANCH  15  16
HETATM   16  C   UNL     1      25.841  46.806  50.369  1.00  0.00     0.185 C 
BRANCH  16  17
HETATM   17  C   UNL     1      25.066  47.949  49.724  1.00  0.00     0.231 C 
HETATM   18  N   UNL     1      23.696  47.905  49.890  1.00  0.00    -0.327 N 
HETATM   19  H   UNL     1      23.335  47.225  50.555  1.00  0.00     0.169 HD
HETATM   20  O   UNL     1      25.674  48.763  49.030  1.00  0.00    -0.272 OA
BRANCH  18  21
HETATM   21  C   UNL     1      22.721  48.687  49.239  1.00  0.00     0.034 A 
HETATM   22  C   UNL     1      21.784  48.186  48.339  1.00  0.00     0.030 A 
HETATM   23  C   UNL     1      20.803  49.023  47.790  1.00  0.00     0.010 A 
HETATM   24  C   UNL     1      20.727  50.376  48.140  1.00  0.00    -0.055 A 
HETATM   25  C   UNL     1      21.693  50.879  49.025  1.00  0.00     0.010 A 
HETATM   26  C   UNL     1      22.680  50.046  49.559  1.00  0.00     0.030 A 
BRANCH  24  27
HETATM   27  C   UNL     1      19.654  51.316  47.612  1.00  0.00     0.010 C 
HETATM   28  C   UNL     1      19.086  52.294  48.647  1.00  0.00     0.015 C 
HETATM   29  C   UNL     1      18.514  50.525  46.965  1.00  0.00     0.015 C 
ENDBRANCH  24  27
ENDBRANCH  18  21
ENDBRANCH  16  17
ENDBRANCH  15  16
ENDBRANCH   1  15
BRANCH  13  30
HETATM   30  C   UNL     1      27.222  41.947  48.847  1.00  0.00     0.140 C 
BRANCH  30  31
HETATM   31  C   UNL     1      27.526  40.609  48.222  1.00  0.00     0.220 C 
HETATM   32  N   UNL     1      28.278  39.782  49.025  1.00  0.00    -0.356 N 
HETATM   33  H   UNL     1      28.554  40.121  49.936  1.00  0.00     0.162 HD
HETATM   34  O   UNL     1      27.154  40.319  47.091  1.00  0.00    -0.274 OA
BRANCH  32  35
HETATM   35  C   UNL     1      28.924  38.581  48.509  1.00  0.00     0.084 C 
HETATM   36  C   UNL     1      30.234  38.306  49.265  1.00  0.00     0.025 C 
HETATM   37  C   UNL     1      29.984  37.885  50.714  1.00  0.00     0.002 C 
HETATM   38  C   UNL     1      29.054  36.679  50.794  1.00  0.00     0.000 C 
HETATM   39  C   UNL     1      27.747  36.913  50.043  1.00  0.00     0.002 C 
HETATM   40  C   UNL     1      27.983  37.373  48.603  1.00  0.00     0.025 C 
ENDBRANCH  32  35
ENDBRANCH  30  31
ENDBRANCH  13  30
TORSDOF 8
ENDMDL
MODEL 5
REMARK VINA RESULT:     -10.0      2.020      3.764
REMARK  8 active torsions:
REMARK  status: ('A' for Active; 'I' for Inactive)
REMARK    1  A    between atoms: C_2  and  C_3 
REMARK    2  A    between atoms: C_6  and  N_7 
REMARK       I    between atoms: N_7  and  C_8 
REMARK    3  A    between atoms: C_8  and  C_9 
REMARK    4  A    between atoms: C_9  and  S_10 
REMARK    5  A    between atoms: S_10  and  C_11 
REMARK    6  A    between atoms: C_23  and  C_24 
REMARK    7  A    between atoms: C_24  and  C_25 
REMARK       I    between atoms: C_25  and  N_26 
REMARK    8  A    between atoms: N_26  and  C_27 
ROOT
HETATM    1  C   UNL     1      24.425  43.762  51.036  1.00  0.00     0.178 A 
HETATM    2  N   UNL     1      24.341  44.935  50.301  1.00  0.00    -0.241 N 
HETATM    3  C   UNL     1      24.699  46.128  50.837  1.00  0.00     0.147 A 
HETATM    4  N   UNL     1      24.487  47.194  50.129  1.00  0.00    -0.256 NA
HETATM    5  C   UNL     1      25.285  46.126  52.177  1.00  0.00     0.039 A 
HETATM    6  C   UNL     1      25.379  44.888  52.821  1.00  0.00     0.073 A 
HETATM    7  C   UNL     1      25.732  47.304  52.783  1.00  0.00     0.018 A 
HETATM    8  C   UNL     1      26.279  47.245  54.064  1.00  0.00     0.001 A 
HETATM    9  C   UNL     1      26.367  46.022  54.727  1.00  0.00     0.002 A 
HETATM   10  C   UNL     1      25.917  44.850  54.109  1.00  0.00     0.032 A 
HETATM   11  C   UNL     1      23.902  45.174  49.019  1.00  0.00     0.257 A 
HETATM   12  O   UNL     1      23.598  44.375  48.149  1.00  0.00    -0.270 OA
HETATM   13  C   UNL     1      23.912  46.682  48.850  1.00  0.00     0.211 A 
HETATM   14  N   UNL     1      24.927  43.694  52.229  1.00  0.00    -0.223 NA
ENDROOT
BRANCH   1  15
HETATM   15  S   UNL     1      23.768  42.282  50.391  1.00  0.00    -0.082 SA
BRANCH  15  16
HETATM   16  C   UNL     1      25.269  41.563  49.682  1.00  0.00     0.185 C 
BRANCH  16  17
HETATM   17  C   UNL     1      26.570  42.122  50.246  1.00  0.00     0.231 C 
HETATM   18  N   UNL     1      26.901  41.688  51.514  1.00  0.00    -0.327 N 
HETATM   19  H   UNL     1      26.355  40.919  51.895  1.00  0.00     0.169 HD
HETATM   20  O   UNL     1      27.178  42.977  49.604  1.00  0.00    -0.272 OA
BRANCH  18  21
HETATM   21  C   UNL     1      27.909  42.189  52.364  1.00  0.00     0.034 A 
HETATM   22  C   UNL     1      28.875  43.114  51.977  1.00  0.00     0.030 A 
HETATM   23  C   UNL     1      29.797  43.614  52.907  1.00  0.00     0.010 A 
HETATM   24  C   UNL     1      29.765  43.210  54.247  1.00  0.00    -0.055 A 
HETATM   25  C   UNL     1      28.807  42.256  54.621  1.00  0.00     0.010 A 
HETATM   26  C   UNL     1      27.898  41.748  53.689  1.00  0.00     0.030 A 
BRANCH  24  27
HETATM   27  C   UNL     1      30.711  43.757  55.306  1.00  0.00     0.010 C 
HETATM   28  C   UNL     1      30.985  42.808  56.477  1.00  0.00     0.015 C 
HETATM   29  C   UNL     1      30.209  45.104  55.835  1.00  0.00     0.015 C 
ENDBRANCH  24  27
ENDBRANCH  18  21
ENDBRANCH  16  17
ENDBRANCH  15  16
ENDBRANCH   1  15
BRANCH  13  30
HETATM   30  C   UNL     1      22.490  47.169  48.666  1.00  0.00     0.140 C 
BRANCH  30  31
HETATM   31  C   UNL     1      22.442  48.666  48.498  1.00  0.00     0.220 C 
HETATM   32  N   UNL     1      21.512  49.283  49.304  1.00  0.00    -0.356 N 
HETATM   33  H   UNL     1      20.959  48.707  49.924  1.00  0.00     0.162 HD
HETATM   34  O   UNL     1      23.152  49.255  47.691  1.00  0.00    -0.274 OA
BRANCH  32  35
HETATM   35  C   UNL     1      21.099  50.665  49.092  1.00  0.00     0.084 C 
HETATM   36  C   UNL     1      20.381  50.813  47.742  1.00  0.00     0.025 C 
HETATM   37  C   UNL     1      19.022  50.114  47.733  1.00  0.00     0.002 C 
HETATM   38  C   UNL     1      18.133  50.606  48.870  1.00  0.00     0.000 C 
HETATM   39  C   UNL     1      18.819  50.485  50.228  1.00  0.00     0.002 C 
HETATM   40  C   UNL     1      20.199  51.146  50.238  1.00  0.00     0.025 C 
ENDBRANCH  32  35
ENDBRANCH  30  31
ENDBRANCH  13  30
TORSDOF 8
ENDMDL
MODEL 6
REMARK VINA RESULT:      -9.8      3.041     11.276
REMARK  8 active torsions:
REMARK  status: ('A' for Active; 'I' for Inactive)
REMARK    1  A    between atoms: C_2  and  C_3 
REMARK    2  A    between atoms: C_6  and  N_7 
REMARK       I    between atoms: N_7  and  C_8 
REMARK    3  A    between atoms: C_8  and  C_9 
REMARK    4  A    between atoms: C_9  and  S_10 
REMARK    5  A    between atoms: S_10  and  C_11 
REMARK    6  A    between atoms: C_23  and  C_24 
REMARK    7  A    between atoms: C_24  and  C_25 
REMARK       I    between atoms: C_25  and  N_26 
REMARK    8  A    between atoms: N_26  and  C_27 
ROOT
HETATM    1  C   UNL     1      25.341  45.870  51.776  1.00  0.00     0.178 A 
HETATM    2  N   UNL     1      25.942  44.646  52.030  1.00  0.00    -0.241 N 
HETATM    3  C   UNL     1      26.809  44.490  53.060  1.00  0.00     0.147 A 
HETATM    4  N   UNL     1      27.418  43.349  53.166  1.00  0.00    -0.256 NA
HETATM    5  C   UNL     1      27.006  45.621  53.966  1.00  0.00     0.039 A 
HETATM    6  C   UNL     1      26.316  46.798  53.661  1.00  0.00     0.073 A 
HETATM    7  C   UNL     1      27.839  45.528  55.085  1.00  0.00     0.018 A 
HETATM    8  C   UNL     1      27.993  46.638  55.913  1.00  0.00     0.001 A 
HETATM    9  C   UNL     1      27.324  47.826  55.616  1.00  0.00     0.002 A 
HETATM   10  C   UNL     1      26.492  47.905  54.494  1.00  0.00     0.032 A 
HETATM   11  C   UNL     1      25.857  43.439  51.375  1.00  0.00     0.257 A 
HETATM   12  O   UNL     1      25.109  43.107  50.469  1.00  0.00    -0.270 OA
HETATM   13  C   UNL     1      26.869  42.530  52.045  1.00  0.00     0.211 A 
HETATM   14  N   UNL     1      25.479  46.912  52.535  1.00  0.00    -0.223 NA
ENDROOT
BRANCH   1  15
HETATM   15  S   UNL     1      24.394  46.091  50.329  1.00  0.00    -0.082 SA
BRANCH  15  16
HETATM   16  C   UNL     1      25.313  47.449  49.565  1.00  0.00     0.185 C 
BRANCH  16  17
HETATM   17  C   UNL     1      24.509  48.727  49.363  1.00  0.00     0.231 C 
HETATM   18  N   UNL     1      23.139  48.590  49.474  1.00  0.00    -0.327 N 
HETATM   19  H   UNL     1      22.793  47.706  49.839  1.00  0.00     0.169 HD
HETATM   20  O   UNL     1      25.097  49.753  49.024  1.00  0.00    -0.272 OA
BRANCH  18  21
HETATM   21  C   UNL     1      22.146  49.529  49.130  1.00  0.00     0.034 A 
HETATM   22  C   UNL     1      21.545  49.615  47.876  1.00  0.00     0.030 A 
HETATM   23  C   UNL     1      20.513  50.535  47.642  1.00  0.00     0.010 A 
HETATM   24  C   UNL     1      20.049  51.378  48.658  1.00  0.00    -0.055 A 
HETATM   25  C   UNL     1      20.680  51.305  49.909  1.00  0.00     0.010 A 
HETATM   26  C   UNL     1      21.719  50.398  50.137  1.00  0.00     0.030 A 
BRANCH  24  27
HETATM   27  C   UNL     1      18.901  52.358  48.470  1.00  0.00     0.010 C 
HETATM   28  C   UNL     1      17.908  52.420  49.636  1.00  0.00     0.015 C 
HETATM   29  C   UNL     1      18.153  52.071  47.165  1.00  0.00     0.015 C 
ENDBRANCH  24  27
ENDBRANCH  18  21
ENDBRANCH  16  17
ENDBRANCH  15  16
ENDBRANCH   1  15
BRANCH  13  30
HETATM   30  C   UNL     1      27.957  42.182  51.050  1.00  0.00     0.140 C 
BRANCH  30  31
HETATM   31  C   UNL     1      28.392  40.746  51.193  1.00  0.00     0.220 C 
HETATM   32  N   UNL     1      27.983  39.939  50.156  1.00  0.00    -0.356 N 
HETATM   33  H   UNL     1      27.447  40.356  49.407  1.00  0.00     0.162 HD
HETATM   34  O   UNL     1      29.024  40.350  52.166  1.00  0.00    -0.274 OA
BRANCH  32  35
HETATM   35  C   UNL     1      28.038  38.485  50.239  1.00  0.00     0.084 C 
HETATM   36  C   UNL     1      26.857  37.856  49.483  1.00  0.00     0.025 C 
HETATM   37  C   UNL     1      26.972  38.051  47.971  1.00  0.00     0.002 C 
HETATM   38  C   UNL     1      28.297  37.517  47.437  1.00  0.00     0.000 C 
HETATM   39  C   UNL     1      29.494  38.112  48.173  1.00  0.00     0.002 C 
HETATM   40  C   UNL     1      29.371  37.958  49.691  1.00  0.00     0.025 C 
ENDBRANCH  32  35
ENDBRANCH  30  31
ENDBRANCH  13  30
TORSDOF 8
ENDMDL
MODEL 7
REMARK VINA RESULT:      -9.6      2.275      4.205
REMARK  8 active torsions:
REMARK  status: ('A' for Active; 'I' for Inactive)
REMARK    1  A    between atoms: C_2  and  C_3 
REMARK    2  A    between atoms: C_6  and  N_7 
REMARK       I    between atoms: N_7  and  C_8 
REMARK    3  A    between atoms: C_8  and  C_9 
REMARK    4  A    between atoms: C_9  and  S_10 
REMARK    5  A    between atoms: S_10  and  C_11 
REMARK    6  A    between atoms: C_23  and  C_24 
REMARK    7  A    between atoms: C_24  and  C_25 
REMARK       I    between atoms: C_25  and  N_26 
REMARK    8  A    between atoms: N_26  and  C_27 
ROOT
HETATM    1  C   UNL     1      23.699  46.333  48.988  1.00  0.00     0.178 A 
HETATM    2  N   UNL     1      22.809  46.173  47.936  1.00  0.00    -0.241 N 
HETATM    3  C   UNL     1      22.070  47.213  47.477  1.00  0.00     0.147 A 
HETATM    4  N   UNL     1      21.180  46.963  46.567  1.00  0.00    -0.256 NA
HETATM    5  C   UNL     1      22.322  48.535  48.049  1.00  0.00     0.039 A 
HETATM    6  C   UNL     1      23.275  48.608  49.069  1.00  0.00     0.073 A 
HETATM    7  C   UNL     1      21.644  49.671  47.596  1.00  0.00     0.018 A 
HETATM    8  C   UNL     1      21.919  50.906  48.180  1.00  0.00     0.001 A 
HETATM    9  C   UNL     1      22.857  50.996  49.208  1.00  0.00     0.002 A 
HETATM   10  C   UNL     1      23.529  49.851  49.652  1.00  0.00     0.032 A 
HETATM   11  C   UNL     1      22.463  45.063  47.199  1.00  0.00     0.257 A 
HETATM   12  O   UNL     1      22.964  43.951  47.204  1.00  0.00    -0.270 OA
HETATM   13  C   UNL     1      21.325  45.502  46.297  1.00  0.00     0.211 A 
HETATM   14  N   UNL     1      23.961  47.474  49.543  1.00  0.00    -0.223 NA
ENDROOT
BRANCH   1  15
HETATM   15  S   UNL     1      24.480  44.939  49.686  1.00  0.00    -0.082 SA
BRANCH  15  16
HETATM   16  C   UNL     1      24.500  45.437  51.425  1.00  0.00     0.185 C 
BRANCH  16  17
HETATM   17  C   UNL     1      25.890  45.676  52.002  1.00  0.00     0.231 C 
HETATM   18  N   UNL     1      26.289  44.782  52.976  1.00  0.00    -0.327 N 
HETATM   19  H   UNL     1      25.710  43.956  53.107  1.00  0.00     0.169 HD
HETATM   20  O   UNL     1      26.516  46.676  51.653  1.00  0.00    -0.272 OA
BRANCH  18  21
HETATM   21  C   UNL     1      27.408  44.875  53.829  1.00  0.00     0.034 A 
HETATM   22  C   UNL     1      27.601  45.889  54.763  1.00  0.00     0.030 A 
HETATM   23  C   UNL     1      28.709  45.865  55.622  1.00  0.00     0.010 A 
HETATM   24  C   UNL     1      29.639  44.821  55.576  1.00  0.00    -0.055 A 
HETATM   25  C   UNL     1      29.452  43.819  54.611  1.00  0.00     0.010 A 
HETATM   26  C   UNL     1      28.355  43.852  53.746  1.00  0.00     0.030 A 
BRANCH  24  27
HETATM   27  C   UNL     1      30.831  44.722  56.516  1.00  0.00     0.010 C 
HETATM   28  C   UNL     1      31.387  43.307  56.707  1.00  0.00     0.015 C 
HETATM   29  C   UNL     1      30.497  45.338  57.878  1.00  0.00     0.015 C 
ENDBRANCH  24  27
ENDBRANCH  18  21
ENDBRANCH  16  17
ENDBRANCH  15  16
ENDBRANCH   1  15
BRANCH  13  30
HETATM   30  C   UNL     1      20.067  44.755  46.687  1.00  0.00     0.140 C 
BRANCH  30  31
HETATM   31  C   UNL     1      19.462  45.322  47.946  1.00  0.00     0.220 C 
HETATM   32  N   UNL     1      18.513  46.292  47.715  1.00  0.00    -0.356 N 
HETATM   33  H   UNL     1      18.302  46.536  46.758  1.00  0.00     0.162 HD
HETATM   34  O   UNL     1      19.819  44.959  49.061  1.00  0.00    -0.274 OA
BRANCH  32  35
HETATM   35  C   UNL     1      18.026  47.166  48.775  1.00  0.00     0.084 C 
HETATM   36  C   UNL     1      18.615  48.578  48.624  1.00  0.00     0.025 C 
HETATM   37  C   UNL     1      18.065  49.301  47.395  1.00  0.00     0.002 C 
HETATM   38  C   UNL     1      16.541  49.354  47.411  1.00  0.00     0.000 C 
HETATM   39  C   UNL     1      15.922  47.969  47.572  1.00  0.00     0.002 C 
HETATM   40  C   UNL     1      16.493  47.218  48.777  1.00  0.00     0.025 C 
ENDBRANCH  32  35
ENDBRANCH  30  31
ENDBRANCH  13  30
TORSDOF 8
ENDMDL
MODEL 8
REMARK VINA RESULT:      -9.6      2.115      9.908
REMARK  8 active torsions:
REMARK  status: ('A' for Active; 'I' for Inactive)
REMARK    1  A    between atoms: C_2  and  C_3 
REMARK    2  A    between atoms: C_6  and  N_7 
REMARK       I    between atoms: N_7  and  C_8 
REMARK    3  A    between atoms: C_8  and  C_9 
REMARK    4  A    between atoms: C_9  and  S_10 
REMARK    5  A    between atoms: S_10  and  C_11 
REMARK    6  A    between atoms: C_23  and  C_24 
REMARK    7  A    between atoms: C_24  and  C_25 
REMARK       I    between atoms: C_25  and  N_26 
REMARK    8  A    between atoms: N_26  and  C_27 
ROOT
HETATM    1  C   UNL     1      23.808  43.607  48.789  1.00  0.00     0.178 A 
HETATM    2  N   UNL     1      24.839  44.393  49.282  1.00  0.00    -0.241 N 
HETATM    3  C   UNL     1      26.056  43.863  49.557  1.00  0.00     0.147 A 
HETATM    4  N   UNL     1      26.935  44.634  50.121  1.00  0.00    -0.256 NA
HETATM    5  C   UNL     1      26.285  42.461  49.212  1.00  0.00     0.039 A 
HETATM    6  C   UNL     1      25.203  41.762  48.670  1.00  0.00     0.073 A 
HETATM    7  C   UNL     1      27.527  41.850  49.411  1.00  0.00     0.018 A 
HETATM    8  C   UNL     1      27.689  40.509  49.068  1.00  0.00     0.001 A 
HETATM    9  C   UNL     1      26.616  39.792  48.540  1.00  0.00     0.002 A 
HETATM   10  C   UNL     1      25.379  40.415  48.345  1.00  0.00     0.032 A 
HETATM   11  C   UNL     1      24.887  45.729  49.609  1.00  0.00     0.257 A 
HETATM   12  O   UNL     1      24.053  46.598  49.414  1.00  0.00    -0.270 OA
HETATM   13  C   UNL     1      26.248  45.955  50.239  1.00  0.00     0.211 A 
HETATM   14  N   UNL     1      23.943  42.358  48.470  1.00  0.00    -0.223 NA
ENDROOT
BRANCH   1  15
HETATM   15  S   UNL     1      22.203  44.271  48.639  1.00  0.00    -0.082 SA
BRANCH  15  16
HETATM   16  C   UNL     1      22.272  44.855  46.928  1.00  0.00     0.185 C 
BRANCH  16  17
HETATM   17  C   UNL     1      21.742  46.269  46.717  1.00  0.00     0.231 C 
HETATM   18  N   UNL     1      21.806  47.097  47.820  1.00  0.00    -0.327 N 
HETATM   19  H   UNL     1      22.343  46.762  48.616  1.00  0.00     0.169 HD
HETATM   20  O   UNL     1      21.212  46.551  45.644  1.00  0.00    -0.272 OA
BRANCH  18  21
HETATM   21  C   UNL     1      21.205  48.361  47.988  1.00  0.00     0.034 A 
HETATM   22  C   UNL     1      21.890  49.572  47.927  1.00  0.00     0.030 A 
HETATM   23  C   UNL     1      21.200  50.788  48.035  1.00  0.00     0.010 A 
HETATM   24  C   UNL     1      19.810  50.820  48.191  1.00  0.00    -0.055 A 
HETATM   25  C   UNL     1      19.132  49.596  48.281  1.00  0.00     0.010 A 
HETATM   26  C   UNL     1      19.822  48.384  48.188  1.00  0.00     0.030 A 
BRANCH  24  27
HETATM   27  C   UNL     1      19.008  52.112  48.264  1.00  0.00     0.010 C 
HETATM   28  C   UNL     1      18.317  52.366  49.607  1.00  0.00     0.015 C 
HETATM   29  C   UNL     1      17.981  52.175  47.130  1.00  0.00     0.015 C 
ENDBRANCH  24  27
ENDBRANCH  18  21
ENDBRANCH  16  17
ENDBRANCH  15  16
ENDBRANCH   1  15
BRANCH  13  30
HETATM   30  C   UNL     1      26.063  46.338  51.692  1.00  0.00     0.140 C 
BRANCH  30  31
HETATM   31  C   UNL     1      25.976  45.118  52.573  1.00  0.00     0.220 C 
HETATM   32  N   UNL     1      27.187  44.725  53.097  1.00  0.00    -0.356 N 
HETATM   33  H   UNL     1      28.007  45.267  52.862  1.00  0.00     0.162 HD
HETATM   34  O   UNL     1      24.919  44.528  52.766  1.00  0.00    -0.274 OA
BRANCH  32  35
HETATM   35  C   UNL     1      27.374  43.421  53.722  1.00  0.00     0.084 C 
HETATM   36  C   UNL     1      28.079  42.456  52.756  1.00  0.00     0.025 C 
HETATM   37  C   UNL     1      29.534  42.854  52.505  1.00  0.00     0.002 C 
HETATM   38  C   UNL     1      30.315  42.974  53.809  1.00  0.00     0.000 C 
HETATM   39  C   UNL     1      29.637  43.917  54.798  1.00  0.00     0.002 C 
HETATM   40  C   UNL     1      28.168  43.553  55.029  1.00  0.00     0.025 C 
ENDBRANCH  32  35
ENDBRANCH  30  31
ENDBRANCH  13  30
TORSDOF 8
ENDMDL
MODEL 9
REMARK VINA RESULT:      -9.2      3.359     11.218
REMARK  8 active torsions:
REMARK  status: ('A' for Active; 'I' for Inactive)
REMARK    1  A    between atoms: C_2  and  C_3 
REMARK    2  A    between atoms: C_6  and  N_7 
REMARK       I    between atoms: N_7  and  C_8 
REMARK    3  A    between atoms: C_8  and  C_9 
REMARK    4  A    between atoms: C_9  and  S_10 
REMARK    5  A    between atoms: S_10  and  C_11 
REMARK    6  A    between atoms: C_23  and  C_24 
REMARK    7  A    between atoms: C_24  and  C_25 
REMARK       I    between atoms: C_25  and  N_26 
REMARK    8  A    between atoms: N_26  and  C_27 
ROOT
HETATM    1  C   UNL     1      26.042  44.029  52.007  1.00  0.00     0.178 A 
HETATM    2  N   UNL     1      26.664  42.807  51.802  1.00  0.00    -0.241 N 
HETATM    3  C   UNL     1      27.801  42.477  52.464  1.00  0.00     0.147 A 
HETATM    4  N   UNL     1      28.386  41.367  52.138  1.00  0.00    -0.256 NA
HETATM    5  C   UNL     1      28.289  43.403  53.486  1.00  0.00     0.039 A 
HETATM    6  C   UNL     1      27.567  44.587  53.660  1.00  0.00     0.073 A 
HETATM    7  C   UNL     1      29.422  43.115  54.254  1.00  0.00     0.018 A 
HETATM    8  C   UNL     1      29.847  44.035  55.211  1.00  0.00     0.001 A 
HETATM    9  C   UNL     1      29.147  45.228  55.388  1.00  0.00     0.002 A 
HETATM   10  C   UNL     1      28.014  45.503  54.614  1.00  0.00     0.032 A 
HETATM   11  C   UNL     1      26.356  41.759  50.965  1.00  0.00     0.257 A 
HETATM   12  O   UNL     1      25.360  41.591  50.280  1.00  0.00    -0.270 OA
HETATM   13  C   UNL     1      27.504  40.775  51.089  1.00  0.00     0.211 A 
HETATM   14  N   UNL     1      26.429  44.896  52.891  1.00  0.00    -0.223 NA
ENDROOT
BRANCH   1  15
HETATM   15  S   UNL     1      24.704  44.505  50.996  1.00  0.00    -0.082 SA
BRANCH  15  16
HETATM   16  C   UNL     1      25.489  45.834  50.054  1.00  0.00     0.185 C 
BRANCH  16  17
HETATM   17  C   UNL     1      24.685  47.127  49.985  1.00  0.00     0.231 C 
HETATM   18  N   UNL     1      23.399  47.000  49.498  1.00  0.00    -0.327 N 
HETATM   19  H   UNL     1      23.041  46.055  49.386  1.00  0.00     0.169 HD
HETATM   20  O   UNL     1      25.240  48.189  50.263  1.00  0.00    -0.272 OA
BRANCH  18  21
HETATM   21  C   UNL     1      22.512  48.029  49.123  1.00  0.00     0.034 A 
HETATM   22  C   UNL     1      21.227  47.818  48.628  1.00  0.00     0.030 A 
HETATM   23  C   UNL     1      20.384  48.903  48.346  1.00  0.00     0.010 A 
HETATM   24  C   UNL     1      20.801  50.220  48.566  1.00  0.00    -0.055 A 
HETATM   25  C   UNL     1      22.108  50.424  49.036  1.00  0.00     0.010 A 
HETATM   26  C   UNL     1      22.951  49.343  49.302  1.00  0.00     0.030 A 
BRANCH  24  27
HETATM   27  C   UNL     1      19.911  51.429  48.322  1.00  0.00     0.010 C 
HETATM   28  C   UNL     1      19.124  51.908  49.547  1.00  0.00     0.015 C 
HETATM   29  C   UNL     1      18.951  51.168  47.158  1.00  0.00     0.015 C 
ENDBRANCH  24  27
ENDBRANCH  18  21
ENDBRANCH  16  17
ENDBRANCH  15  16
ENDBRANCH   1  15
BRANCH  13  30
HETATM   30  C   UNL     1      28.228  40.690  49.762  1.00  0.00     0.140 C 
BRANCH  30  31
HETATM   31  C   UNL     1      28.608  39.268  49.436  1.00  0.00     0.220 C 
HETATM   32  N   UNL     1      28.273  38.885  48.157  1.00  0.00    -0.356 N 
HETATM   33  H   UNL     1      27.819  39.561  47.559  1.00  0.00     0.162 HD
HETATM   34  O   UNL     1      29.138  38.531  50.259  1.00  0.00    -0.274 OA
BRANCH  32  35
HETATM   35  C   UNL     1      28.280  37.488  47.741  1.00  0.00     0.084 C 
HETATM   36  C   UNL     1      26.895  36.855  47.949  1.00  0.00     0.025 C 
HETATM   37  C   UNL     1      25.852  37.425  46.988  1.00  0.00     0.002 C 
HETATM   38  C   UNL     1      26.293  37.284  45.535  1.00  0.00     0.000 C 
HETATM   39  C   UNL     1      27.672  37.892  45.293  1.00  0.00     0.002 C 
HETATM   40  C   UNL     1      28.718  37.359  46.275  1.00  0.00     0.025 C 
ENDBRANCH  32  35
ENDBRANCH  30  31
ENDBRANCH  13  30
TORSDOF 8
ENDMDL
MODEL 10
REMARK VINA RESULT:      -9.1      2.006      7.870
REMARK  8 active torsions:
REMARK  status: ('A' for Active; 'I' for Inactive)
REMARK    1  A    between atoms: C_2  and  C_3 
REMARK    2  A    between atoms: C_6  and  N_7 
REMARK       I    between atoms: N_7  and  C_8 
REMARK    3  A    between atoms: C_8  and  C_9 
REMARK    4  A    between atoms: C_9  and  S_10 
REMARK    5  A    between atoms: S_10  and  C_11 
REMARK    6  A    between atoms: C_23  and  C_24 
REMARK    7  A    between atoms: C_24  and  C_25 
REMARK       I    between atoms: C_25  and  N_26 
REMARK    8  A    between atoms: N_26  and  C_27 
ROOT
HETATM    1  C   UNL     1      27.003  44.117  51.569  1.00  0.00     0.178 A 
HETATM    2  N   UNL     1      26.514  45.367  51.221  1.00  0.00    -0.241 N 
HETATM    3  C   UNL     1      26.485  46.384  52.116  1.00  0.00     0.147 A 
HETATM    4  N   UNL     1      25.911  47.490  51.752  1.00  0.00    -0.256 NA
HETATM    5  C   UNL     1      27.089  46.157  53.428  1.00  0.00     0.039 A 
HETATM    6  C   UNL     1      27.605  44.881  53.671  1.00  0.00     0.073 A 
HETATM    7  C   UNL     1      27.151  47.169  54.392  1.00  0.00     0.018 A 
HETATM    8  C   UNL     1      27.734  46.897  55.628  1.00  0.00     0.001 A 
HETATM    9  C   UNL     1      28.241  45.625  55.893  1.00  0.00     0.002 A 
HETATM   10  C   UNL     1      28.173  44.621  54.920  1.00  0.00     0.032 A 
HETATM   11  C   UNL     1      25.974  45.836  50.045  1.00  0.00     0.257 A 
HETATM   12  O   UNL     1      25.914  45.290  48.955  1.00  0.00    -0.270 OA
HETATM   13  C   UNL     1      25.487  47.241  50.342  1.00  0.00     0.211 A 
HETATM   14  N   UNL     1      27.543  43.848  52.717  1.00  0.00    -0.223 NA
ENDROOT
BRANCH   1  15
HETATM   15  S   UNL     1      26.839  42.779  50.463  1.00  0.00    -0.082 SA
BRANCH  15  16
HETATM   16  C   UNL     1      25.124  42.312  50.797  1.00  0.00     0.185 C 
BRANCH  16  17
HETATM   17  C   UNL     1      24.195  42.399  49.593  1.00  0.00     0.231 C 
HETATM   18  N   UNL     1      23.590  43.626  49.399  1.00  0.00    -0.327 N 
HETATM   19  H   UNL     1      23.933  44.402  49.959  1.00  0.00     0.169 HD
HETATM   20  O   UNL     1      23.964  41.380  48.944  1.00  0.00    -0.272 OA
BRANCH  18  21
HETATM   21  C   UNL     1      22.535  43.939  48.517  1.00  0.00     0.034 A 
HETATM   22  C   UNL     1      22.393  43.404  47.240  1.00  0.00     0.030 A 
HETATM   23  C   UNL     1      21.273  43.717  46.456  1.00  0.00     0.010 A 
HETATM   24  C   UNL     1      20.265  44.560  46.937  1.00  0.00    -0.055 A 
HETATM   25  C   UNL     1      20.432  45.118  48.214  1.00  0.00     0.010 A 
HETATM   26  C   UNL     1      21.555  44.817  48.988  1.00  0.00     0.030 A 
BRANCH  24  27
HETATM   27  C   UNL     1      19.008  44.893  46.147  1.00  0.00     0.010 C 
HETATM   28  C   UNL     1      17.807  45.321  46.997  1.00  0.00     0.015 C 
HETATM   29  C   UNL     1      18.613  43.723  45.242  1.00  0.00     0.015 C 
ENDBRANCH  24  27
ENDBRANCH  18  21
ENDBRANCH  16  17
ENDBRANCH  15  16
ENDBRANCH   1  15
BRANCH  13  30
HETATM   30  C   UNL     1      23.978  47.279  50.220  1.00  0.00     0.140 C 
BRANCH  30  31
HETATM   31  C   UNL     1      23.528  48.421  49.345  1.00  0.00     0.220 C 
HETATM   32  N   UNL     1      22.171  48.646  49.384  1.00  0.00    -0.356 N 
HETATM   33  H   UNL     1      21.605  48.054  49.976  1.00  0.00     0.162 HD
HETATM   34  O   UNL     1      24.312  49.056  48.649  1.00  0.00    -0.274 OA
BRANCH  32  35
HETATM   35  C   UNL     1      21.498  49.493  48.407  1.00  0.00     0.084 C 
HETATM   36  C   UNL     1      20.121  48.912  48.047  1.00  0.00     0.025 C 
HETATM   37  C   UNL     1      19.137  49.000  49.213  1.00  0.00     0.002 C 
HETATM   38  C   UNL     1      18.999  50.431  49.722  1.00  0.00     0.000 C 
HETATM   39  C   UNL     1      20.350  51.045  50.079  1.00  0.00     0.002 C 
HETATM   40  C   UNL     1      21.358  50.927  48.933  1.00  0.00     0.025 C 
ENDBRANCH  32  35
ENDBRANCH  30  31
ENDBRANCH  13  30
TORSDOF 8
ENDMDL
