MODEL 1
REMARK VINA RESULT:      -9.8      0.000      0.000
REMARK  7 active torsions:
REMARK  status: ('A' for Active; 'I' for Inactive)
REMARK    1  A    between atoms: O_2  and  C_3 
REMARK    2  A    between atoms: C_4  and  C_5 
REMARK       I    between atoms: C_5  and  N_6 
REMARK    3  A    between atoms: N_6  and  C_7 
REMARK    4  A    between atoms: C_7  and  N_8 
REMARK    5  A    between atoms: N_8  and  C_9 
REMARK    6  A    between atoms: C_10  and  N_11 
REMARK       I    between atoms: N_14  and  C_15 
REMARK    7  A    between atoms: C_15  and  C_16 
ROOT
HETATM    1  C   UNL     1      22.296  48.779  48.979  1.00  0.00     0.060 A 
HETATM    2  C   UNL     1      23.674  48.534  49.183  1.00  0.00     0.057 A 
HETATM    3  C   UNL     1      24.589  49.391  48.560  1.00  0.00     0.031 A 
HETATM    4  C   UNL     1      24.150  50.451  47.760  1.00  0.00     0.002 A 
HETATM    5  C   UNL     1      22.789  50.671  47.564  1.00  0.00     0.002 A 
HETATM    6  C   UNL     1      21.856  49.834  48.174  1.00  0.00     0.032 A 
ENDROOT
BRANCH   1   7
HETATM    7  N   UNL     1      21.367  47.914  49.602  1.00  0.00    -0.336 N 
HETATM    8  H   UNL     1      21.798  47.229  50.210  1.00  0.00     0.168 HD
BRANCH   7   9
HETATM    9  C   UNL     1      20.221  47.386  49.056  1.00  0.00     0.157 C 
HETATM   10  S   UNL     1      20.394  46.566  47.606  1.00  0.00    -0.047 SA
BRANCH   9  11
HETATM   11  N   UNL     1      19.046  47.676  49.721  1.00  0.00    -0.201 NA
HETATM   12  C   UNL     1      18.753  48.886  50.333  1.00  0.00     0.240 C 
HETATM   13  O   UNL     1      18.682  48.910  51.558  1.00  0.00    -0.274 OA
HETATM   14  H   UNL     1      18.896  46.962  50.424  1.00  0.00     0.139 HD
BRANCH  12  15
HETATM   15  C   UNL     1      18.459  50.080  49.492  1.00  0.00     0.060 A 
HETATM   16  C   UNL     1      17.650  49.978  48.349  1.00  0.00     0.083 A 
HETATM   17  C   UNL     1      17.462  51.083  47.512  1.00  0.00     0.038 A 
HETATM   18  C   UNL     1      18.048  52.307  47.828  1.00  0.00     0.003 A 
HETATM   19  C   UNL     1      18.832  52.428  48.974  1.00  0.00     0.001 A 
HETATM   20  C   UNL     1      19.046  51.320  49.797  1.00  0.00     0.019 A 
BRANCH  16  21
HETATM   21  O   UNL     1      17.076  48.796  47.962  1.00  0.00    -0.355 OA
HETATM   22  C   UNL     1      15.653  48.878  48.044  1.00  0.00     0.210 C 
ENDBRANCH  16  21
ENDBRANCH  12  15
ENDBRANCH   9  11
ENDBRANCH   7   9
ENDBRANCH   1   7
BRANCH   2  23
HETATM   23  N   UNL     1      24.061  47.375  49.864  1.00  0.00    -0.376 N 
HETATM   24  C   UNL     1      25.351  47.419  50.578  1.00  0.00     0.143 C 
HETATM   25  C   UNL     1      25.337  46.317  51.667  1.00  0.00     0.146 C 
HETATM   26  N   UNL     1      25.024  44.999  51.086  1.00  0.00    -0.345 N 
HETATM   27  C   UNL     1      25.851  43.889  51.153  1.00  0.00     0.253 C 
HETATM   28  C   UNL     1      23.832  44.959  50.228  1.00  0.00     0.146 C 
HETATM   29  O   UNL     1      25.803  42.953  50.363  1.00  0.00    -0.267 OA
HETATM   30  C   UNL     1      23.841  46.082  49.177  1.00  0.00     0.143 C 
BRANCH  27  31
HETATM   31  C   UNL     1      26.814  43.814  52.272  1.00  0.00     0.032 A 
HETATM   32  C   UNL     1      26.344  43.778  53.592  1.00  0.00     0.017 A 
HETATM   33  C   UNL     1      27.253  43.680  54.644  1.00  0.00     0.001 A 
HETATM   34  C   UNL     1      28.622  43.613  54.377  1.00  0.00     0.000 A 
HETATM   35  C   UNL     1      29.085  43.632  53.058  1.00  0.00     0.001 A 
HETATM   36  C   UNL     1      28.180  43.723  52.000  1.00  0.00     0.017 A 
ENDBRANCH  27  31
ENDBRANCH   2  23
TORSDOF 7
ENDMDL
MODEL 2
REMARK VINA RESULT:      -9.2      2.676      9.937
REMARK  7 active torsions:
REMARK  status: ('A' for Active; 'I' for Inactive)
REMARK    1  A    between atoms: O_2  and  C_3 
REMARK    2  A    between atoms: C_4  and  C_5 
REMARK       I    between atoms: C_5  and  N_6 
REMARK    3  A    between atoms: N_6  and  C_7 
REMARK    4  A    between atoms: C_7  and  N_8 
REMARK    5  A    between atoms: N_8  and  C_9 
REMARK    6  A    between atoms: C_10  and  N_11 
REMARK       I    between atoms: N_14  and  C_15 
REMARK    7  A    between atoms: C_15  and  C_16 
ROOT
HETATM    1  C   UNL     1      23.543  44.032  50.041  1.00  0.00     0.060 A 
HETATM    2  C   UNL     1      22.813  44.578  48.959  1.00  0.00     0.057 A 
HETATM    3  C   UNL     1      22.462  43.720  47.909  1.00  0.00     0.031 A 
HETATM    4  C   UNL     1      22.827  42.370  47.932  1.00  0.00     0.002 A 
HETATM    5  C   UNL     1      23.555  41.854  49.002  1.00  0.00     0.002 A 
HETATM    6  C   UNL     1      23.915  42.685  50.062  1.00  0.00     0.032 A 
ENDROOT
BRANCH   1   7
HETATM    7  N   UNL     1      23.904  44.894  51.102  1.00  0.00    -0.336 N 
HETATM    8  H   UNL     1      23.369  45.754  51.124  1.00  0.00     0.168 HD
BRANCH   7   9
HETATM    9  C   UNL     1      25.164  45.126  51.598  1.00  0.00     0.157 C 
HETATM   10  S   UNL     1      26.436  44.936  50.524  1.00  0.00    -0.047 SA
BRANCH   9  11
HETATM   11  N   UNL     1      25.242  45.397  52.950  1.00  0.00    -0.201 NA
HETATM   12  C   UNL     1      25.525  44.463  53.936  1.00  0.00     0.240 C 
HETATM   13  O   UNL     1      24.628  44.159  54.717  1.00  0.00    -0.274 OA
HETATM   14  H   UNL     1      24.381  45.850  53.232  1.00  0.00     0.139 HD
BRANCH  12  15
HETATM   15  C   UNL     1      26.910  43.927  54.062  1.00  0.00     0.060 A 
HETATM   16  C   UNL     1      27.962  44.742  54.512  1.00  0.00     0.083 A 
HETATM   17  C   UNL     1      29.274  44.259  54.531  1.00  0.00     0.038 A 
HETATM   18  C   UNL     1      29.543  42.949  54.139  1.00  0.00     0.003 A 
HETATM   19  C   UNL     1      28.504  42.123  53.715  1.00  0.00     0.001 A 
HETATM   20  C   UNL     1      27.195  42.610  53.667  1.00  0.00     0.019 A 
BRANCH  16  21
HETATM   21  O   UNL     1      27.771  46.048  54.875  1.00  0.00    -0.355 OA
HETATM   22  C   UNL     1      28.421  46.324  56.117  1.00  0.00     0.210 C 
ENDBRANCH  16  21
ENDBRANCH  12  15
ENDBRANCH   9  11
ENDBRANCH   7   9
ENDBRANCH   1   7
BRANCH   2  23
HETATM   23  N   UNL     1      22.606  45.961  48.912  1.00  0.00    -0.376 N 
HETATM   24  C   UNL     1      21.313  46.424  48.374  1.00  0.00     0.143 C 
HETATM   25  C   UNL     1      21.060  47.860  48.897  1.00  0.00     0.146 C 
HETATM   26  N   UNL     1      22.191  48.750  48.578  1.00  0.00    -0.345 N 
HETATM   27  C   UNL     1      22.098  49.906  47.818  1.00  0.00     0.253 C 
HETATM   28  C   UNL     1      23.517  48.239  48.953  1.00  0.00     0.146 C 
HETATM   29  O   UNL     1      23.044  50.409  47.223  1.00  0.00    -0.267 OA
HETATM   30  C   UNL     1      23.739  46.799  48.460  1.00  0.00     0.143 C 
BRANCH  27  31
HETATM   31  C   UNL     1      20.790  50.592  47.765  1.00  0.00     0.032 A 
HETATM   32  C   UNL     1      20.512  51.631  48.663  1.00  0.00     0.017 A 
HETATM   33  C   UNL     1      19.288  52.294  48.592  1.00  0.00     0.001 A 
HETATM   34  C   UNL     1      18.351  51.922  47.627  1.00  0.00     0.000 A 
HETATM   35  C   UNL     1      18.638  50.896  46.723  1.00  0.00     0.001 A 
HETATM   36  C   UNL     1      19.864  50.233  46.784  1.00  0.00     0.017 A 
ENDBRANCH  27  31
ENDBRANCH   2  23
TORSDOF 7
ENDMDL
MODEL 3
REMARK VINA RESULT:      -9.1      2.199      9.251
REMARK  7 active torsions:
REMARK  status: ('A' for Active; 'I' for Inactive)
REMARK    1  A    between atoms: O_2  and  C_3 
REMARK    2  A    between atoms: C_4  and  C_5 
REMARK       I    between atoms: C_5  and  N_6 
REMARK    3  A    between atoms: N_6  and  C_7 
REMARK    4  A    between atoms: C_7  and  N_8 
REMARK    5  A    between atoms: N_8  and  C_9 
REMARK    6  A    between atoms: C_10  and  N_11 
REMARK       I    between atoms: N_14  and  C_15 
REMARK    7  A    between atoms: C_15  and  C_16 
ROOT
HETATM    1  C   UNL     1      25.259  48.007  49.820  1.00  0.00     0.060 A 
HETATM    2  C   UNL     1      24.666  49.022  49.033  1.00  0.00     0.057 A 
HETATM    3  C   UNL     1      25.516  49.898  48.347  1.00  0.00     0.031 A 
HETATM    4  C   UNL     1      26.906  49.771  48.442  1.00  0.00     0.002 A 
HETATM    5  C   UNL     1      27.471  48.770  49.230  1.00  0.00     0.002 A 
HETATM    6  C   UNL     1      26.647  47.884  49.922  1.00  0.00     0.032 A 
ENDROOT
BRANCH   1   7
HETATM    7  N   UNL     1      24.405  47.123  50.519  1.00  0.00    -0.336 N 
HETATM    8  H   UNL     1      24.050  47.506  51.386  1.00  0.00     0.168 HD
BRANCH   7   9
HETATM    9  C   UNL     1      24.532  45.759  50.639  1.00  0.00     0.157 C 
HETATM   10  S   UNL     1      24.906  44.918  49.239  1.00  0.00    -0.047 SA
BRANCH   9  11
HETATM   11  N   UNL     1      24.242  45.232  51.882  1.00  0.00    -0.201 NA
HETATM   12  C   UNL     1      25.171  44.681  52.752  1.00  0.00     0.240 C 
HETATM   13  O   UNL     1      25.123  43.472  52.957  1.00  0.00    -0.274 OA
HETATM   14  H   UNL     1      23.516  44.535  51.768  1.00  0.00     0.139 HD
BRANCH  12  15
HETATM   15  C   UNL     1      26.130  45.574  53.462  1.00  0.00     0.060 A 
HETATM   16  C   UNL     1      27.407  45.118  53.829  1.00  0.00     0.083 A 
HETATM   17  C   UNL     1      28.261  45.930  54.582  1.00  0.00     0.038 A 
HETATM   18  C   UNL     1      27.865  47.216  54.942  1.00  0.00     0.003 A 
HETATM   19  C   UNL     1      26.611  47.690  54.562  1.00  0.00     0.001 A 
HETATM   20  C   UNL     1      25.743  46.872  53.834  1.00  0.00     0.019 A 
BRANCH  16  21
HETATM   21  O   UNL     1      27.842  43.852  53.539  1.00  0.00    -0.355 OA
HETATM   22  C   UNL     1      28.905  43.474  54.415  1.00  0.00     0.210 C 
ENDBRANCH  16  21
ENDBRANCH  12  15
ENDBRANCH   9  11
ENDBRANCH   7   9
ENDBRANCH   1   7
BRANCH   2  23
HETATM   23  N   UNL     1      23.280  49.200  49.092  1.00  0.00    -0.376 N 
HETATM   24  C   UNL     1      22.464  48.421  48.141  1.00  0.00     0.143 C 
HETATM   25  C   UNL     1      21.024  48.328  48.704  1.00  0.00     0.146 C 
HETATM   26  N   UNL     1      20.480  49.666  48.998  1.00  0.00    -0.345 N 
HETATM   27  C   UNL     1      19.331  50.194  48.429  1.00  0.00     0.253 C 
HETATM   28  C   UNL     1      21.347  50.533  49.808  1.00  0.00     0.146 C 
HETATM   29  O   UNL     1      19.102  51.395  48.345  1.00  0.00    -0.267 OA
HETATM   30  C   UNL     1      22.783  50.585  49.259  1.00  0.00     0.143 C 
BRANCH  27  31
HETATM   31  C   UNL     1      18.307  49.247  47.940  1.00  0.00     0.032 A 
HETATM   32  C   UNL     1      17.458  48.607  48.853  1.00  0.00     0.017 A 
HETATM   33  C   UNL     1      16.476  47.736  48.387  1.00  0.00     0.001 A 
HETATM   34  C   UNL     1      16.340  47.510  47.016  1.00  0.00     0.000 A 
HETATM   35  C   UNL     1      17.178  48.164  46.107  1.00  0.00     0.001 A 
HETATM   36  C   UNL     1      18.159  49.042  46.567  1.00  0.00     0.017 A 
ENDBRANCH  27  31
ENDBRANCH   2  23
TORSDOF 7
ENDMDL
MODEL 4
REMARK VINA RESULT:      -9.0      1.900      9.198
REMARK  7 active torsions:
REMARK  status: ('A' for Active; 'I' for Inactive)
REMARK    1  A    between atoms: O_2  and  C_3 
REMARK    2  A    between atoms: C_4  and  C_5 
REMARK       I    between atoms: C_5  and  N_6 
REMARK    3  A    between atoms: N_6  and  C_7 
REMARK    4  A    between atoms: C_7  and  N_8 
REMARK    5  A    between atoms: N_8  and  C_9 
REMARK    6  A    between atoms: C_10  and  N_11 
REMARK       I    between atoms: N_14  and  C_15 
REMARK    7  A    between atoms: C_15  and  C_16 
ROOT
HETATM    1  C   UNL     1      25.184  47.959  49.754  1.00  0.00     0.060 A 
HETATM    2  C   UNL     1      24.602  49.015  49.014  1.00  0.00     0.057 A 
HETATM    3  C   UNL     1      25.463  49.907  48.363  1.00  0.00     0.031 A 
HETATM    4  C   UNL     1      26.851  49.758  48.448  1.00  0.00     0.002 A 
HETATM    5  C   UNL     1      27.405  48.717  49.190  1.00  0.00     0.002 A 
HETATM    6  C   UNL     1      26.571  47.813  49.847  1.00  0.00     0.032 A 
ENDROOT
BRANCH   1   7
HETATM    7  N   UNL     1      24.321  47.057  50.418  1.00  0.00    -0.336 N 
HETATM    8  H   UNL     1      24.229  47.242  51.409  1.00  0.00     0.168 HD
BRANCH   7   9
HETATM    9  C   UNL     1      24.185  45.709  50.189  1.00  0.00     0.157 C 
HETATM   10  S   UNL     1      24.268  45.210  48.592  1.00  0.00    -0.047 SA
BRANCH   9  11
HETATM   11  N   UNL     1      23.900  44.933  51.296  1.00  0.00    -0.201 NA
HETATM   12  C   UNL     1      24.532  43.741  51.619  1.00  0.00     0.240 C 
HETATM   13  O   UNL     1      23.880  42.704  51.542  1.00  0.00    -0.274 OA
HETATM   14  H   UNL     1      22.907  44.734  51.295  1.00  0.00     0.139 HD
BRANCH  12  15
HETATM   15  C   UNL     1      25.936  43.767  52.118  1.00  0.00     0.060 A 
HETATM   16  C   UNL     1      26.323  44.650  53.140  1.00  0.00     0.083 A 
HETATM   17  C   UNL     1      27.663  44.737  53.532  1.00  0.00     0.038 A 
HETATM   18  C   UNL     1      28.620  43.919  52.935  1.00  0.00     0.003 A 
HETATM   19  C   UNL     1      28.244  43.021  51.938  1.00  0.00     0.001 A 
HETATM   20  C   UNL     1      26.911  42.951  51.524  1.00  0.00     0.019 A 
BRANCH  16  21
HETATM   21  O   UNL     1      25.440  45.507  53.741  1.00  0.00    -0.355 OA
HETATM   22  C   UNL     1      25.914  46.852  53.665  1.00  0.00     0.210 C 
ENDBRANCH  16  21
ENDBRANCH  12  15
ENDBRANCH   9  11
ENDBRANCH   7   9
ENDBRANCH   1   7
BRANCH   2  23
HETATM   23  N   UNL     1      23.219  49.209  49.085  1.00  0.00    -0.376 N 
HETATM   24  C   UNL     1      22.389  48.469  48.115  1.00  0.00     0.143 C 
HETATM   25  C   UNL     1      20.951  48.378  48.682  1.00  0.00     0.146 C 
HETATM   26  N   UNL     1      20.425  49.713  49.019  1.00  0.00    -0.345 N 
HETATM   27  C   UNL     1      19.280  50.273  48.473  1.00  0.00     0.253 C 
HETATM   28  C   UNL     1      21.307  50.544  49.851  1.00  0.00     0.146 C 
HETATM   29  O   UNL     1      19.066  51.478  48.426  1.00  0.00    -0.267 OA
HETATM   30  C   UNL     1      22.741  50.594  49.297  1.00  0.00     0.143 C 
BRANCH  27  31
HETATM   31  C   UNL     1      18.242  49.355  47.960  1.00  0.00     0.032 A 
HETATM   32  C   UNL     1      17.401  48.684  48.858  1.00  0.00     0.017 A 
HETATM   33  C   UNL     1      16.405  47.840  48.371  1.00  0.00     0.001 A 
HETATM   34  C   UNL     1      16.248  47.671  46.994  1.00  0.00     0.000 A 
HETATM   35  C   UNL     1      17.078  48.356  46.101  1.00  0.00     0.001 A 
HETATM   36  C   UNL     1      18.073  49.207  46.582  1.00  0.00     0.017 A 
ENDBRANCH  27  31
ENDBRANCH   2  23
TORSDOF 7
ENDMDL
MODEL 5
REMARK VINA RESULT:      -8.5      2.200      9.626
REMARK  7 active torsions:
REMARK  status: ('A' for Active; 'I' for Inactive)
REMARK    1  A    between atoms: O_2  and  C_3 
REMARK    2  A    between atoms: C_4  and  C_5 
REMARK       I    between atoms: C_5  and  N_6 
REMARK    3  A    between atoms: N_6  and  C_7 
REMARK    4  A    between atoms: C_7  and  N_8 
REMARK    5  A    between atoms: N_8  and  C_9 
REMARK    6  A    between atoms: C_10  and  N_11 
REMARK       I    between atoms: N_14  and  C_15 
REMARK    7  A    between atoms: C_15  and  C_16 
ROOT
HETATM    1  C   UNL     1      25.532  48.020  49.802  1.00  0.00     0.060 A 
HETATM    2  C   UNL     1      24.866  49.011  49.042  1.00  0.00     0.057 A 
HETATM    3  C   UNL     1      25.651  49.924  48.328  1.00  0.00     0.031 A 
HETATM    4  C   UNL     1      27.048  49.856  48.370  1.00  0.00     0.002 A 
HETATM    5  C   UNL     1      27.685  48.879  49.131  1.00  0.00     0.002 A 
HETATM    6  C   UNL     1      26.927  47.956  49.851  1.00  0.00     0.032 A 
ENDROOT
BRANCH   1   7
HETATM    7  N   UNL     1      24.744  47.098  50.529  1.00  0.00    -0.336 N 
HETATM    8  H   UNL     1      23.910  47.508  50.931  1.00  0.00     0.168 HD
BRANCH   7   9
HETATM    9  C   UNL     1      25.185  46.076  51.335  1.00  0.00     0.157 C 
HETATM   10  S   UNL     1      25.477  46.462  52.939  1.00  0.00    -0.047 SA
BRANCH   9  11
HETATM   11  N   UNL     1      25.428  44.871  50.705  1.00  0.00    -0.201 NA
HETATM   12  C   UNL     1      26.678  44.291  50.548  1.00  0.00     0.240 C 
HETATM   13  O   UNL     1      27.145  44.227  49.415  1.00  0.00    -0.274 OA
HETATM   14  H   UNL     1      25.018  44.910  49.780  1.00  0.00     0.139 HD
BRANCH  12  15
HETATM   15  C   UNL     1      27.367  43.701  51.730  1.00  0.00     0.060 A 
HETATM   16  C   UNL     1      27.248  42.333  52.028  1.00  0.00     0.083 A 
HETATM   17  C   UNL     1      27.815  41.810  53.194  1.00  0.00     0.038 A 
HETATM   18  C   UNL     1      28.536  42.636  54.053  1.00  0.00     0.003 A 
HETATM   19  C   UNL     1      28.683  43.990  53.756  1.00  0.00     0.001 A 
HETATM   20  C   UNL     1      28.094  44.523  52.606  1.00  0.00     0.019 A 
BRANCH  16  21
HETATM   21  O   UNL     1      26.522  41.475  51.246  1.00  0.00    -0.355 OA
HETATM   22  C   UNL     1      27.388  40.596  50.526  1.00  0.00     0.210 C 
ENDBRANCH  16  21
ENDBRANCH  12  15
ENDBRANCH   9  11
ENDBRANCH   7   9
ENDBRANCH   1   7
BRANCH   2  23
HETATM   23  N   UNL     1      23.476  49.129  49.155  1.00  0.00    -0.376 N 
HETATM   24  C   UNL     1      22.659  48.300  48.250  1.00  0.00     0.143 C 
HETATM   25  C   UNL     1      21.248  48.153  48.872  1.00  0.00     0.146 C 
HETATM   26  N   UNL     1      20.657  49.471  49.168  1.00  0.00    -0.345 N 
HETATM   27  C   UNL     1      19.464  49.938  48.639  1.00  0.00     0.253 C 
HETATM   28  C   UNL     1      21.517  50.387  49.929  1.00  0.00     0.146 C 
HETATM   29  O   UNL     1      19.179  51.126  48.546  1.00  0.00    -0.267 OA
HETATM   30  C   UNL     1      22.926  50.494  49.322  1.00  0.00     0.143 C 
BRANCH  27  31
HETATM   31  C   UNL     1      18.464  48.940  48.205  1.00  0.00     0.032 A 
HETATM   32  C   UNL     1      17.708  48.252  49.163  1.00  0.00     0.017 A 
HETATM   33  C   UNL     1      16.747  47.331  48.751  1.00  0.00     0.001 A 
HETATM   34  C   UNL     1      16.541  47.103  47.389  1.00  0.00     0.000 A 
HETATM   35  C   UNL     1      17.286  47.804  46.436  1.00  0.00     0.001 A 
HETATM   36  C   UNL     1      18.245  48.732  46.843  1.00  0.00     0.017 A 
ENDBRANCH  27  31
ENDBRANCH   2  23
TORSDOF 7
ENDMDL
MODEL 6
REMARK VINA RESULT:      -8.3      2.184      9.341
REMARK  7 active torsions:
REMARK  status: ('A' for Active; 'I' for Inactive)
REMARK    1  A    between atoms: O_2  and  C_3 
REMARK    2  A    between atoms: C_4  and  C_5 
REMARK       I    between atoms: C_5  and  N_6 
REMARK    3  A    between atoms: N_6  and  C_7 
REMARK    4  A    between atoms: C_7  and  N_8 
REMARK    5  A    between atoms: N_8  and  C_9 
REMARK    6  A    between atoms: C_10  and  N_11 
REMARK       I    between atoms: N_14  and  C_15 
REMARK    7  A    between atoms: C_15  and  C_16 
ROOT
HETATM    1  C   UNL     1      25.579  48.097  49.525  1.00  0.00     0.060 A 
HETATM    2  C   UNL     1      24.979  49.037  48.654  1.00  0.00     0.057 A 
HETATM    3  C   UNL     1      25.798  50.028  48.099  1.00  0.00     0.031 A 
HETATM    4  C   UNL     1      27.162  50.085  48.401  1.00  0.00     0.002 A 
HETATM    5  C   UNL     1      27.732  49.156  49.269  1.00  0.00     0.002 A 
HETATM    6  C   UNL     1      26.940  48.157  49.834  1.00  0.00     0.032 A 
ENDROOT
BRANCH   1   7
HETATM    7  N   UNL     1      24.756  47.096  50.092  1.00  0.00    -0.336 N 
HETATM    8  H   UNL     1      23.918  47.462  50.528  1.00  0.00     0.168 HD
BRANCH   7   9
HETATM    9  C   UNL     1      25.158  45.960  50.753  1.00  0.00     0.157 C 
HETATM   10  S   UNL     1      26.159  44.918  49.906  1.00  0.00    -0.047 SA
BRANCH   9  11
HETATM   11  N   UNL     1      24.610  45.764  52.006  1.00  0.00    -0.201 NA
HETATM   12  C   UNL     1      25.185  45.010  53.018  1.00  0.00     0.240 C 
HETATM   13  O   UNL     1      24.637  43.959  53.337  1.00  0.00    -0.274 OA
HETATM   14  H   UNL     1      23.671  45.406  51.887  1.00  0.00     0.139 HD
BRANCH  12  15
HETATM   15  C   UNL     1      26.386  45.533  53.730  1.00  0.00     0.060 A 
HETATM   16  C   UNL     1      27.580  44.795  53.771  1.00  0.00     0.083 A 
HETATM   17  C   UNL     1      28.668  45.247  54.526  1.00  0.00     0.038 A 
HETATM   18  C   UNL     1      28.587  46.456  55.214  1.00  0.00     0.003 A 
HETATM   19  C   UNL     1      27.416  47.209  55.161  1.00  0.00     0.001 A 
HETATM   20  C   UNL     1      26.317  46.748  54.431  1.00  0.00     0.019 A 
BRANCH  16  21
HETATM   21  O   UNL     1      27.713  43.582  53.149  1.00  0.00    -0.355 OA
HETATM   22  C   UNL     1      27.938  42.548  54.107  1.00  0.00     0.210 C 
ENDBRANCH  16  21
ENDBRANCH  12  15
ENDBRANCH   9  11
ENDBRANCH   7   9
ENDBRANCH   1   7
BRANCH   2  23
HETATM   23  N   UNL     1      23.588  49.029  48.504  1.00  0.00    -0.376 N 
HETATM   24  C   UNL     1      22.860  50.224  48.970  1.00  0.00     0.143 C 
HETATM   25  C   UNL     1      21.490  50.266  48.248  1.00  0.00     0.146 C 
HETATM   26  N   UNL     1      20.749  49.005  48.438  1.00  0.00    -0.345 N 
HETATM   27  C   UNL     1      19.498  48.905  49.026  1.00  0.00     0.253 C 
HETATM   28  C   UNL     1      21.506  47.782  48.141  1.00  0.00     0.146 C 
HETATM   29  O   UNL     1      19.068  47.881  49.545  1.00  0.00    -0.267 OA
HETATM   30  C   UNL     1      22.879  47.772  48.834  1.00  0.00     0.143 C 
BRANCH  27  31
HETATM   31  C   UNL     1      18.618  50.092  48.981  1.00  0.00     0.032 A 
HETATM   32  C   UNL     1      18.688  51.049  50.002  1.00  0.00     0.017 A 
HETATM   33  C   UNL     1      17.877  52.181  49.942  1.00  0.00     0.001 A 
HETATM   34  C   UNL     1      17.005  52.355  48.866  1.00  0.00     0.000 A 
HETATM   35  C   UNL     1      16.950  51.406  47.841  1.00  0.00     0.001 A 
HETATM   36  C   UNL     1      17.764  50.274  47.892  1.00  0.00     0.017 A 
ENDBRANCH  27  31
ENDBRANCH   2  23
TORSDOF 7
ENDMDL
MODEL 7
REMARK VINA RESULT:      -8.3      2.629      5.215
REMARK  7 active torsions:
REMARK  status: ('A' for Active; 'I' for Inactive)
REMARK    1  A    between atoms: O_2  and  C_3 
REMARK    2  A    between atoms: C_4  and  C_5 
REMARK       I    between atoms: C_5  and  N_6 
REMARK    3  A    between atoms: N_6  and  C_7 
REMARK    4  A    between atoms: C_7  and  N_8 
REMARK    5  A    between atoms: N_8  and  C_9 
REMARK    6  A    between atoms: C_10  and  N_11 
REMARK       I    between atoms: N_14  and  C_15 
REMARK    7  A    between atoms: C_15  and  C_16 
ROOT
HETATM    1  C   UNL     1      19.844  49.782  47.350  1.00  0.00     0.060 A 
HETATM    2  C   UNL     1      20.819  50.367  48.191  1.00  0.00     0.057 A 
HETATM    3  C   UNL     1      20.556  51.642  48.708  1.00  0.00     0.031 A 
HETATM    4  C   UNL     1      19.369  52.312  48.396  1.00  0.00     0.002 A 
HETATM    5  C   UNL     1      18.425  51.723  47.557  1.00  0.00     0.002 A 
HETATM    6  C   UNL     1      18.661  50.454  47.031  1.00  0.00     0.032 A 
ENDROOT
BRANCH   1   7
HETATM    7  N   UNL     1      20.106  48.497  46.822  1.00  0.00    -0.336 N 
HETATM    8  H   UNL     1      20.654  48.514  45.971  1.00  0.00     0.168 HD
BRANCH   7   9
HETATM    9  C   UNL     1      19.258  47.415  46.798  1.00  0.00     0.157 C 
HETATM   10  S   UNL     1      18.357  47.203  45.402  1.00  0.00    -0.047 SA
BRANCH   9  11
HETATM   11  N   UNL     1      19.179  46.683  47.967  1.00  0.00    -0.201 NA
HETATM   12  C   UNL     1      19.517  45.343  48.093  1.00  0.00     0.240 C 
HETATM   13  O   UNL     1      18.614  44.539  48.303  1.00  0.00    -0.274 OA
HETATM   14  H   UNL     1      18.239  46.772  48.332  1.00  0.00     0.139 HD
BRANCH  12  15
HETATM   15  C   UNL     1      20.951  44.942  48.053  1.00  0.00     0.060 A 
HETATM   16  C   UNL     1      21.622  44.779  46.829  1.00  0.00     0.083 A 
HETATM   17  C   UNL     1      22.937  44.305  46.800  1.00  0.00     0.038 A 
HETATM   18  C   UNL     1      23.607  44.026  47.989  1.00  0.00     0.003 A 
HETATM   19  C   UNL     1      22.961  44.207  49.210  1.00  0.00     0.001 A 
HETATM   20  C   UNL     1      21.637  44.653  49.244  1.00  0.00     0.019 A 
BRANCH  16  21
HETATM   21  O   UNL     1      21.010  45.000  45.624  1.00  0.00    -0.355 OA
HETATM   22  C   UNL     1      21.981  45.229  44.602  1.00  0.00     0.210 C 
ENDBRANCH  16  21
ENDBRANCH  12  15
ENDBRANCH   9  11
ENDBRANCH   7   9
ENDBRANCH   1   7
BRANCH   2  23
HETATM   23  N   UNL     1      22.051  49.723  48.349  1.00  0.00    -0.376 N 
HETATM   24  C   UNL     1      22.124  48.660  49.369  1.00  0.00     0.143 C 
HETATM   25  C   UNL     1      23.322  47.740  49.023  1.00  0.00     0.146 C 
HETATM   26  N   UNL     1      24.567  48.518  48.883  1.00  0.00    -0.345 N 
HETATM   27  C   UNL     1      25.710  48.323  49.643  1.00  0.00     0.253 C 
HETATM   28  C   UNL     1      24.480  49.688  47.999  1.00  0.00     0.146 C 
HETATM   29  O   UNL     1      26.564  49.183  49.822  1.00  0.00    -0.267 OA
HETATM   30  C   UNL     1      23.265  50.571  48.329  1.00  0.00     0.143 C 
BRANCH  27  31
HETATM   31  C   UNL     1      25.926  46.984  50.230  1.00  0.00     0.032 A 
HETATM   32  C   UNL     1      25.404  46.687  51.496  1.00  0.00     0.017 A 
HETATM   33  C   UNL     1      25.587  45.414  52.035  1.00  0.00     0.001 A 
HETATM   34  C   UNL     1      26.283  44.446  51.311  1.00  0.00     0.000 A 
HETATM   35  C   UNL     1      26.788  44.741  50.041  1.00  0.00     0.001 A 
HETATM   36  C   UNL     1      26.603  46.011  49.493  1.00  0.00     0.017 A 
ENDBRANCH  27  31
ENDBRANCH   2  23
TORSDOF 7
ENDMDL
MODEL 8
REMARK VINA RESULT:      -8.0     11.684     14.260
REMARK  7 active torsions:
REMARK  status: ('A' for Active; 'I' for Inactive)
REMARK    1  A    between atoms: O_2  and  C_3 
REMARK    2  A    between atoms: C_4  and  C_5 
REMARK       I    between atoms: C_5  and  N_6 
REMARK    3  A    between atoms: N_6  and  C_7 
REMARK    4  A    between atoms: C_7  and  N_8 
REMARK    5  A    between atoms: N_8  and  C_9 
REMARK    6  A    between atoms: C_10  and  N_11 
REMARK       I    between atoms: N_14  and  C_15 
REMARK    7  A    between atoms: C_15  and  C_16 
ROOT
HETATM    1  C   UNL     1      33.563  50.795  41.753  1.00  0.00     0.060 A 
HETATM    2  C   UNL     1      32.302  50.422  42.274  1.00  0.00     0.057 A 
HETATM    3  C   UNL     1      32.010  50.779  43.597  1.00  0.00     0.031 A 
HETATM    4  C   UNL     1      32.941  51.477  44.373  1.00  0.00     0.002 A 
HETATM    5  C   UNL     1      34.181  51.827  43.845  1.00  0.00     0.002 A 
HETATM    6  C   UNL     1      34.496  51.486  42.530  1.00  0.00     0.032 A 
ENDROOT
BRANCH   1   7
HETATM    7  N   UNL     1      33.864  50.434  40.420  1.00  0.00    -0.336 N 
HETATM    8  H   UNL     1      34.421  49.591  40.346  1.00  0.00     0.168 HD
BRANCH   7   9
HETATM    9  C   UNL     1      34.165  51.274  39.374  1.00  0.00     0.157 C 
HETATM   10  S   UNL     1      35.529  52.229  39.551  1.00  0.00    -0.047 SA
BRANCH   9  11
HETATM   11  N   UNL     1      33.251  51.300  38.338  1.00  0.00    -0.201 NA
HETATM   12  C   UNL     1      31.888  51.078  38.471  1.00  0.00     0.240 C 
HETATM   13  O   UNL     1      31.421  50.053  37.983  1.00  0.00    -0.274 OA
HETATM   14  H   UNL     1      33.571  50.664  37.618  1.00  0.00     0.139 HD
BRANCH  12  15
HETATM   15  C   UNL     1      31.036  52.113  39.122  1.00  0.00     0.060 A 
HETATM   16  C   UNL     1      29.689  52.274  38.757  1.00  0.00     0.083 A 
HETATM   17  C   UNL     1      28.927  53.313  39.301  1.00  0.00     0.038 A 
HETATM   18  C   UNL     1      29.489  54.175  40.240  1.00  0.00     0.003 A 
HETATM   19  C   UNL     1      30.817  54.010  40.629  1.00  0.00     0.001 A 
HETATM   20  C   UNL     1      31.591  52.991  40.067  1.00  0.00     0.019 A 
BRANCH  16  21
HETATM   21  O   UNL     1      29.087  51.485  37.813  1.00  0.00    -0.355 OA
HETATM   22  C   UNL     1      27.738  51.201  38.183  1.00  0.00     0.210 C 
ENDBRANCH  16  21
ENDBRANCH  12  15
ENDBRANCH   9  11
ENDBRANCH   7   9
ENDBRANCH   1   7
BRANCH   2  23
HETATM   23  N   UNL     1      31.471  49.595  41.510  1.00  0.00    -0.376 N 
HETATM   24  C   UNL     1      30.023  49.674  41.777  1.00  0.00     0.143 C 
HETATM   25  C   UNL     1      29.273  49.145  40.529  1.00  0.00     0.146 C 
HETATM   26  N   UNL     1      29.738  47.796  40.160  1.00  0.00    -0.345 N 
HETATM   27  C   UNL     1      28.929  46.672  40.092  1.00  0.00     0.253 C 
HETATM   28  C   UNL     1      31.196  47.643  40.050  1.00  0.00     0.146 C 
HETATM   29  O   UNL     1      29.347  45.524  40.190  1.00  0.00    -0.267 OA
HETATM   30  C   UNL     1      31.928  48.206  41.279  1.00  0.00     0.143 C 
BRANCH  27  31
HETATM   31  C   UNL     1      27.487  46.876  39.840  1.00  0.00     0.032 A 
HETATM   32  C   UNL     1      26.576  46.784  40.901  1.00  0.00     0.017 A 
HETATM   33  C   UNL     1      25.220  47.003  40.665  1.00  0.00     0.001 A 
HETATM   34  C   UNL     1      24.780  47.317  39.378  1.00  0.00     0.000 A 
HETATM   35  C   UNL     1      25.694  47.424  38.326  1.00  0.00     0.001 A 
HETATM   36  C   UNL     1      27.054  47.212  38.557  1.00  0.00     0.017 A 
ENDBRANCH  27  31
ENDBRANCH   2  23
TORSDOF 7
ENDMDL
MODEL 9
REMARK VINA RESULT:      -7.9      2.708      9.260
REMARK  7 active torsions:
REMARK  status: ('A' for Active; 'I' for Inactive)
REMARK    1  A    between atoms: O_2  and  C_3 
REMARK    2  A    between atoms: C_4  and  C_5 
REMARK       I    between atoms: C_5  and  N_6 
REMARK    3  A    between atoms: N_6  and  C_7 
REMARK    4  A    between atoms: C_7  and  N_8 
REMARK    5  A    between atoms: N_8  and  C_9 
REMARK    6  A    between atoms: C_10  and  N_11 
REMARK       I    between atoms: N_14  and  C_15 
REMARK    7  A    between atoms: C_15  and  C_16 
ROOT
HETATM    1  C   UNL     1      24.554  43.697  48.641  1.00  0.00     0.060 A 
HETATM    2  C   UNL     1      23.203  43.696  48.223  1.00  0.00     0.057 A 
HETATM    3  C   UNL     1      22.578  42.457  48.034  1.00  0.00     0.031 A 
HETATM    4  C   UNL     1      23.273  41.262  48.249  1.00  0.00     0.002 A 
HETATM    5  C   UNL     1      24.607  41.284  48.652  1.00  0.00     0.002 A 
HETATM    6  C   UNL     1      25.252  42.504  48.849  1.00  0.00     0.032 A 
ENDROOT
BRANCH   1   7
HETATM    7  N   UNL     1      25.191  44.945  48.830  1.00  0.00    -0.336 N 
HETATM    8  H   UNL     1      25.769  45.226  48.047  1.00  0.00     0.168 HD
BRANCH   7   9
HETATM    9  C   UNL     1      25.726  45.443  49.994  1.00  0.00     0.157 C 
HETATM   10  S   UNL     1      27.271  46.083  49.893  1.00  0.00    -0.047 SA
BRANCH   9  11
HETATM   11  N   UNL     1      24.963  45.269  51.133  1.00  0.00    -0.201 NA
HETATM   12  C   UNL     1      25.164  44.281  52.085  1.00  0.00     0.240 C 
HETATM   13  O   UNL     1      24.323  43.392  52.180  1.00  0.00    -0.274 OA
HETATM   14  H   UNL     1      23.992  45.197  50.854  1.00  0.00     0.139 HD
BRANCH  12  15
HETATM   15  C   UNL     1      26.336  44.373  53.001  1.00  0.00     0.060 A 
HETATM   16  C   UNL     1      26.476  45.453  53.888  1.00  0.00     0.083 A 
HETATM   17  C   UNL     1      27.627  45.583  54.672  1.00  0.00     0.038 A 
HETATM   18  C   UNL     1      28.630  44.618  54.606  1.00  0.00     0.003 A 
HETATM   19  C   UNL     1      28.491  43.528  53.748  1.00  0.00     0.001 A 
HETATM   20  C   UNL     1      27.356  43.409  52.943  1.00  0.00     0.019 A 
BRANCH  16  21
HETATM   21  O   UNL     1      25.546  46.455  53.974  1.00  0.00    -0.355 OA
HETATM   22  C   UNL     1      26.141  47.650  54.482  1.00  0.00     0.210 C 
ENDBRANCH  16  21
ENDBRANCH  12  15
ENDBRANCH   9  11
ENDBRANCH   7   9
ENDBRANCH   1   7
BRANCH   2  23
HETATM   23  N   UNL     1      22.601  44.910  47.876  1.00  0.00    -0.376 N 
HETATM   24  C   UNL     1      22.151  45.774  48.984  1.00  0.00     0.143 C 
HETATM   25  C   UNL     1      22.039  47.224  48.451  1.00  0.00     0.146 C 
HETATM   26  N   UNL     1      21.176  47.288  47.257  1.00  0.00    -0.345 N 
HETATM   27  C   UNL     1      20.022  48.049  47.157  1.00  0.00     0.253 C 
HETATM   28  C   UNL     1      21.497  46.320  46.199  1.00  0.00     0.146 C 
HETATM   29  O   UNL     1      19.113  47.808  46.371  1.00  0.00    -0.267 OA
HETATM   30  C   UNL     1      21.641  44.892  46.749  1.00  0.00     0.143 C 
BRANCH  27  31
HETATM   31  C   UNL     1      19.908  49.245  48.018  1.00  0.00     0.032 A 
HETATM   32  C   UNL     1      19.210  49.164  49.231  1.00  0.00     0.017 A 
HETATM   33  C   UNL     1      19.127  50.287  50.053  1.00  0.00     0.001 A 
HETATM   34  C   UNL     1      19.743  51.478  49.668  1.00  0.00     0.000 A 
HETATM   35  C   UNL     1      20.452  51.549  48.465  1.00  0.00     0.001 A 
HETATM   36  C   UNL     1      20.544  50.428  47.640  1.00  0.00     0.017 A 
ENDBRANCH  27  31
ENDBRANCH   2  23
TORSDOF 7
ENDMDL
MODEL 10
REMARK VINA RESULT:      -7.8      4.515      8.232
REMARK  7 active torsions:
REMARK  status: ('A' for Active; 'I' for Inactive)
REMARK    1  A    between atoms: O_2  and  C_3 
REMARK    2  A    between atoms: C_4  and  C_5 
REMARK       I    between atoms: C_5  and  N_6 
REMARK    3  A    between atoms: N_6  and  C_7 
REMARK    4  A    between atoms: C_7  and  N_8 
REMARK    5  A    between atoms: N_8  and  C_9 
REMARK    6  A    between atoms: C_10  and  N_11 
REMARK       I    between atoms: N_14  and  C_15 
REMARK    7  A    between atoms: C_15  and  C_16 
ROOT
HETATM    1  C   UNL     1      27.442  41.194  49.885  1.00  0.00     0.060 A 
HETATM    2  C   UNL     1      27.518  42.145  50.929  1.00  0.00     0.057 A 
HETATM    3  C   UNL     1      28.229  41.792  52.083  1.00  0.00     0.031 A 
HETATM    4  C   UNL     1      28.838  40.538  52.196  1.00  0.00     0.002 A 
HETATM    5  C   UNL     1      28.743  39.611  51.160  1.00  0.00     0.002 A 
HETATM    6  C   UNL     1      28.043  39.938  49.999  1.00  0.00     0.032 A 
ENDROOT
BRANCH   1   7
HETATM    7  N   UNL     1      26.722  41.542  48.719  1.00  0.00    -0.336 N 
HETATM    8  H   UNL     1      26.543  42.536  48.636  1.00  0.00     0.168 HD
BRANCH   7   9
HETATM    9  C   UNL     1      25.696  40.842  48.129  1.00  0.00     0.157 C 
HETATM   10  S   UNL     1      26.036  40.113  46.660  1.00  0.00    -0.047 SA
BRANCH   9  11
HETATM   11  N   UNL     1      24.475  40.903  48.773  1.00  0.00    -0.201 NA
HETATM   12  C   UNL     1      23.706  42.048  48.917  1.00  0.00     0.240 C 
HETATM   13  O   UNL     1      23.581  42.521  50.043  1.00  0.00    -0.274 OA
HETATM   14  H   UNL     1      24.590  40.523  49.704  1.00  0.00     0.139 HD
BRANCH  12  15
HETATM   15  C   UNL     1      23.000  42.611  47.731  1.00  0.00     0.060 A 
HETATM   16  C   UNL     1      22.081  41.838  47.002  1.00  0.00     0.083 A 
HETATM   17  C   UNL     1      21.501  42.341  45.834  1.00  0.00     0.038 A 
HETATM   18  C   UNL     1      21.801  43.632  45.404  1.00  0.00     0.003 A 
HETATM   19  C   UNL     1      22.691  44.419  46.133  1.00  0.00     0.001 A 
HETATM   20  C   UNL     1      23.295  43.910  47.285  1.00  0.00     0.019 A 
BRANCH  16  21
HETATM   21  O   UNL     1      21.772  40.549  47.349  1.00  0.00    -0.355 OA
HETATM   22  C   UNL     1      21.939  39.675  46.232  1.00  0.00     0.210 C 
ENDBRANCH  16  21
ENDBRANCH  12  15
ENDBRANCH   9  11
ENDBRANCH   7   9
ENDBRANCH   1   7
BRANCH   2  23
HETATM   23  N   UNL     1      26.767  43.321  50.829  1.00  0.00    -0.376 N 
HETATM   24  C   UNL     1      27.283  44.370  49.930  1.00  0.00     0.143 C 
HETATM   25  C   UNL     1      26.103  45.295  49.541  1.00  0.00     0.146 C 
HETATM   26  N   UNL     1      25.420  45.819  50.738  1.00  0.00    -0.345 N 
HETATM   27  C   UNL     1      25.284  47.164  51.044  1.00  0.00     0.253 C 
HETATM   28  C   UNL     1      25.040  44.810  51.736  1.00  0.00     0.146 C 
HETATM   29  O   UNL     1      25.099  47.590  52.178  1.00  0.00    -0.267 OA
HETATM   30  C   UNL     1      26.211  43.876  52.084  1.00  0.00     0.143 C 
BRANCH  27  31
HETATM   31  C   UNL     1      25.320  48.132  49.928  1.00  0.00     0.032 A 
HETATM   32  C   UNL     1      24.124  48.541  49.322  1.00  0.00     0.017 A 
HETATM   33  C   UNL     1      24.159  49.474  48.288  1.00  0.00     0.001 A 
HETATM   34  C   UNL     1      25.382  49.999  47.866  1.00  0.00     0.000 A 
HETATM   35  C   UNL     1      26.572  49.601  48.483  1.00  0.00     0.001 A 
HETATM   36  C   UNL     1      26.542  48.672  49.524  1.00  0.00     0.017 A 
ENDBRANCH  27  31
ENDBRANCH   2  23
TORSDOF 7
ENDMDL
