MODEL 1
REMARK VINA RESULT:      -9.0      0.000      0.000
REMARK  7 active torsions:
REMARK  status: ('A' for Active; 'I' for Inactive)
REMARK    1  A    between atoms: C_3  and  C_4 
REMARK    2  A    between atoms: C_4  and  N_5 
REMARK       I    between atoms: N_5  and  C_6 
REMARK    3  A    between atoms: C_6  and  C_7 
REMARK    4  A    between atoms: C_7  and  N_8 
REMARK    5  A    between atoms: C_10  and  C_11 
REMARK    6  A    between atoms: C_11  and  N_12 
REMARK       I    between atoms: N_12  and  C_13 
REMARK       I    between atoms: C_13  and  N_14 
REMARK    7  A    between atoms: N_14  and  C_15 
ROOT
HETATM    1  N   UNL     1      25.486  47.507  49.641  1.00  0.00    -0.057 N 
HETATM    2  H   UNL     1      25.561  46.989  48.740  1.00  0.00     0.281 HD
HETATM    3  C   UNL     1      24.481  48.619  49.356  1.00  0.00     0.206 C 
HETATM    4  C   UNL     1      25.031  49.516  48.234  1.00  0.00     0.035 C 
HETATM    5  C   UNL     1      26.429  50.039  48.545  1.00  0.00     0.004 C 
HETATM    6  C   UNL     1      27.381  48.891  48.849  1.00  0.00     0.028 C 
HETATM    7  C   UNL     1      26.857  48.025  49.983  1.00  0.00     0.236 C 
ENDROOT
BRANCH   1   8
HETATM    8  C   UNL     1      25.039  46.421  50.625  1.00  0.00     0.337 C 
BRANCH   8   9
HETATM    9  C   UNL     1      25.569  46.555  52.056  1.00  0.00     0.243 C 
HETATM   10  N   UNL     1      26.378  45.521  52.460  1.00  0.00    -0.355 N 
HETATM   11  H   UNL     1      26.715  44.831  51.797  1.00  0.00     0.162 HD
HETATM   12  O   UNL     1      25.278  47.503  52.782  1.00  0.00    -0.272 OA
BRANCH  10  13
HETATM   13  C   UNL     1      27.072  45.567  53.733  1.00  0.00     0.169 C 
BRANCH  13  14
HETATM   14  C   UNL     1      28.161  44.536  53.741  1.00  0.00     0.006 A 
HETATM   15  C   UNL     1      29.189  44.366  54.659  1.00  0.00    -0.047 A 
HETATM   16  C   UNL     1      29.423  45.218  55.866  1.00  0.00     0.049 C 
HETATM   17  C   UNL     1      30.027  43.259  54.299  1.00  0.00     0.015 A 
HETATM   18  C   UNL     1      29.628  42.644  53.135  1.00  0.00     0.051 A 
HETATM   19  S   UNL     1      28.257  43.394  52.457  1.00  0.00    -0.104 SA
ENDBRANCH  13  14
ENDBRANCH  10  13
ENDBRANCH   8   9
ENDBRANCH   1   8
BRANCH   3  20
HETATM   20  C   UNL     1      23.058  48.097  49.002  1.00  0.00     0.157 C 
BRANCH  20  21
HETATM   21  N   UNL     1      21.884  48.712  49.621  1.00  0.00    -0.341 N 
HETATM   22  C   UNL     1      20.875  49.399  48.993  1.00  0.00     0.320 C 
HETATM   23  N   UNL     1      19.811  49.626  49.826  1.00  0.00    -0.309 N 
HETATM   24  O   UNL     1      20.962  49.734  47.816  1.00  0.00    -0.247 OA
HETATM   25  H   UNL     1      19.724  49.021  50.631  1.00  0.00     0.170 HD
HETATM   26  H   UNL     1      21.760  48.542  50.611  1.00  0.00     0.164 HD
BRANCH  23  27
HETATM   27  C   UNL     1      18.684  50.429  49.548  1.00  0.00     0.036 A 
HETATM   28  C   UNL     1      18.765  51.791  49.865  1.00  0.00     0.029 A 
HETATM   29  C   UNL     1      17.690  52.645  49.608  1.00  0.00     0.002 A 
HETATM   30  C   UNL     1      16.532  52.149  49.014  1.00  0.00     0.000 A 
HETATM   31  C   UNL     1      16.451  50.799  48.678  1.00  0.00     0.002 A 
HETATM   32  C   UNL     1      17.523  49.942  48.944  1.00  0.00     0.029 A 
ENDBRANCH  23  27
ENDBRANCH  20  21
ENDBRANCH   3  20
TORSDOF 7
ENDMDL
MODEL 2
REMARK VINA RESULT:      -9.0      3.233      5.447
REMARK  7 active torsions:
REMARK  status: ('A' for Active; 'I' for Inactive)
REMARK    1  A    between atoms: C_3  and  C_4 
REMARK    2  A    between atoms: C_4  and  N_5 
REMARK       I    between atoms: N_5  and  C_6 
REMARK    3  A    between atoms: C_6  and  C_7 
REMARK    4  A    between atoms: C_7  and  N_8 
REMARK    5  A    between atoms: C_10  and  C_11 
REMARK    6  A    between atoms: C_11  and  N_12 
REMARK       I    between atoms: N_12  and  C_13 
REMARK       I    between atoms: C_13  and  N_14 
REMARK    7  A    between atoms: N_14  and  C_15 
ROOT
HETATM    1  N   UNL     1      26.342  42.857  52.871  1.00  0.00    -0.057 N 
HETATM    2  H   UNL     1      25.620  42.124  53.035  1.00  0.00     0.281 HD
HETATM    3  C   UNL     1      26.132  43.277  51.420  1.00  0.00     0.206 C 
HETATM    4  C   UNL     1      26.349  42.057  50.508  1.00  0.00     0.035 C 
HETATM    5  C   UNL     1      27.698  41.389  50.748  1.00  0.00     0.004 C 
HETATM    6  C   UNL     1      27.866  41.018  52.214  1.00  0.00     0.028 C 
HETATM    7  C   UNL     1      27.689  42.230  53.114  1.00  0.00     0.236 C 
ENDROOT
BRANCH   1   8
HETATM    8  C   UNL     1      26.015  43.906  53.939  1.00  0.00     0.337 C 
BRANCH   8   9
HETATM    9  C   UNL     1      27.028  45.045  54.090  1.00  0.00     0.243 C 
HETATM   10  N   UNL     1      27.772  44.992  55.244  1.00  0.00    -0.355 N 
HETATM   11  H   UNL     1      27.752  44.173  55.841  1.00  0.00     0.162 HD
HETATM   12  O   UNL     1      27.149  45.936  53.253  1.00  0.00    -0.272 OA
BRANCH  10  13
HETATM   13  C   UNL     1      28.868  45.914  55.471  1.00  0.00     0.169 C 
BRANCH  13  14
HETATM   14  C   UNL     1      29.892  45.260  56.349  1.00  0.00     0.006 A 
HETATM   15  C   UNL     1      30.656  44.127  56.098  1.00  0.00    -0.047 A 
HETATM   16  C   UNL     1      30.598  43.302  54.852  1.00  0.00     0.049 C 
HETATM   17  C   UNL     1      31.518  43.828  57.205  1.00  0.00     0.015 A 
HETATM   18  C   UNL     1      31.375  44.714  58.247  1.00  0.00     0.051 A 
HETATM   19  S   UNL     1      30.199  45.901  57.917  1.00  0.00    -0.104 SA
ENDBRANCH  13  14
ENDBRANCH  10  13
ENDBRANCH   8   9
ENDBRANCH   1   8
BRANCH   3  20
HETATM   20  C   UNL     1      24.744  43.928  51.155  1.00  0.00     0.157 C 
BRANCH  20  21
HETATM   21  N   UNL     1      24.635  45.381  51.027  1.00  0.00    -0.341 N 
HETATM   22  C   UNL     1      24.123  46.088  49.968  1.00  0.00     0.320 C 
HETATM   23  N   UNL     1      23.942  47.412  50.272  1.00  0.00    -0.309 N 
HETATM   24  O   UNL     1      23.859  45.545  48.900  1.00  0.00    -0.247 OA
HETATM   25  H   UNL     1      23.872  47.651  51.251  1.00  0.00     0.170 HD
HETATM   26  H   UNL     1      24.892  45.922  51.843  1.00  0.00     0.164 HD
BRANCH  23  27
HETATM   27  C   UNL     1      23.580  48.438  49.372  1.00  0.00     0.036 A 
HETATM   28  C   UNL     1      22.216  48.612  49.104  1.00  0.00     0.029 A 
HETATM   29  C   UNL     1      21.787  49.613  48.230  1.00  0.00     0.002 A 
HETATM   30  C   UNL     1      22.715  50.461  47.631  1.00  0.00     0.000 A 
HETATM   31  C   UNL     1      24.071  50.307  47.907  1.00  0.00     0.002 A 
HETATM   32  C   UNL     1      24.503  49.298  48.774  1.00  0.00     0.029 A 
ENDBRANCH  23  27
ENDBRANCH  20  21
ENDBRANCH   3  20
TORSDOF 7
ENDMDL
MODEL 3
REMARK VINA RESULT:      -8.9      3.967     10.086
REMARK  7 active torsions:
REMARK  status: ('A' for Active; 'I' for Inactive)
REMARK    1  A    between atoms: C_3  and  C_4 
REMARK    2  A    between atoms: C_4  and  N_5 
REMARK       I    between atoms: N_5  and  C_6 
REMARK    3  A    between atoms: C_6  and  C_7 
REMARK    4  A    between atoms: C_7  and  N_8 
REMARK    5  A    between atoms: C_10  and  C_11 
REMARK    6  A    between atoms: C_11  and  N_12 
REMARK       I    between atoms: N_12  and  C_13 
REMARK       I    between atoms: C_13  and  N_14 
REMARK    7  A    between atoms: N_14  and  C_15 
ROOT
HETATM    1  N   UNL     1      25.045  43.530  50.013  1.00  0.00    -0.057 N 
HETATM    2  H   UNL     1      25.540  44.325  49.557  1.00  0.00     0.281 HD
HETATM    3  C   UNL     1      25.896  43.204  51.236  1.00  0.00     0.206 C 
HETATM    4  C   UNL     1      27.307  42.800  50.772  1.00  0.00     0.035 C 
HETATM    5  C   UNL     1      27.277  41.672  49.748  1.00  0.00     0.004 C 
HETATM    6  C   UNL     1      26.391  42.037  48.565  1.00  0.00     0.028 C 
HETATM    7  C   UNL     1      24.987  42.401  49.019  1.00  0.00     0.236 C 
ENDROOT
BRANCH   1   8
HETATM    8  C   UNL     1      23.651  44.103  50.286  1.00  0.00     0.337 C 
BRANCH   8   9
HETATM    9  C   UNL     1      23.294  45.385  49.527  1.00  0.00     0.243 C 
HETATM   10  N   UNL     1      23.783  46.536  50.097  1.00  0.00    -0.355 N 
HETATM   11  H   UNL     1      24.456  46.499  50.855  1.00  0.00     0.162 HD
HETATM   12  O   UNL     1      22.615  45.379  48.503  1.00  0.00    -0.272 OA
BRANCH  10  13
HETATM   13  C   UNL     1      23.652  47.816  49.427  1.00  0.00     0.169 C 
BRANCH  13  14
HETATM   14  C   UNL     1      25.015  48.404  49.215  1.00  0.00     0.006 A 
HETATM   15  C   UNL     1      25.366  49.554  48.517  1.00  0.00    -0.047 A 
HETATM   16  C   UNL     1      24.413  50.462  47.809  1.00  0.00     0.049 C 
HETATM   17  C   UNL     1      26.785  49.764  48.548  1.00  0.00     0.015 A 
HETATM   18  C   UNL     1      27.456  48.782  49.238  1.00  0.00     0.051 A 
HETATM   19  S   UNL     1      26.397  47.593  49.843  1.00  0.00    -0.104 SA
ENDBRANCH  13  14
ENDBRANCH  10  13
ENDBRANCH   8   9
ENDBRANCH   1   8
BRANCH   3  20
HETATM   20  C   UNL     1      25.964  44.363  52.273  1.00  0.00     0.157 C 
BRANCH  20  21
HETATM   21  N   UNL     1      27.245  44.717  52.885  1.00  0.00    -0.341 N 
HETATM   22  C   UNL     1      27.669  44.428  54.157  1.00  0.00     0.320 C 
HETATM   23  N   UNL     1      29.005  44.684  54.326  1.00  0.00    -0.309 N 
HETATM   24  O   UNL     1      26.903  43.979  55.003  1.00  0.00    -0.247 OA
HETATM   25  H   UNL     1      29.572  44.718  53.491  1.00  0.00     0.170 HD
HETATM   26  H   UNL     1      27.926  45.153  52.275  1.00  0.00     0.164 HD
BRANCH  23  27
HETATM   27  C   UNL     1      29.720  44.642  55.542  1.00  0.00     0.036 A 
HETATM   28  C   UNL     1      30.637  43.598  55.719  1.00  0.00     0.029 A 
HETATM   29  C   UNL     1      31.385  43.501  56.894  1.00  0.00     0.002 A 
HETATM   30  C   UNL     1      31.237  44.457  57.895  1.00  0.00     0.000 A 
HETATM   31  C   UNL     1      30.341  45.509  57.720  1.00  0.00     0.002 A 
HETATM   32  C   UNL     1      29.584  45.601  56.548  1.00  0.00     0.029 A 
ENDBRANCH  23  27
ENDBRANCH  20  21
ENDBRANCH   3  20
TORSDOF 7
ENDMDL
MODEL 4
REMARK VINA RESULT:      -8.7      3.063     10.575
REMARK  7 active torsions:
REMARK  status: ('A' for Active; 'I' for Inactive)
REMARK    1  A    between atoms: C_3  and  C_4 
REMARK    2  A    between atoms: C_4  and  N_5 
REMARK       I    between atoms: N_5  and  C_6 
REMARK    3  A    between atoms: C_6  and  C_7 
REMARK    4  A    between atoms: C_7  and  N_8 
REMARK    5  A    between atoms: C_10  and  C_11 
REMARK    6  A    between atoms: C_11  and  N_12 
REMARK       I    between atoms: N_12  and  C_13 
REMARK       I    between atoms: C_13  and  N_14 
REMARK    7  A    between atoms: N_14  and  C_15 
ROOT
HETATM    1  N   UNL     1      25.610  45.783  51.005  1.00  0.00    -0.057 N 
HETATM    2  H   UNL     1      26.613  45.943  51.237  1.00  0.00     0.281 HD
HETATM    3  C   UNL     1      25.140  44.766  52.040  1.00  0.00     0.206 C 
HETATM    4  C   UNL     1      25.966  43.477  51.888  1.00  0.00     0.035 C 
HETATM    5  C   UNL     1      25.937  42.937  50.463  1.00  0.00     0.004 C 
HETATM    6  C   UNL     1      26.386  44.000  49.471  1.00  0.00     0.028 C 
HETATM    7  C   UNL     1      25.547  45.261  49.595  1.00  0.00     0.236 C 
ENDROOT
BRANCH   1   8
HETATM    8  C   UNL     1      25.006  47.187  51.108  1.00  0.00     0.337 C 
BRANCH   8   9
HETATM    9  C   UNL     1      24.440  47.769  49.808  1.00  0.00     0.243 C 
HETATM   10  N   UNL     1      23.117  47.475  49.585  1.00  0.00    -0.355 N 
HETATM   11  H   UNL     1      22.546  47.053  50.309  1.00  0.00     0.162 HD
HETATM   12  O   UNL     1      25.122  48.430  49.029  1.00  0.00    -0.272 OA
BRANCH  10  13
HETATM   13  C   UNL     1      22.396  48.066  48.474  1.00  0.00     0.169 C 
BRANCH  13  14
HETATM   14  C   UNL     1      21.456  49.112  48.995  1.00  0.00     0.006 A 
HETATM   15  C   UNL     1      21.681  50.472  49.172  1.00  0.00    -0.047 A 
HETATM   16  C   UNL     1      22.960  51.185  48.871  1.00  0.00     0.049 C 
HETATM   17  C   UNL     1      20.518  51.124  49.702  1.00  0.00     0.015 A 
HETATM   18  C   UNL     1      19.473  50.256  49.921  1.00  0.00     0.051 A 
HETATM   19  S   UNL     1      19.878  48.655  49.509  1.00  0.00    -0.104 SA
ENDBRANCH  13  14
ENDBRANCH  10  13
ENDBRANCH   8   9
ENDBRANCH   1   8
BRANCH   3  20
HETATM   20  C   UNL     1      25.199  45.293  53.503  1.00  0.00     0.157 C 
BRANCH  20  21
HETATM   21  N   UNL     1      26.487  45.659  54.092  1.00  0.00    -0.341 N 
HETATM   22  C   UNL     1      27.319  44.861  54.838  1.00  0.00     0.320 C 
HETATM   23  N   UNL     1      28.550  45.433  55.023  1.00  0.00    -0.309 N 
HETATM   24  O   UNL     1      26.957  43.765  55.252  1.00  0.00    -0.247 OA
HETATM   25  H   UNL     1      28.825  46.149  54.365  1.00  0.00     0.170 HD
HETATM   26  H   UNL     1      26.842  46.577  53.856  1.00  0.00     0.164 HD
BRANCH  23  27
HETATM   27  C   UNL     1      29.580  44.955  55.862  1.00  0.00     0.036 A 
HETATM   28  C   UNL     1      29.806  45.636  57.064  1.00  0.00     0.029 A 
HETATM   29  C   UNL     1      30.803  45.211  57.945  1.00  0.00     0.002 A 
HETATM   30  C   UNL     1      31.570  44.090  57.640  1.00  0.00     0.000 A 
HETATM   31  C   UNL     1      31.340  43.395  56.456  1.00  0.00     0.002 A 
HETATM   32  C   UNL     1      30.349  43.826  55.568  1.00  0.00     0.029 A 
ENDBRANCH  23  27
ENDBRANCH  20  21
ENDBRANCH   3  20
TORSDOF 7
ENDMDL
MODEL 5
REMARK VINA RESULT:      -8.7      1.999      3.127
REMARK  7 active torsions:
REMARK  status: ('A' for Active; 'I' for Inactive)
REMARK    1  A    between atoms: C_3  and  C_4 
REMARK    2  A    between atoms: C_4  and  N_5 
REMARK       I    between atoms: N_5  and  C_6 
REMARK    3  A    between atoms: C_6  and  C_7 
REMARK    4  A    between atoms: C_7  and  N_8 
REMARK    5  A    between atoms: C_10  and  C_11 
REMARK    6  A    between atoms: C_11  and  N_12 
REMARK       I    between atoms: N_12  and  C_13 
REMARK       I    between atoms: C_13  and  N_14 
REMARK    7  A    between atoms: N_14  and  C_15 
ROOT
HETATM    1  N   UNL     1      25.486  46.116  51.966  1.00  0.00    -0.057 N 
HETATM    2  H   UNL     1      24.521  46.285  52.320  1.00  0.00     0.281 HD
HETATM    3  C   UNL     1      25.363  46.249  50.451  1.00  0.00     0.206 C 
HETATM    4  C   UNL     1      24.379  45.186  49.933  1.00  0.00     0.035 C 
HETATM    5  C   UNL     1      24.760  43.780  50.380  1.00  0.00     0.004 C 
HETATM    6  C   UNL     1      24.898  43.711  51.894  1.00  0.00     0.028 C 
HETATM    7  C   UNL     1      25.897  44.736  52.404  1.00  0.00     0.236 C 
ENDROOT
BRANCH   1   8
HETATM    8  C   UNL     1      26.307  47.195  52.680  1.00  0.00     0.337 C 
BRANCH   8   9
HETATM    9  C   UNL     1      26.547  46.973  54.177  1.00  0.00     0.243 C 
HETATM   10  N   UNL     1      27.787  46.467  54.482  1.00  0.00    -0.355 N 
HETATM   11  H   UNL     1      28.517  46.413  53.780  1.00  0.00     0.162 HD
HETATM   12  O   UNL     1      25.693  47.215  55.026  1.00  0.00    -0.272 OA
BRANCH  10  13
HETATM   13  C   UNL     1      28.222  46.332  55.859  1.00  0.00     0.169 C 
BRANCH  13  14
HETATM   14  C   UNL     1      29.294  45.287  55.940  1.00  0.00     0.006 A 
HETATM   15  C   UNL     1      30.313  45.158  56.875  1.00  0.00    -0.047 A 
HETATM   16  C   UNL     1      30.552  46.079  58.029  1.00  0.00     0.049 C 
HETATM   17  C   UNL     1      31.136  44.017  56.590  1.00  0.00     0.015 A 
HETATM   18  C   UNL     1      30.735  43.339  55.463  1.00  0.00     0.051 A 
HETATM   19  S   UNL     1      29.382  44.067  54.729  1.00  0.00    -0.104 SA
ENDBRANCH  13  14
ENDBRANCH  10  13
ENDBRANCH   8   9
ENDBRANCH   1   8
BRANCH   3  20
HETATM   20  C   UNL     1      24.940  47.672  49.984  1.00  0.00     0.157 C 
BRANCH  20  21
HETATM   21  N   UNL     1      23.527  48.052  50.000  1.00  0.00    -0.341 N 
HETATM   22  C   UNL     1      22.913  49.011  49.234  1.00  0.00     0.320 C 
HETATM   23  N   UNL     1      21.547  48.942  49.320  1.00  0.00    -0.309 N 
HETATM   24  O   UNL     1      23.560  49.804  48.558  1.00  0.00    -0.247 OA
HETATM   25  H   UNL     1      21.152  48.062  49.621  1.00  0.00     0.170 HD
HETATM   26  H   UNL     1      22.920  47.489  50.583  1.00  0.00     0.164 HD
BRANCH  23  27
HETATM   27  C   UNL     1      20.625  49.867  48.784  1.00  0.00     0.036 A 
HETATM   28  C   UNL     1      20.438  51.070  49.477  1.00  0.00     0.029 A 
HETATM   29  C   UNL     1      19.548  52.033  48.999  1.00  0.00     0.002 A 
HETATM   30  C   UNL     1      18.850  51.811  47.814  1.00  0.00     0.000 A 
HETATM   31  C   UNL     1      19.045  50.626  47.109  1.00  0.00     0.002 A 
HETATM   32  C   UNL     1      19.928  49.656  47.593  1.00  0.00     0.029 A 
ENDBRANCH  23  27
ENDBRANCH  20  21
ENDBRANCH   3  20
TORSDOF 7
ENDMDL
MODEL 6
REMARK VINA RESULT:      -8.7      5.283      9.581
REMARK  7 active torsions:
REMARK  status: ('A' for Active; 'I' for Inactive)
REMARK    1  A    between atoms: C_3  and  C_4 
REMARK    2  A    between atoms: C_4  and  N_5 
REMARK       I    between atoms: N_5  and  C_6 
REMARK    3  A    between atoms: C_6  and  C_7 
REMARK    4  A    between atoms: C_7  and  N_8 
REMARK    5  A    between atoms: C_10  and  C_11 
REMARK    6  A    between atoms: C_11  and  N_12 
REMARK       I    between atoms: N_12  and  C_13 
REMARK       I    between atoms: C_13  and  N_14 
REMARK    7  A    between atoms: N_14  and  C_15 
ROOT
HETATM    1  N   UNL     1      25.085  44.670  51.503  1.00  0.00    -0.057 N 
HETATM    2  H   UNL     1      24.099  44.772  51.825  1.00  0.00     0.281 HD
HETATM    3  C   UNL     1      25.738  46.003  51.853  1.00  0.00     0.206 C 
HETATM    4  C   UNL     1      25.011  47.131  51.099  1.00  0.00     0.035 C 
HETATM    5  C   UNL     1      24.946  46.873  49.598  1.00  0.00     0.004 C 
HETATM    6  C   UNL     1      24.314  45.519  49.307  1.00  0.00     0.028 C 
HETATM    7  C   UNL     1      25.053  44.400  50.023  1.00  0.00     0.236 C 
ENDROOT
BRANCH   1   8
HETATM    8  C   UNL     1      25.575  43.446  52.282  1.00  0.00     0.337 C 
BRANCH   8   9
HETATM    9  C   UNL     1      26.991  42.963  51.949  1.00  0.00     0.243 C 
HETATM   10  N   UNL     1      27.123  41.597  51.889  1.00  0.00    -0.355 N 
HETATM   11  H   UNL     1      26.310  40.991  51.901  1.00  0.00     0.162 HD
HETATM   12  O   UNL     1      27.927  43.737  51.766  1.00  0.00    -0.272 OA
BRANCH  10  13
HETATM   13  C   UNL     1      28.362  40.984  51.448  1.00  0.00     0.169 C 
BRANCH  13  14
HETATM   14  C   UNL     1      28.065  39.991  50.365  1.00  0.00     0.006 A 
HETATM   15  C   UNL     1      28.694  38.781  50.099  1.00  0.00    -0.047 A 
HETATM   16  C   UNL     1      29.841  38.213  50.872  1.00  0.00     0.049 C 
HETATM   17  C   UNL     1      28.107  38.132  48.962  1.00  0.00     0.015 A 
HETATM   18  C   UNL     1      27.084  38.860  48.401  1.00  0.00     0.051 A 
HETATM   19  S   UNL     1      26.825  40.330  49.220  1.00  0.00    -0.104 SA
ENDBRANCH  13  14
ENDBRANCH  10  13
ENDBRANCH   8   9
ENDBRANCH   1   8
BRANCH   3  20
HETATM   20  C   UNL     1      25.778  46.294  53.381  1.00  0.00     0.157 C 
BRANCH  20  21
HETATM   21  N   UNL     1      27.065  46.440  54.060  1.00  0.00    -0.341 N 
HETATM   22  C   UNL     1      27.713  45.506  54.828  1.00  0.00     0.320 C 
HETATM   23  N   UNL     1      29.004  45.874  55.107  1.00  0.00    -0.309 N 
HETATM   24  O   UNL     1      27.160  44.470  55.183  1.00  0.00    -0.247 OA
HETATM   25  H   UNL     1      29.429  46.553  54.491  1.00  0.00     0.170 HD
HETATM   26  H   UNL     1      27.573  47.297  53.876  1.00  0.00     0.164 HD
BRANCH  23  27
HETATM   27  C   UNL     1      29.890  45.220  55.990  1.00  0.00     0.036 A 
HETATM   28  C   UNL     1      30.009  45.736  57.287  1.00  0.00     0.029 A 
HETATM   29  C   UNL     1      30.861  45.133  58.215  1.00  0.00     0.002 A 
HETATM   30  C   UNL     1      31.587  43.999  57.861  1.00  0.00     0.000 A 
HETATM   31  C   UNL     1      31.460  43.468  56.579  1.00  0.00     0.002 A 
HETATM   32  C   UNL     1      30.615  44.078  55.646  1.00  0.00     0.029 A 
ENDBRANCH  23  27
ENDBRANCH  20  21
ENDBRANCH   3  20
TORSDOF 7
ENDMDL
MODEL 7
REMARK VINA RESULT:      -8.6      1.901      2.988
REMARK  7 active torsions:
REMARK  status: ('A' for Active; 'I' for Inactive)
REMARK    1  A    between atoms: C_3  and  C_4 
REMARK    2  A    between atoms: C_4  and  N_5 
REMARK       I    between atoms: N_5  and  C_6 
REMARK    3  A    between atoms: C_6  and  C_7 
REMARK    4  A    between atoms: C_7  and  N_8 
REMARK    5  A    between atoms: C_10  and  C_11 
REMARK    6  A    between atoms: C_11  and  N_12 
REMARK       I    between atoms: N_12  and  C_13 
REMARK       I    between atoms: C_13  and  N_14 
REMARK    7  A    between atoms: N_14  and  C_15 
ROOT
HETATM    1  N   UNL     1      24.023  45.691  50.726  1.00  0.00    -0.057 N 
HETATM    2  H   UNL     1      23.165  46.068  51.181  1.00  0.00     0.281 HD
HETATM    3  C   UNL     1      23.952  46.210  49.294  1.00  0.00     0.206 C 
HETATM    4  C   UNL     1      22.675  45.669  48.627  1.00  0.00     0.035 C 
HETATM    5  C   UNL     1      22.574  44.151  48.718  1.00  0.00     0.004 C 
HETATM    6  C   UNL     1      22.680  43.686  50.163  1.00  0.00     0.028 C 
HETATM    7  C   UNL     1      23.959  44.189  50.812  1.00  0.00     0.236 C 
ENDROOT
BRANCH   1   8
HETATM    8  C   UNL     1      25.150  46.252  51.599  1.00  0.00     0.337 C 
BRANCH   8   9
HETATM    9  C   UNL     1      26.376  45.350  51.771  1.00  0.00     0.243 C 
HETATM   10  N   UNL     1      26.637  44.991  53.071  1.00  0.00    -0.355 N 
HETATM   11  H   UNL     1      25.968  45.179  53.810  1.00  0.00     0.162 HD
HETATM   12  O   UNL     1      27.072  44.993  50.823  1.00  0.00    -0.272 OA
BRANCH  10  13
HETATM   13  C   UNL     1      27.676  44.029  53.387  1.00  0.00     0.169 C 
BRANCH  13  14
HETATM   14  C   UNL     1      28.530  44.569  54.495  1.00  0.00     0.006 A 
HETATM   15  C   UNL     1      29.751  44.097  54.961  1.00  0.00    -0.047 A 
HETATM   16  C   UNL     1      30.478  42.904  54.428  1.00  0.00     0.049 C 
HETATM   17  C   UNL     1      30.237  44.900  56.046  1.00  0.00     0.015 A 
HETATM   18  C   UNL     1      29.382  45.926  56.375  1.00  0.00     0.051 A 
HETATM   19  S   UNL     1      27.986  45.929  55.399  1.00  0.00    -0.104 SA
ENDBRANCH  13  14
ENDBRANCH  10  13
ENDBRANCH   8   9
ENDBRANCH   1   8
BRANCH   3  20
HETATM   20  C   UNL     1      24.017  47.762  49.190  1.00  0.00     0.157 C 
BRANCH  20  21
HETATM   21  N   UNL     1      22.956  48.575  49.784  1.00  0.00    -0.341 N 
HETATM   22  C   UNL     1      21.941  49.228  49.130  1.00  0.00     0.320 C 
HETATM   23  N   UNL     1      20.984  49.688  49.996  1.00  0.00    -0.309 N 
HETATM   24  O   UNL     1      21.934  49.343  47.909  1.00  0.00    -0.247 OA
HETATM   25  H   UNL     1      20.934  49.243  50.901  1.00  0.00     0.170 HD
HETATM   26  H   UNL     1      22.920  48.592  50.796  1.00  0.00     0.164 HD
BRANCH  23  27
HETATM   27  C   UNL     1      19.894  50.525  49.673  1.00  0.00     0.036 A 
HETATM   28  C   UNL     1      20.148  51.632  48.852  1.00  0.00     0.029 A 
HETATM   29  C   UNL     1      19.114  52.497  48.486  1.00  0.00     0.002 A 
HETATM   30  C   UNL     1      17.815  52.253  48.922  1.00  0.00     0.000 A 
HETATM   31  C   UNL     1      17.550  51.144  49.722  1.00  0.00     0.002 A 
HETATM   32  C   UNL     1      18.586  50.284  50.098  1.00  0.00     0.029 A 
ENDBRANCH  23  27
ENDBRANCH  20  21
ENDBRANCH   3  20
TORSDOF 7
ENDMDL
MODEL 8
REMARK VINA RESULT:      -8.2      2.695     10.415
REMARK  7 active torsions:
REMARK  status: ('A' for Active; 'I' for Inactive)
REMARK    1  A    between atoms: C_3  and  C_4 
REMARK    2  A    between atoms: C_4  and  N_5 
REMARK       I    between atoms: N_5  and  C_6 
REMARK    3  A    between atoms: C_6  and  C_7 
REMARK    4  A    between atoms: C_7  and  N_8 
REMARK    5  A    between atoms: C_10  and  C_11 
REMARK    6  A    between atoms: C_11  and  N_12 
REMARK       I    between atoms: N_12  and  C_13 
REMARK       I    between atoms: C_13  and  N_14 
REMARK    7  A    between atoms: N_14  and  C_15 
ROOT
HETATM    1  N   UNL     1      24.602  48.957  49.440  1.00  0.00    -0.057 N 
HETATM    2  H   UNL     1      24.753  49.561  50.275  1.00  0.00     0.281 HD
HETATM    3  C   UNL     1      25.410  47.696  49.733  1.00  0.00     0.206 C 
HETATM    4  C   UNL     1      26.892  48.077  49.894  1.00  0.00     0.035 C 
HETATM    5  C   UNL     1      27.420  48.861  48.698  1.00  0.00     0.004 C 
HETATM    6  C   UNL     1      26.561  50.089  48.432  1.00  0.00     0.028 C 
HETATM    7  C   UNL     1      25.102  49.711  48.237  1.00  0.00     0.236 C 
ENDROOT
BRANCH   1   8
HETATM    8  C   UNL     1      23.079  48.796  49.403  1.00  0.00     0.337 C 
BRANCH   8   9
HETATM    9  C   UNL     1      22.267  50.094  49.463  1.00  0.00     0.243 C 
HETATM   10  N   UNL     1      21.429  50.288  48.392  1.00  0.00    -0.355 N 
HETATM   11  H   UNL     1      21.258  49.547  47.721  1.00  0.00     0.162 HD
HETATM   12  O   UNL     1      22.372  50.896  50.388  1.00  0.00    -0.272 OA
BRANCH  10  13
HETATM   13  C   UNL     1      20.492  51.395  48.366  1.00  0.00     0.169 C 
BRANCH  13  14
HETATM   14  C   UNL     1      19.105  50.864  48.157  1.00  0.00     0.006 A 
HETATM   15  C   UNL     1      17.919  51.276  48.752  1.00  0.00    -0.047 A 
HETATM   16  C   UNL     1      17.790  52.371  49.762  1.00  0.00     0.049 C 
HETATM   17  C   UNL     1      16.807  50.501  48.280  1.00  0.00     0.015 A 
HETATM   18  C   UNL     1      17.177  49.535  47.374  1.00  0.00     0.051 A 
HETATM   19  S   UNL     1      18.856  49.537  47.090  1.00  0.00    -0.104 SA
ENDBRANCH  13  14
ENDBRANCH  10  13
ENDBRANCH   8   9
ENDBRANCH   1   8
BRANCH   3  20
HETATM   20  C   UNL     1      24.902  46.906  50.974  1.00  0.00     0.157 C 
BRANCH  20  21
HETATM   21  N   UNL     1      25.804  45.990  51.671  1.00  0.00    -0.341 N 
HETATM   22  C   UNL     1      26.575  46.258  52.775  1.00  0.00     0.320 C 
HETATM   23  N   UNL     1      27.109  45.119  53.319  1.00  0.00    -0.309 N 
HETATM   24  O   UNL     1      26.722  47.402  53.193  1.00  0.00    -0.247 OA
HETATM   25  H   UNL     1      26.648  44.248  53.098  1.00  0.00     0.170 HD
HETATM   26  H   UNL     1      25.799  45.029  51.352  1.00  0.00     0.164 HD
BRANCH  23  27
HETATM   27  C   UNL     1      28.062  45.053  54.358  1.00  0.00     0.036 A 
HETATM   28  C   UNL     1      29.070  44.087  54.252  1.00  0.00     0.029 A 
HETATM   29  C   UNL     1      30.050  43.972  55.240  1.00  0.00     0.002 A 
HETATM   30  C   UNL     1      30.043  44.834  56.333  1.00  0.00     0.000 A 
HETATM   31  C   UNL     1      29.055  45.810  56.437  1.00  0.00     0.002 A 
HETATM   32  C   UNL     1      28.067  45.919  55.453  1.00  0.00     0.029 A 
ENDBRANCH  23  27
ENDBRANCH  20  21
ENDBRANCH   3  20
TORSDOF 7
ENDMDL
MODEL 9
REMARK VINA RESULT:      -8.1      1.630      2.403
REMARK  7 active torsions:
REMARK  status: ('A' for Active; 'I' for Inactive)
REMARK    1  A    between atoms: C_3  and  C_4 
REMARK    2  A    between atoms: C_4  and  N_5 
REMARK       I    between atoms: N_5  and  C_6 
REMARK    3  A    between atoms: C_6  and  C_7 
REMARK    4  A    between atoms: C_7  and  N_8 
REMARK    5  A    between atoms: C_10  and  C_11 
REMARK    6  A    between atoms: C_11  and  N_12 
REMARK       I    between atoms: N_12  and  C_13 
REMARK       I    between atoms: C_13  and  N_14 
REMARK    7  A    between atoms: N_14  and  C_15 
ROOT
HETATM    1  N   UNL     1      25.424  47.598  49.571  1.00  0.00    -0.057 N 
HETATM    2  H   UNL     1      25.521  47.076  48.675  1.00  0.00     0.281 HD
HETATM    3  C   UNL     1      24.382  48.672  49.272  1.00  0.00     0.206 C 
HETATM    4  C   UNL     1      24.906  49.578  48.144  1.00  0.00     0.035 C 
HETATM    5  C   UNL     1      26.283  50.152  48.457  1.00  0.00     0.004 C 
HETATM    6  C   UNL     1      27.273  49.042  48.776  1.00  0.00     0.028 C 
HETATM    7  C   UNL     1      26.774  48.167  49.914  1.00  0.00     0.236 C 
ENDROOT
BRANCH   1   8
HETATM    8  C   UNL     1      25.011  46.506  50.562  1.00  0.00     0.337 C 
BRANCH   8   9
HETATM    9  C   UNL     1      25.319  45.066  50.138  1.00  0.00     0.243 C 
HETATM   10  N   UNL     1      26.587  44.642  50.454  1.00  0.00    -0.355 N 
HETATM   11  H   UNL     1      27.186  45.191  51.060  1.00  0.00     0.162 HD
HETATM   12  O   UNL     1      24.501  44.360  49.553  1.00  0.00    -0.272 OA
BRANCH  10  13
HETATM   13  C   UNL     1      26.988  43.263  50.248  1.00  0.00     0.169 C 
BRANCH  13  14
HETATM   14  C   UNL     1      27.530  42.708  51.531  1.00  0.00     0.006 A 
HETATM   15  C   UNL     1      28.063  41.448  51.776  1.00  0.00    -0.047 A 
HETATM   16  C   UNL     1      28.200  40.354  50.767  1.00  0.00     0.049 C 
HETATM   17  C   UNL     1      28.464  41.315  53.147  1.00  0.00     0.015 A 
HETATM   18  C   UNL     1      28.215  42.446  53.889  1.00  0.00     0.051 A 
HETATM   19  S   UNL     1      27.487  43.671  52.957  1.00  0.00    -0.104 SA
ENDBRANCH  13  14
ENDBRANCH  10  13
ENDBRANCH   8   9
ENDBRANCH   1   8
BRANCH   3  20
HETATM   20  C   UNL     1      22.980  48.097  48.916  1.00  0.00     0.157 C 
BRANCH  20  21
HETATM   21  N   UNL     1      21.784  48.664  49.537  1.00  0.00    -0.341 N 
HETATM   22  C   UNL     1      20.844  49.473  48.950  1.00  0.00     0.320 C 
HETATM   23  N   UNL     1      19.729  49.621  49.735  1.00  0.00    -0.309 N 
HETATM   24  O   UNL     1      21.024  49.969  47.843  1.00  0.00    -0.247 OA
HETATM   25  H   UNL     1      19.566  48.912  50.435  1.00  0.00     0.170 HD
HETATM   26  H   UNL     1      21.584  48.359  50.482  1.00  0.00     0.164 HD
BRANCH  23  27
HETATM   27  C   UNL     1      18.650  50.501  49.501  1.00  0.00     0.036 A 
HETATM   28  C   UNL     1      17.496  49.967  48.913  1.00  0.00     0.029 A 
HETATM   29  C   UNL     1      16.388  50.779  48.661  1.00  0.00     0.002 A 
HETATM   30  C   UNL     1      16.416  52.126  49.013  1.00  0.00     0.000 A 
HETATM   31  C   UNL     1      17.552  52.660  49.615  1.00  0.00     0.002 A 
HETATM   32  C   UNL     1      18.666  51.851  49.858  1.00  0.00     0.029 A 
ENDBRANCH  23  27
ENDBRANCH  20  21
ENDBRANCH   3  20
TORSDOF 7
ENDMDL
MODEL 10
REMARK VINA RESULT:      -8.0     11.252     14.248
REMARK  7 active torsions:
REMARK  status: ('A' for Active; 'I' for Inactive)
REMARK    1  A    between atoms: C_3  and  C_4 
REMARK    2  A    between atoms: C_4  and  N_5 
REMARK       I    between atoms: N_5  and  C_6 
REMARK    3  A    between atoms: C_6  and  C_7 
REMARK    4  A    between atoms: C_7  and  N_8 
REMARK    5  A    between atoms: C_10  and  C_11 
REMARK    6  A    between atoms: C_11  and  N_12 
REMARK       I    between atoms: N_12  and  C_13 
REMARK       I    between atoms: C_13  and  N_14 
REMARK    7  A    between atoms: N_14  and  C_15 
ROOT
HETATM    1  N   UNL     1      26.200  47.920  38.991  1.00  0.00    -0.057 N 
HETATM    2  H   UNL     1      26.200  46.928  38.674  1.00  0.00     0.281 HD
HETATM    3  C   UNL     1      26.259  47.833  40.513  1.00  0.00     0.206 C 
HETATM    4  C   UNL     1      25.017  47.078  41.020  1.00  0.00     0.035 C 
HETATM    5  C   UNL     1      23.719  47.691  40.507  1.00  0.00     0.004 C 
HETATM    6  C   UNL     1      23.726  47.782  38.987  1.00  0.00     0.028 C 
HETATM    7  C   UNL     1      24.933  48.558  38.487  1.00  0.00     0.236 C 
ENDROOT
BRANCH   1   8
HETATM    8  C   UNL     1      27.433  48.503  38.294  1.00  0.00     0.337 C 
BRANCH   8   9
HETATM    9  C   UNL     1      27.633  50.015  38.441  1.00  0.00     0.243 C 
HETATM   10  N   UNL     1      28.559  50.374  39.391  1.00  0.00    -0.355 N 
HETATM   11  H   UNL     1      29.162  49.681  39.821  1.00  0.00     0.162 HD
HETATM   12  O   UNL     1      27.005  50.833  37.773  1.00  0.00    -0.272 OA
BRANCH  10  13
HETATM   13  C   UNL     1      28.966  51.757  39.554  1.00  0.00     0.169 C 
BRANCH  13  14
HETATM   14  C   UNL     1      30.455  51.855  39.404  1.00  0.00     0.006 A 
HETATM   15  C   UNL     1      31.331  52.751  40.004  1.00  0.00    -0.047 A 
HETATM   16  C   UNL     1      30.942  53.839  40.952  1.00  0.00     0.049 C 
HETATM   17  C   UNL     1      32.683  52.510  39.588  1.00  0.00     0.015 A 
HETATM   18  C   UNL     1      32.788  51.472  38.692  1.00  0.00     0.051 A 
HETATM   19  S   UNL     1      31.272  50.787  38.330  1.00  0.00    -0.104 SA
ENDBRANCH  13  14
ENDBRANCH  10  13
ENDBRANCH   8   9
ENDBRANCH   1   8
BRANCH   3  20
HETATM   20  C   UNL     1      27.564  47.176  41.048  1.00  0.00     0.157 C 
BRANCH  20  21
HETATM   21  N   UNL     1      28.498  47.965  41.851  1.00  0.00    -0.341 N 
HETATM   22  C   UNL     1      29.759  48.377  41.498  1.00  0.00     0.320 C 
HETATM   23  N   UNL     1      30.263  49.302  42.375  1.00  0.00    -0.309 N 
HETATM   24  O   UNL     1      30.317  47.948  40.493  1.00  0.00    -0.247 OA
HETATM   25  H   UNL     1      29.595  49.808  42.939  1.00  0.00     0.170 HD
HETATM   26  H   UNL     1      28.145  48.313  42.734  1.00  0.00     0.164 HD
BRANCH  23  27
HETATM   27  C   UNL     1      31.579  49.813  42.391  1.00  0.00     0.036 A 
HETATM   28  C   UNL     1      31.830  50.929  43.198  1.00  0.00     0.029 A 
HETATM   29  C   UNL     1      33.111  51.481  43.268  1.00  0.00     0.002 A 
HETATM   30  C   UNL     1      34.156  50.910  42.546  1.00  0.00     0.000 A 
HETATM   31  C   UNL     1      33.919  49.788  41.755  1.00  0.00     0.002 A 
HETATM   32  C   UNL     1      32.634  49.242  41.677  1.00  0.00     0.029 A 
ENDBRANCH  23  27
ENDBRANCH  20  21
ENDBRANCH   3  20
TORSDOF 7
ENDMDL
