MODEL 1
REMARK VINA RESULT:      -9.9      0.000      0.000
REMARK  6 active torsions:
REMARK  status: ('A' for Active; 'I' for Inactive)
REMARK    1  A    between atoms: C_4  and  C_5 
REMARK    2  A    between atoms: C_5  and  C_6 
REMARK    3  A    between atoms: C_6  and  N_7 
REMARK    4  A    between atoms: C_16  and  C_17 
REMARK    5  A    between atoms: C_24  and  C_25 
REMARK    6  A    between atoms: C_24  and  C_29 
ROOT
HETATM    1  N   UNL     1      28.332  42.465  53.033  1.00  0.00    -0.284 N 
HETATM    2  C   UNL     1      28.496  41.355  52.207  1.00  0.00     0.331 A 
HETATM    3  O   UNL     1      29.187  40.384  52.490  1.00  0.00    -0.246 OA
HETATM    4  N   UNL     1      27.830  41.395  51.021  1.00  0.00    -0.275 N 
HETATM    5  C   UNL     1      27.049  42.409  50.591  1.00  0.00     0.262 A 
HETATM    6  O   UNL     1      26.494  42.406  49.505  1.00  0.00    -0.267 OA
HETATM    7  C   UNL     1      26.894  43.560  51.486  1.00  0.00     0.100 A 
HETATM    8  C   UNL     1      27.560  43.549  52.651  1.00  0.00     0.128 A 
HETATM    9  N   UNL     1      27.465  44.639  53.479  1.00  0.00    -0.326 N 
HETATM   10  C   UNL     1      26.759  45.709  53.184  1.00  0.00     0.138 A 
HETATM   11  N   UNL     1      26.072  45.804  52.073  1.00  0.00    -0.345 N 
HETATM   12  H   UNL     1      25.549  46.661  51.883  1.00  0.00     0.163 HD
HETATM   13  C   UNL     1      25.979  44.676  51.035  1.00  0.00     0.264 A 
HETATM   14  H   UNL     1      27.952  40.594  50.412  1.00  0.00     0.173 HD
HETATM   15  H   UNL     1      27.964  44.687  54.363  1.00  0.00     0.169 HD
ENDROOT
BRANCH   1  16
HETATM   16  C   UNL     1      29.038  42.391  54.320  1.00  0.00     0.140 C 
BRANCH  16  17
HETATM   17  C   UNL     1      30.331  43.221  54.323  1.00  0.00     0.059 C 
BRANCH  17  18
HETATM   18  C   UNL     1      30.585  43.901  55.645  1.00  0.00    -0.057 A 
HETATM   19  C   UNL     1      29.922  45.094  55.972  1.00  0.00     0.007 A 
HETATM   20  C   UNL     1      30.142  45.715  57.203  1.00  0.00     0.001 A 
HETATM   21  C   UNL     1      31.011  45.143  58.128  1.00  0.00     0.000 A 
HETATM   22  C   UNL     1      31.659  43.947  57.823  1.00  0.00     0.001 A 
HETATM   23  C   UNL     1      31.448  43.328  56.590  1.00  0.00     0.007 A 
ENDBRANCH  17  18
ENDBRANCH  16  17
ENDBRANCH   1  16
BRANCH  13  24
HETATM   24  C   UNL     1      24.505  44.261  50.970  1.00  0.00     0.426 C 
HETATM   25  F   UNL     1      24.334  43.139  51.721  1.00  0.00    -0.168 F 
HETATM   26  F   UNL     1      23.732  45.217  51.541  1.00  0.00    -0.168 F 
HETATM   27  F   UNL     1      24.022  44.005  49.750  1.00  0.00    -0.168 F 
ENDBRANCH  13  24
BRANCH  13  28
HETATM   28  C   UNL     1      26.308  45.304  49.674  1.00  0.00     0.426 C 
HETATM   29  F   UNL     1      27.655  45.358  49.514  1.00  0.00    -0.168 F 
HETATM   30  F   UNL     1      25.776  44.713  48.602  1.00  0.00    -0.168 F 
HETATM   31  F   UNL     1      25.882  46.597  49.677  1.00  0.00    -0.168 F 
ENDBRANCH  13  28
BRANCH  10  32
HETATM   32  C   UNL     1      26.777  46.789  54.149  1.00  0.00     0.118 A 
HETATM   33  O   UNL     1      25.630  47.277  54.717  1.00  0.00    -0.319 OA
HETATM   34  C   UNL     1      25.986  48.281  55.558  1.00  0.00     0.142 A 
HETATM   35  C   UNL     1      27.349  48.451  55.546  1.00  0.00     0.027 A 
HETATM   36  C   UNL     1      27.864  47.490  54.639  1.00  0.00     0.043 A 
ENDBRANCH  10  32
TORSDOF 6
ENDMDL
MODEL 2
REMARK VINA RESULT:      -9.7      2.332      3.129
REMARK  6 active torsions:
REMARK  status: ('A' for Active; 'I' for Inactive)
REMARK    1  A    between atoms: C_4  and  C_5 
REMARK    2  A    between atoms: C_5  and  C_6 
REMARK    3  A    between atoms: C_6  and  N_7 
REMARK    4  A    between atoms: C_16  and  C_17 
REMARK    5  A    between atoms: C_24  and  C_25 
REMARK    6  A    between atoms: C_24  and  C_29 
ROOT
HETATM    1  N   UNL     1      28.192  42.642  52.081  1.00  0.00    -0.284 N 
HETATM    2  C   UNL     1      28.199  41.299  52.454  1.00  0.00     0.331 A 
HETATM    3  O   UNL     1      28.979  40.816  53.266  1.00  0.00    -0.246 OA
HETATM    4  N   UNL     1      27.267  40.512  51.851  1.00  0.00    -0.275 N 
HETATM    5  C   UNL     1      26.365  40.922  50.934  1.00  0.00     0.262 A 
HETATM    6  O   UNL     1      25.566  40.168  50.405  1.00  0.00    -0.267 OA
HETATM    7  C   UNL     1      26.380  42.342  50.568  1.00  0.00     0.100 A 
HETATM    8  C   UNL     1      27.306  43.130  51.135  1.00  0.00     0.128 A 
HETATM    9  N   UNL     1      27.366  44.451  50.768  1.00  0.00    -0.326 N 
HETATM   10  C   UNL     1      26.565  44.987  49.873  1.00  0.00     0.138 A 
HETATM   11  N   UNL     1      25.629  44.295  49.274  1.00  0.00    -0.345 N 
HETATM   12  H   UNL     1      25.040  44.754  48.576  1.00  0.00     0.163 HD
HETATM   13  C   UNL     1      25.337  42.819  49.583  1.00  0.00     0.264 A 
HETATM   14  H   UNL     1      27.274  39.532  52.111  1.00  0.00     0.173 HD
HETATM   15  H   UNL     1      28.060  45.085  51.155  1.00  0.00     0.169 HD
ENDROOT
BRANCH   1  16
HETATM   16  C   UNL     1      29.188  43.481  52.761  1.00  0.00     0.140 C 
BRANCH  16  17
HETATM   17  C   UNL     1      28.595  44.227  53.966  1.00  0.00     0.059 C 
BRANCH  17  18
HETATM   18  C   UNL     1      29.534  44.271  55.145  1.00  0.00    -0.057 A 
HETATM   19  C   UNL     1      29.496  45.347  56.047  1.00  0.00     0.007 A 
HETATM   20  C   UNL     1      30.351  45.381  57.149  1.00  0.00     0.001 A 
HETATM   21  C   UNL     1      31.240  44.335  57.375  1.00  0.00     0.000 A 
HETATM   22  C   UNL     1      31.273  43.251  56.500  1.00  0.00     0.001 A 
HETATM   23  C   UNL     1      30.425  43.217  55.391  1.00  0.00     0.007 A 
ENDBRANCH  17  18
ENDBRANCH  16  17
ENDBRANCH   1  16
BRANCH  13  24
HETATM   24  C   UNL     1      23.910  42.761  50.137  1.00  0.00     0.426 C 
HETATM   25  F   UNL     1      23.972  42.609  51.488  1.00  0.00    -0.168 F 
HETATM   26  F   UNL     1      23.283  43.944  49.921  1.00  0.00    -0.168 F 
HETATM   27  F   UNL     1      23.135  41.784  49.659  1.00  0.00    -0.168 F 
ENDBRANCH  13  24
BRANCH  13  28
HETATM   28  C   UNL     1      25.304  42.087  48.235  1.00  0.00     0.426 C 
HETATM   29  F   UNL     1      26.571  41.922  47.777  1.00  0.00    -0.168 F 
HETATM   30  F   UNL     1      24.688  40.903  48.216  1.00  0.00    -0.168 F 
HETATM   31  F   UNL     1      24.680  42.883  47.324  1.00  0.00    -0.168 F 
ENDBRANCH  13  28
BRANCH  10  32
HETATM   32  C   UNL     1      26.769  46.390  49.573  1.00  0.00     0.118 A 
HETATM   33  O   UNL     1      27.906  46.846  48.961  1.00  0.00    -0.319 OA
HETATM   34  C   UNL     1      27.791  48.193  48.837  1.00  0.00     0.142 A 
HETATM   35  C   UNL     1      26.594  48.618  49.359  1.00  0.00     0.027 A 
HETATM   36  C   UNL     1      25.931  47.458  49.834  1.00  0.00     0.043 A 
ENDBRANCH  10  32
TORSDOF 6
ENDMDL
MODEL 3
REMARK VINA RESULT:      -9.2      2.448      3.806
REMARK  6 active torsions:
REMARK  status: ('A' for Active; 'I' for Inactive)
REMARK    1  A    between atoms: C_4  and  C_5 
REMARK    2  A    between atoms: C_5  and  C_6 
REMARK    3  A    between atoms: C_6  and  N_7 
REMARK    4  A    between atoms: C_16  and  C_17 
REMARK    5  A    between atoms: C_24  and  C_25 
REMARK    6  A    between atoms: C_24  and  C_29 
ROOT
HETATM    1  N   UNL     1      28.120  42.639  52.299  1.00  0.00    -0.284 N 
HETATM    2  C   UNL     1      28.146  41.299  52.684  1.00  0.00     0.331 A 
HETATM    3  O   UNL     1      28.857  40.855  53.577  1.00  0.00    -0.246 OA
HETATM    4  N   UNL     1      27.315  40.469  51.998  1.00  0.00    -0.275 N 
HETATM    5  C   UNL     1      26.494  40.834  50.989  1.00  0.00     0.262 A 
HETATM    6  O   UNL     1      25.786  40.043  50.389  1.00  0.00    -0.267 OA
HETATM    7  C   UNL     1      26.486  42.251  50.613  1.00  0.00     0.100 A 
HETATM    8  C   UNL     1      27.315  43.082  51.263  1.00  0.00     0.128 A 
HETATM    9  N   UNL     1      27.357  44.402  50.891  1.00  0.00    -0.326 N 
HETATM   10  C   UNL     1      26.630  44.898  49.913  1.00  0.00     0.138 A 
HETATM   11  N   UNL     1      25.790  44.163  49.229  1.00  0.00    -0.345 N 
HETATM   12  H   UNL     1      25.257  44.592  48.470  1.00  0.00     0.163 HD
HETATM   13  C   UNL     1      25.531  42.678  49.521  1.00  0.00     0.264 A 
HETATM   14  H   UNL     1      27.335  39.492  52.267  1.00  0.00     0.173 HD
HETATM   15  H   UNL     1      27.980  45.068  51.340  1.00  0.00     0.169 HD
ENDROOT
BRANCH   1  16
HETATM   16  C   UNL     1      29.005  43.523  53.069  1.00  0.00     0.140 C 
BRANCH  16  17
HETATM   17  C   UNL     1      28.435  43.849  54.459  1.00  0.00     0.059 C 
BRANCH  17  18
HETATM   18  C   UNL     1      27.760  45.196  54.511  1.00  0.00    -0.057 A 
HETATM   19  C   UNL     1      28.458  46.326  54.966  1.00  0.00     0.007 A 
HETATM   20  C   UNL     1      27.841  47.577  54.998  1.00  0.00     0.001 A 
HETATM   21  C   UNL     1      26.527  47.719  54.561  1.00  0.00     0.000 A 
HETATM   22  C   UNL     1      25.830  46.609  54.088  1.00  0.00     0.001 A 
HETATM   23  C   UNL     1      26.442  45.354  54.062  1.00  0.00     0.007 A 
ENDBRANCH  17  18
ENDBRANCH  16  17
ENDBRANCH   1  16
BRANCH  13  24
HETATM   24  C   UNL     1      24.058  42.561  49.927  1.00  0.00     0.426 C 
HETATM   25  F   UNL     1      23.982  42.504  51.285  1.00  0.00    -0.168 F 
HETATM   26  F   UNL     1      23.389  43.683  49.562  1.00  0.00    -0.168 F 
HETATM   27  F   UNL     1      23.399  41.505  49.444  1.00  0.00    -0.168 F 
ENDBRANCH  13  24
BRANCH  13  28
HETATM   28  C   UNL     1      25.667  41.937  48.185  1.00  0.00     0.426 C 
HETATM   29  F   UNL     1      26.971  41.913  47.810  1.00  0.00    -0.168 F 
HETATM   30  F   UNL     1      25.189  40.691  48.143  1.00  0.00    -0.168 F 
HETATM   31  F   UNL     1      25.018  42.651  47.224  1.00  0.00    -0.168 F 
ENDBRANCH  13  28
BRANCH  10  32
HETATM   32  C   UNL     1      26.803  46.307  49.621  1.00  0.00     0.118 A 
HETATM   33  O   UNL     1      27.903  46.783  48.958  1.00  0.00    -0.319 OA
HETATM   34  C   UNL     1      27.768  48.129  48.857  1.00  0.00     0.142 A 
HETATM   35  C   UNL     1      26.595  48.536  49.445  1.00  0.00     0.027 A 
HETATM   36  C   UNL     1      25.969  47.362  49.939  1.00  0.00     0.043 A 
ENDBRANCH  10  32
TORSDOF 6
ENDMDL
MODEL 4
REMARK VINA RESULT:      -8.8      6.870      8.969
REMARK  6 active torsions:
REMARK  status: ('A' for Active; 'I' for Inactive)
REMARK    1  A    between atoms: C_4  and  C_5 
REMARK    2  A    between atoms: C_5  and  C_6 
REMARK    3  A    between atoms: C_6  and  N_7 
REMARK    4  A    between atoms: C_16  and  C_17 
REMARK    5  A    between atoms: C_24  and  C_25 
REMARK    6  A    between atoms: C_24  and  C_29 
ROOT
HETATM    1  N   UNL     1      20.482  46.059  48.371  1.00  0.00    -0.284 N 
HETATM    2  C   UNL     1      19.152  45.643  48.350  1.00  0.00     0.331 A 
HETATM    3  O   UNL     1      18.798  44.479  48.210  1.00  0.00    -0.246 OA
HETATM    4  N   UNL     1      18.222  46.626  48.493  1.00  0.00    -0.275 N 
HETATM    5  C   UNL     1      18.483  47.942  48.642  1.00  0.00     0.262 A 
HETATM    6  O   UNL     1      17.609  48.786  48.742  1.00  0.00    -0.267 OA
HETATM    7  C   UNL     1      19.893  48.345  48.667  1.00  0.00     0.100 A 
HETATM    8  C   UNL     1      20.825  47.394  48.505  1.00  0.00     0.128 A 
HETATM    9  N   UNL     1      22.147  47.760  48.476  1.00  0.00    -0.326 N 
HETATM   10  C   UNL     1      22.553  49.006  48.588  1.00  0.00     0.138 A 
HETATM   11  N   UNL     1      21.714  49.998  48.756  1.00  0.00    -0.345 N 
HETATM   12  H   UNL     1      22.077  50.950  48.824  1.00  0.00     0.163 HD
HETATM   13  C   UNL     1      20.196  49.811  48.887  1.00  0.00     0.264 A 
HETATM   14  H   UNL     1      17.252  46.331  48.469  1.00  0.00     0.173 HD
HETATM   15  H   UNL     1      22.890  47.079  48.338  1.00  0.00     0.169 HD
ENDROOT
BRANCH   1  16
HETATM   16  C   UNL     1      21.472  44.981  48.240  1.00  0.00     0.140 C 
BRANCH  16  17
HETATM   17  C   UNL     1      21.863  44.382  49.600  1.00  0.00     0.059 C 
BRANCH  17  18
HETATM   18  C   UNL     1      23.346  44.136  49.725  1.00  0.00    -0.057 A 
HETATM   19  C   UNL     1      24.268  45.089  49.263  1.00  0.00     0.007 A 
HETATM   20  C   UNL     1      25.640  44.872  49.393  1.00  0.00     0.001 A 
HETATM   21  C   UNL     1      26.108  43.711  50.002  1.00  0.00     0.000 A 
HETATM   22  C   UNL     1      25.203  42.767  50.484  1.00  0.00     0.001 A 
HETATM   23  C   UNL     1      23.829  42.977  50.348  1.00  0.00     0.007 A 
ENDBRANCH  17  18
ENDBRANCH  16  17
ENDBRANCH   1  16
BRANCH  13  24
HETATM   24  C   UNL     1      19.813  50.303  50.287  1.00  0.00     0.426 C 
HETATM   25  F   UNL     1      19.571  49.223  51.079  1.00  0.00    -0.168 F 
HETATM   26  F   UNL     1      20.861  50.954  50.849  1.00  0.00    -0.168 F 
HETATM   27  F   UNL     1      18.741  51.099  50.354  1.00  0.00    -0.168 F 
ENDBRANCH  13  24
BRANCH  13  28
HETATM   28  C   UNL     1      19.546  50.785  47.896  1.00  0.00     0.426 C 
HETATM   29  F   UNL     1      19.790  50.372  46.627  1.00  0.00    -0.168 F 
HETATM   30  F   UNL     1      18.233  50.986  48.033  1.00  0.00    -0.168 F 
HETATM   31  F   UNL     1      20.155  51.997  48.016  1.00  0.00    -0.168 F 
ENDBRANCH  13  28
BRANCH  10  32
HETATM   32  C   UNL     1      23.981  49.236  48.513  1.00  0.00     0.118 A 
HETATM   33  O   UNL     1      24.537  50.065  47.574  1.00  0.00    -0.319 OA
HETATM   34  C   UNL     1      25.881  50.054  47.764  1.00  0.00     0.142 A 
HETATM   35  C   UNL     1      26.207  49.230  48.814  1.00  0.00     0.027 A 
HETATM   36  C   UNL     1      24.983  48.701  49.301  1.00  0.00     0.043 A 
ENDBRANCH  10  32
TORSDOF 6
ENDMDL
MODEL 5
REMARK VINA RESULT:      -8.4      3.297      7.564
REMARK  6 active torsions:
REMARK  status: ('A' for Active; 'I' for Inactive)
REMARK    1  A    between atoms: C_4  and  C_5 
REMARK    2  A    between atoms: C_5  and  C_6 
REMARK    3  A    between atoms: C_6  and  N_7 
REMARK    4  A    between atoms: C_16  and  C_17 
REMARK    5  A    between atoms: C_24  and  C_25 
REMARK    6  A    between atoms: C_24  and  C_29 
ROOT
HETATM    1  N   UNL     1      26.122  45.998  52.234  1.00  0.00    -0.284 N 
HETATM    2  C   UNL     1      26.362  46.842  53.317  1.00  0.00     0.331 A 
HETATM    3  O   UNL     1      25.830  47.935  53.467  1.00  0.00    -0.246 OA
HETATM    4  N   UNL     1      27.253  46.386  54.238  1.00  0.00    -0.275 N 
HETATM    5  C   UNL     1      27.913  45.209  54.180  1.00  0.00     0.262 A 
HETATM    6  O   UNL     1      28.722  44.858  55.022  1.00  0.00    -0.267 OA
HETATM    7  C   UNL     1      27.633  44.342  53.031  1.00  0.00     0.100 A 
HETATM    8  C   UNL     1      26.774  44.783  52.100  1.00  0.00     0.128 A 
HETATM    9  N   UNL     1      26.538  44.006  50.994  1.00  0.00    -0.326 N 
HETATM   10  C   UNL     1      27.123  42.846  50.791  1.00  0.00     0.138 A 
HETATM   11  N   UNL     1      27.970  42.334  51.649  1.00  0.00    -0.345 N 
HETATM   12  H   UNL     1      28.408  41.435  51.439  1.00  0.00     0.163 HD
HETATM   13  C   UNL     1      28.327  42.999  52.986  1.00  0.00     0.264 A 
HETATM   14  H   UNL     1      27.439  46.999  55.023  1.00  0.00     0.173 HD
HETATM   15  H   UNL     1      25.910  44.304  50.252  1.00  0.00     0.169 HD
ENDROOT
BRANCH   1  16
HETATM   16  C   UNL     1      25.138  46.497  51.264  1.00  0.00     0.140 C 
BRANCH  16  17
HETATM   17  C   UNL     1      25.790  47.335  50.153  1.00  0.00     0.059 C 
BRANCH  17  18
HETATM   18  C   UNL     1      24.798  48.200  49.416  1.00  0.00    -0.057 A 
HETATM   19  C   UNL     1      23.430  47.886  49.431  1.00  0.00     0.007 A 
HETATM   20  C   UNL     1      22.508  48.695  48.765  1.00  0.00     0.001 A 
HETATM   21  C   UNL     1      22.938  49.836  48.094  1.00  0.00     0.000 A 
HETATM   22  C   UNL     1      24.291  50.170  48.090  1.00  0.00     0.001 A 
HETATM   23  C   UNL     1      25.217  49.358  48.748  1.00  0.00     0.007 A 
ENDBRANCH  17  18
ENDBRANCH  16  17
ENDBRANCH   1  16
BRANCH  13  24
HETATM   24  C   UNL     1      27.864  42.041  54.089  1.00  0.00     0.426 C 
HETATM   25  F   UNL     1      27.587  40.832  53.530  1.00  0.00    -0.168 F 
HETATM   26  F   UNL     1      28.875  41.827  54.967  1.00  0.00    -0.168 F 
HETATM   27  F   UNL     1      26.785  42.421  54.779  1.00  0.00    -0.168 F 
ENDBRANCH  13  24
BRANCH  13  28
HETATM   28  C   UNL     1      29.859  43.034  53.063  1.00  0.00     0.426 C 
HETATM   29  F   UNL     1      30.343  43.856  52.098  1.00  0.00    -0.168 F 
HETATM   30  F   UNL     1      30.388  43.394  54.234  1.00  0.00    -0.168 F 
HETATM   31  F   UNL     1      30.337  41.793  52.768  1.00  0.00    -0.168 F 
ENDBRANCH  13  28
BRANCH  10  32
HETATM   32  C   UNL     1      26.789  42.154  49.562  1.00  0.00     0.118 A 
HETATM   33  O   UNL     1      25.569  42.294  48.956  1.00  0.00    -0.319 OA
HETATM   34  C   UNL     1      25.573  41.513  47.846  1.00  0.00     0.142 A 
HETATM   35  C   UNL     1      26.779  40.868  47.721  1.00  0.00     0.027 A 
HETATM   36  C   UNL     1      27.568  41.280  48.826  1.00  0.00     0.043 A 
ENDBRANCH  10  32
TORSDOF 6
ENDMDL
MODEL 6
REMARK VINA RESULT:      -8.2     15.368     17.370
REMARK  6 active torsions:
REMARK  status: ('A' for Active; 'I' for Inactive)
REMARK    1  A    between atoms: C_4  and  C_5 
REMARK    2  A    between atoms: C_5  and  C_6 
REMARK    3  A    between atoms: C_6  and  N_7 
REMARK    4  A    between atoms: C_16  and  C_17 
REMARK    5  A    between atoms: C_24  and  C_25 
REMARK    6  A    between atoms: C_24  and  C_29 
ROOT
HETATM    1  N   UNL     1      40.539  45.316  64.311  1.00  0.00    -0.284 N 
HETATM    2  C   UNL     1      41.539  46.286  64.266  1.00  0.00     0.331 A 
HETATM    3  O   UNL     1      42.656  46.100  63.799  1.00  0.00    -0.246 OA
HETATM    4  N   UNL     1      41.212  47.500  64.789  1.00  0.00    -0.275 N 
HETATM    5  C   UNL     1      40.023  47.824  65.342  1.00  0.00     0.262 A 
HETATM    6  O   UNL     1      39.790  48.921  65.820  1.00  0.00    -0.267 OA
HETATM    7  C   UNL     1      38.991  46.783  65.368  1.00  0.00     0.100 A 
HETATM    8  C   UNL     1      39.301  45.573  64.877  1.00  0.00     0.128 A 
HETATM    9  N   UNL     1      38.364  44.573  64.937  1.00  0.00    -0.326 N 
HETATM   10  C   UNL     1      37.170  44.735  65.466  1.00  0.00     0.138 A 
HETATM   11  N   UNL     1      36.779  45.882  65.962  1.00  0.00    -0.345 N 
HETATM   12  H   UNL     1      35.847  45.955  66.374  1.00  0.00     0.163 HD
HETATM   13  C   UNL     1      37.640  47.154  65.937  1.00  0.00     0.264 A 
HETATM   14  H   UNL     1      41.938  48.206  64.768  1.00  0.00     0.173 HD
HETATM   15  H   UNL     1      38.556  43.635  64.596  1.00  0.00     0.169 HD
ENDROOT
BRANCH   1  16
HETATM   16  C   UNL     1      40.903  44.022  63.718  1.00  0.00     0.140 C 
BRANCH  16  17
HETATM   17  C   UNL     1      41.259  42.974  64.784  1.00  0.00     0.059 C 
BRANCH  17  18
HETATM   18  C   UNL     1      40.499  41.684  64.611  1.00  0.00    -0.057 A 
HETATM   19  C   UNL     1      39.814  41.415  63.415  1.00  0.00     0.007 A 
HETATM   20  C   UNL     1      39.125  40.213  63.246  1.00  0.00     0.001 A 
HETATM   21  C   UNL     1      39.126  39.259  64.259  1.00  0.00     0.000 A 
HETATM   22  C   UNL     1      39.820  39.505  65.442  1.00  0.00     0.001 A 
HETATM   23  C   UNL     1      40.504  40.710  65.619  1.00  0.00     0.007 A 
ENDBRANCH  17  18
ENDBRANCH  16  17
ENDBRANCH   1  16
BRANCH  13  24
HETATM   24  C   UNL     1      36.884  48.177  65.082  1.00  0.00     0.426 C 
HETATM   25  F   UNL     1      36.933  47.780  63.781  1.00  0.00    -0.168 F 
HETATM   26  F   UNL     1      35.573  48.184  65.423  1.00  0.00    -0.168 F 
HETATM   27  F   UNL     1      37.337  49.433  65.135  1.00  0.00    -0.168 F 
ENDBRANCH  13  24
BRANCH  13  28
HETATM   28  C   UNL     1      37.645  47.710  67.366  1.00  0.00     0.426 C 
HETATM   29  F   UNL     1      38.703  47.200  68.048  1.00  0.00    -0.168 F 
HETATM   30  F   UNL     1      37.661  49.039  67.488  1.00  0.00    -0.168 F 
HETATM   31  F   UNL     1      36.535  47.258  68.012  1.00  0.00    -0.168 F 
ENDBRANCH  13  28
BRANCH  10  32
HETATM   32  C   UNL     1      36.300  43.577  65.479  1.00  0.00     0.118 A 
HETATM   33  O   UNL     1      34.994  43.652  65.885  1.00  0.00    -0.319 OA
HETATM   34  C   UNL     1      34.464  42.406  65.790  1.00  0.00     0.142 A 
HETATM   35  C   UNL     1      35.408  41.522  65.328  1.00  0.00     0.027 A 
HETATM   36  C   UNL     1      36.594  42.273  65.124  1.00  0.00     0.043 A 
ENDBRANCH  10  32
TORSDOF 6
ENDMDL
MODEL 7
REMARK VINA RESULT:      -8.2     15.046     17.710
REMARK  6 active torsions:
REMARK  status: ('A' for Active; 'I' for Inactive)
REMARK    1  A    between atoms: C_4  and  C_5 
REMARK    2  A    between atoms: C_5  and  C_6 
REMARK    3  A    between atoms: C_6  and  N_7 
REMARK    4  A    between atoms: C_16  and  C_17 
REMARK    5  A    between atoms: C_24  and  C_25 
REMARK    6  A    between atoms: C_24  and  C_29 
ROOT
HETATM    1  N   UNL     1      37.526  47.156  66.482  1.00  0.00    -0.284 N 
HETATM    2  C   UNL     1      36.179  46.942  66.765  1.00  0.00     0.331 A 
HETATM    3  O   UNL     1      35.477  47.722  67.398  1.00  0.00    -0.246 OA
HETATM    4  N   UNL     1      35.651  45.780  66.293  1.00  0.00    -0.275 N 
HETATM    5  C   UNL     1      36.321  44.837  65.595  1.00  0.00     0.262 A 
HETATM    6  O   UNL     1      35.805  43.799  65.216  1.00  0.00    -0.267 OA
HETATM    7  C   UNL     1      37.735  45.096  65.309  1.00  0.00     0.100 A 
HETATM    8  C   UNL     1      38.280  46.226  65.785  1.00  0.00     0.128 A 
HETATM    9  N   UNL     1      39.614  46.462  65.569  1.00  0.00    -0.326 N 
HETATM   10  C   UNL     1      40.398  45.625  64.924  1.00  0.00     0.138 A 
HETATM   11  N   UNL     1      39.951  44.502  64.419  1.00  0.00    -0.345 N 
HETATM   12  H   UNL     1      40.603  43.879  63.938  1.00  0.00     0.163 HD
HETATM   13  C   UNL     1      38.479  44.071  64.483  1.00  0.00     0.264 A 
HETATM   14  H   UNL     1      34.674  45.614  66.504  1.00  0.00     0.173 HD
HETATM   15  H   UNL     1      40.078  47.294  65.924  1.00  0.00     0.169 HD
ENDROOT
BRANCH   1  16
HETATM   16  C   UNL     1      38.070  48.428  66.977  1.00  0.00     0.140 C 
BRANCH  16  17
HETATM   17  C   UNL     1      37.735  49.605  66.049  1.00  0.00     0.059 C 
BRANCH  17  18
HETATM   18  C   UNL     1      37.539  50.900  66.797  1.00  0.00    -0.057 A 
HETATM   19  C   UNL     1      37.150  50.892  68.146  1.00  0.00     0.007 A 
HETATM   20  C   UNL     1      36.986  52.089  68.845  1.00  0.00     0.001 A 
HETATM   21  C   UNL     1      37.226  53.306  68.213  1.00  0.00     0.000 A 
HETATM   22  C   UNL     1      37.634  53.326  66.880  1.00  0.00     0.001 A 
HETATM   23  C   UNL     1      37.791  52.131  66.175  1.00  0.00     0.007 A 
ENDBRANCH  17  18
ENDBRANCH  16  17
ENDBRANCH   1  16
BRANCH  13  24
HETATM   24  C   UNL     1      37.984  43.988  63.035  1.00  0.00     0.426 C 
HETATM   25  F   UNL     1      37.433  45.183  62.692  1.00  0.00    -0.168 F 
HETATM   26  F   UNL     1      39.035  43.806  62.198  1.00  0.00    -0.168 F 
HETATM   27  F   UNL     1      37.077  43.040  62.780  1.00  0.00    -0.168 F 
ENDBRANCH  13  24
BRANCH  13  28
HETATM   28  C   UNL     1      38.464  42.636  65.025  1.00  0.00     0.426 C 
HETATM   29  F   UNL     1      38.573  42.660  66.377  1.00  0.00    -0.168 F 
HETATM   30  F   UNL     1      37.409  41.886  64.696  1.00  0.00    -0.168 F 
HETATM   31  F   UNL     1      39.575  41.990  64.574  1.00  0.00    -0.168 F 
ENDBRANCH  13  28
BRANCH  10  32
HETATM   32  C   UNL     1      41.791  46.002  64.798  1.00  0.00     0.118 A 
HETATM   33  O   UNL     1      42.567  45.583  63.750  1.00  0.00    -0.319 OA
HETATM   34  C   UNL     1      43.811  46.094  63.932  1.00  0.00     0.142 A 
HETATM   35  C   UNL     1      43.855  46.841  65.084  1.00  0.00     0.027 A 
HETATM   36  C   UNL     1      42.553  46.785  65.645  1.00  0.00     0.043 A 
ENDBRANCH  10  32
TORSDOF 6
ENDMDL
MODEL 8
REMARK VINA RESULT:      -8.2     15.615     17.683
REMARK  6 active torsions:
REMARK  status: ('A' for Active; 'I' for Inactive)
REMARK    1  A    between atoms: C_4  and  C_5 
REMARK    2  A    between atoms: C_5  and  C_6 
REMARK    3  A    between atoms: C_6  and  N_7 
REMARK    4  A    between atoms: C_16  and  C_17 
REMARK    5  A    between atoms: C_24  and  C_25 
REMARK    6  A    between atoms: C_24  and  C_29 
ROOT
HETATM    1  N   UNL     1      37.248  44.318  65.752  1.00  0.00    -0.284 N 
HETATM    2  C   UNL     1      35.879  44.436  65.984  1.00  0.00     0.331 A 
HETATM    3  O   UNL     1      35.106  43.487  66.032  1.00  0.00    -0.246 OA
HETATM    4  N   UNL     1      35.414  45.703  66.158  1.00  0.00    -0.275 N 
HETATM    5  C   UNL     1      36.160  46.828  66.116  1.00  0.00     0.262 A 
HETATM    6  O   UNL     1      35.689  47.944  66.254  1.00  0.00    -0.267 OA
HETATM    7  C   UNL     1      37.598  46.668  65.876  1.00  0.00     0.100 A 
HETATM    8  C   UNL     1      38.073  45.429  65.680  1.00  0.00     0.128 A 
HETATM    9  N   UNL     1      39.407  45.265  65.406  1.00  0.00    -0.326 N 
HETATM   10  C   UNL     1      40.252  46.269  65.313  1.00  0.00     0.138 A 
HETATM   11  N   UNL     1      39.879  47.511  65.496  1.00  0.00    -0.345 N 
HETATM   12  H   UNL     1      40.570  48.257  65.400  1.00  0.00     0.163 HD
HETATM   13  C   UNL     1      38.449  47.919  65.881  1.00  0.00     0.264 A 
HETATM   14  H   UNL     1      34.418  45.797  66.317  1.00  0.00     0.173 HD
HETATM   15  H   UNL     1      39.811  44.349  65.233  1.00  0.00     0.169 HD
ENDROOT
BRANCH   1  16
HETATM   16  C   UNL     1      37.734  42.941  65.593  1.00  0.00     0.140 C 
BRANCH  16  17
HETATM   17  C   UNL     1      37.746  42.495  64.123  1.00  0.00     0.059 C 
BRANCH  17  18
HETATM   18  C   UNL     1      38.493  41.202  63.911  1.00  0.00    -0.057 A 
HETATM   19  C   UNL     1      38.969  40.854  62.637  1.00  0.00     0.007 A 
HETATM   20  C   UNL     1      39.676  39.667  62.442  1.00  0.00     0.001 A 
HETATM   21  C   UNL     1      39.933  38.823  63.518  1.00  0.00     0.000 A 
HETATM   22  C   UNL     1      39.485  39.167  64.792  1.00  0.00     0.001 A 
HETATM   23  C   UNL     1      38.769  40.350  64.989  1.00  0.00     0.007 A 
ENDBRANCH  17  18
ENDBRANCH  16  17
ENDBRANCH   1  16
BRANCH  13  24
HETATM   24  C   UNL     1      38.539  48.584  67.258  1.00  0.00     0.426 C 
HETATM   25  F   UNL     1      38.684  47.615  68.203  1.00  0.00    -0.168 F 
HETATM   26  F   UNL     1      39.656  49.348  67.329  1.00  0.00    -0.168 F 
HETATM   27  F   UNL     1      37.494  49.337  67.614  1.00  0.00    -0.168 F 
ENDBRANCH  13  24
BRANCH  13  28
HETATM   28  C   UNL     1      38.027  49.019  64.899  1.00  0.00     0.426 C 
HETATM   29  F   UNL     1      37.261  48.482  63.917  1.00  0.00    -0.168 F 
HETATM   30  F   UNL     1      37.381  50.065  65.419  1.00  0.00    -0.168 F 
HETATM   31  F   UNL     1      39.141  49.500  64.280  1.00  0.00    -0.168 F 
ENDBRANCH  13  28
BRANCH  10  32
HETATM   32  C   UNL     1      41.625  45.938  64.993  1.00  0.00     0.118 A 
HETATM   33  O   UNL     1      42.117  46.025  63.718  1.00  0.00    -0.319 OA
HETATM   34  C   UNL     1      43.418  45.638  63.755  1.00  0.00     0.142 A 
HETATM   35  C   UNL     1      43.779  45.302  65.037  1.00  0.00     0.027 A 
HETATM   36  C   UNL     1      42.625  45.495  65.840  1.00  0.00     0.043 A 
ENDBRANCH  10  32
TORSDOF 6
ENDMDL
MODEL 9
REMARK VINA RESULT:      -8.1     13.212     15.244
REMARK  6 active torsions:
REMARK  status: ('A' for Active; 'I' for Inactive)
REMARK    1  A    between atoms: C_4  and  C_5 
REMARK    2  A    between atoms: C_5  and  C_6 
REMARK    3  A    between atoms: C_6  and  N_7 
REMARK    4  A    between atoms: C_16  and  C_17 
REMARK    5  A    between atoms: C_24  and  C_25 
REMARK    6  A    between atoms: C_24  and  C_29 
ROOT
HETATM    1  N   UNL     1      32.946  51.493  39.958  1.00  0.00    -0.284 N 
HETATM    2  C   UNL     1      33.373  52.807  40.141  1.00  0.00     0.331 A 
HETATM    3  O   UNL     1      34.548  53.141  40.235  1.00  0.00    -0.246 OA
HETATM    4  N   UNL     1      32.390  53.745  40.216  1.00  0.00    -0.275 N 
HETATM    5  C   UNL     1      31.064  53.502  40.138  1.00  0.00     0.262 A 
HETATM    6  O   UNL     1      30.221  54.378  40.237  1.00  0.00    -0.267 OA
HETATM    7  C   UNL     1      30.648  52.110  39.940  1.00  0.00     0.100 A 
HETATM    8  C   UNL     1      31.602  51.168  39.885  1.00  0.00     0.128 A 
HETATM    9  N   UNL     1      31.229  49.854  39.749  1.00  0.00    -0.326 N 
HETATM   10  C   UNL     1      29.975  49.465  39.680  1.00  0.00     0.138 A 
HETATM   11  N   UNL     1      28.979  50.315  39.719  1.00  0.00    -0.345 N 
HETATM   12  H   UNL     1      28.021  49.962  39.676  1.00  0.00     0.163 HD
HETATM   13  C   UNL     1      29.168  51.837  39.798  1.00  0.00     0.264 A 
HETATM   14  H   UNL     1      32.693  54.701  40.358  1.00  0.00     0.173 HD
HETATM   15  H   UNL     1      31.912  49.102  39.720  1.00  0.00     0.169 HD
ENDROOT
BRANCH   1  16
HETATM   16  C   UNL     1      34.024  50.499  39.853  1.00  0.00     0.140 C 
BRANCH  16  17
HETATM   17  C   UNL     1      34.247  49.741  41.170  1.00  0.00     0.059 C 
BRANCH  17  18
HETATM   18  C   UNL     1      33.956  50.585  42.386  1.00  0.00    -0.057 A 
HETATM   19  C   UNL     1      32.686  50.561  42.983  1.00  0.00     0.007 A 
HETATM   20  C   UNL     1      32.420  51.327  44.119  1.00  0.00     0.001 A 
HETATM   21  C   UNL     1      33.423  52.111  44.682  1.00  0.00     0.000 A 
HETATM   22  C   UNL     1      34.693  52.128  44.111  1.00  0.00     0.001 A 
HETATM   23  C   UNL     1      34.961  51.369  42.969  1.00  0.00     0.007 A 
ENDBRANCH  17  18
ENDBRANCH  16  17
ENDBRANCH   1  16
BRANCH  13  24
HETATM   24  C   UNL     1      28.566  52.420  38.515  1.00  0.00     0.426 C 
HETATM   25  F   UNL     1      29.410  52.162  37.479  1.00  0.00    -0.168 F 
HETATM   26  F   UNL     1      27.405  51.784  38.220  1.00  0.00    -0.168 F 
HETATM   27  F   UNL     1      28.332  53.736  38.523  1.00  0.00    -0.168 F 
ENDBRANCH  13  24
BRANCH  13  28
HETATM   28  C   UNL     1      28.283  52.330  40.950  1.00  0.00     0.426 C 
HETATM   29  F   UNL     1      28.929  52.148  42.129  1.00  0.00    -0.168 F 
HETATM   30  F   UNL     1      27.870  53.598  40.883  1.00  0.00    -0.168 F 
HETATM   31  F   UNL     1      27.171  51.546  41.010  1.00  0.00    -0.168 F 
ENDBRANCH  13  28
BRANCH  10  32
HETATM   32  C   UNL     1      29.740  48.040  39.562  1.00  0.00     0.118 A 
HETATM   33  O   UNL     1      30.446  47.255  38.690  1.00  0.00    -0.319 OA
HETATM   34  C   UNL     1      29.981  45.987  38.814  1.00  0.00     0.142 A 
HETATM   35  C   UNL     1      28.983  45.935  39.756  1.00  0.00     0.027 A 
HETATM   36  C   UNL     1      28.825  47.258  40.243  1.00  0.00     0.043 A 
ENDBRANCH  10  32
TORSDOF 6
ENDMDL
MODEL 10
REMARK VINA RESULT:      -8.0      6.973     10.688
REMARK  6 active torsions:
REMARK  status: ('A' for Active; 'I' for Inactive)
REMARK    1  A    between atoms: C_4  and  C_5 
REMARK    2  A    between atoms: C_5  and  C_6 
REMARK    3  A    between atoms: C_6  and  N_7 
REMARK    4  A    between atoms: C_16  and  C_17 
REMARK    5  A    between atoms: C_24  and  C_25 
REMARK    6  A    between atoms: C_24  and  C_29 
ROOT
HETATM    1  N   UNL     1      19.653  46.418  48.589  1.00  0.00    -0.284 N 
HETATM    2  C   UNL     1      18.297  46.508  48.278  1.00  0.00     0.331 A 
HETATM    3  O   UNL     1      17.585  45.544  48.024  1.00  0.00    -0.246 OA
HETATM    4  N   UNL     1      17.774  47.764  48.265  1.00  0.00    -0.275 N 
HETATM    5  C   UNL     1      18.455  48.903  48.515  1.00  0.00     0.262 A 
HETATM    6  O   UNL     1      17.942  50.008  48.466  1.00  0.00    -0.267 OA
HETATM    7  C   UNL     1      19.878  48.773  48.844  1.00  0.00     0.100 A 
HETATM    8  C   UNL     1      20.417  47.545  48.841  1.00  0.00     0.128 A 
HETATM    9  N   UNL     1      21.758  47.409  49.098  1.00  0.00    -0.326 N 
HETATM   10  C   UNL     1      22.552  48.429  49.339  1.00  0.00     0.138 A 
HETATM   11  N   UNL     1      22.111  49.662  49.369  1.00  0.00    -0.345 N 
HETATM   12  H   UNL     1      22.771  50.422  49.548  1.00  0.00     0.163 HD
HETATM   13  C   UNL     1      20.635  50.039  49.178  1.00  0.00     0.264 A 
HETATM   14  H   UNL     1      16.790  47.837  48.031  1.00  0.00     0.173 HD
HETATM   15  H   UNL     1      22.218  46.502  49.090  1.00  0.00     0.169 HD
ENDROOT
BRANCH   1  16
HETATM   16  C   UNL     1      20.192  45.052  48.623  1.00  0.00     0.140 C 
BRANCH  16  17
HETATM   17  C   UNL     1      21.220  44.804  47.509  1.00  0.00     0.059 C 
BRANCH  17  18
HETATM   18  C   UNL     1      20.616  44.886  46.129  1.00  0.00    -0.057 A 
HETATM   19  C   UNL     1      19.698  43.916  45.695  1.00  0.00     0.007 A 
HETATM   20  C   UNL     1      19.124  44.000  44.425  1.00  0.00     0.001 A 
HETATM   21  C   UNL     1      19.445  45.060  43.582  1.00  0.00     0.000 A 
HETATM   22  C   UNL     1      20.339  46.040  44.010  1.00  0.00     0.001 A 
HETATM   23  C   UNL     1      20.922  45.955  45.276  1.00  0.00     0.007 A 
ENDBRANCH  17  18
ENDBRANCH  16  17
ENDBRANCH   1  16
BRANCH  13  24
HETATM   24  C   UNL     1      20.176  50.690  50.487  1.00  0.00     0.426 C 
HETATM   25  F   UNL     1      21.272  51.122  51.168  1.00  0.00    -0.168 F 
HETATM   26  F   UNL     1      19.441  51.797  50.218  1.00  0.00    -0.168 F 
HETATM   27  F   UNL     1      19.471  49.911  51.313  1.00  0.00    -0.168 F 
ENDBRANCH  13  24
BRANCH  13  28
HETATM   28  C   UNL     1      20.598  51.142  48.113  1.00  0.00     0.426 C 
HETATM   29  F   UNL     1      20.515  50.581  46.880  1.00  0.00    -0.168 F 
HETATM   30  F   UNL     1      19.627  52.051  48.232  1.00  0.00    -0.168 F 
HETATM   31  F   UNL     1      21.784  51.811  48.138  1.00  0.00    -0.168 F 
ENDBRANCH  13  28
BRANCH  10  32
HETATM   32  C   UNL     1      23.951  48.127  49.569  1.00  0.00     0.118 A 
HETATM   33  O   UNL     1      24.952  48.984  49.193  1.00  0.00    -0.319 OA
HETATM   34  C   UNL     1      26.132  48.407  49.534  1.00  0.00     0.142 A 
HETATM   35  C   UNL     1      25.912  47.188  50.128  1.00  0.00     0.027 A 
HETATM   36  C   UNL     1      24.506  47.004  50.153  1.00  0.00     0.043 A 
ENDBRANCH  10  32
TORSDOF 6
ENDMDL
