MODEL 1
REMARK VINA RESULT:      -9.3      0.000      0.000
REMARK  6 active torsions:
REMARK  status: ('A' for Active; 'I' for Inactive)
REMARK    1  A    between atoms: C_2  and  O_3 
REMARK    2  A    between atoms: C_2  and  C_4 
REMARK    3  A    between atoms: C_6  and  N_7 
REMARK       I    between atoms: N_7  and  C_8 
REMARK    4  A    between atoms: C_8  and  C_9 
REMARK    5  A    between atoms: C_14  and  C_15 
REMARK    6  A    between atoms: C_21  and  C_22 
ROOT
HETATM    1  C   UNL     1      24.787  45.947  51.060  1.00  0.00     0.148 A 
HETATM    2  N   UNL     1      25.647  46.607  51.868  1.00  0.00    -0.165 NA
HETATM    3  N   UNL     1      26.013  45.679  52.771  1.00  0.00    -0.240 N 
HETATM    4  C   UNL     1      25.482  44.439  52.527  1.00  0.00     0.123 A 
HETATM    5  N   UNL     1      25.759  43.382  53.321  1.00  0.00    -0.364 N 
HETATM    6  C   UNL     1      26.773  43.460  54.372  1.00  0.00     0.143 C 
HETATM    7  C   UNL     1      26.819  44.886  54.944  1.00  0.00     0.068 C 
HETATM    8  C   UNL     1      26.969  45.945  53.833  1.00  0.00     0.221 C 
HETATM    9  C   UNL     1      24.686  44.578  51.423  1.00  0.00     0.089 A 
HETATM   10  H   UNL     1      25.506  42.437  53.035  1.00  0.00     0.162 HD
ENDROOT
BRANCH   1  11
HETATM   11  C   UNL     1      24.058  46.624  49.970  1.00  0.00     0.276 C 
HETATM   12  N   UNL     1      24.011  47.992  50.151  1.00  0.00    -0.322 N 
HETATM   13  H   UNL     1      24.518  48.309  50.975  1.00  0.00     0.169 HD
HETATM   14  O   UNL     1      23.558  45.987  49.049  1.00  0.00    -0.266 OA
BRANCH  12  15
HETATM   15  C   UNL     1      23.336  48.954  49.380  1.00  0.00     0.035 A 
HETATM   16  C   UNL     1      21.987  49.281  49.550  1.00  0.00     0.039 A 
HETATM   17  C   UNL     1      21.374  50.270  48.762  1.00  0.00    -0.028 A 
HETATM   18  C   UNL     1      22.134  50.921  47.781  1.00  0.00     0.010 A 
HETATM   19  C   UNL     1      23.479  50.602  47.603  1.00  0.00     0.003 A 
HETATM   20  C   UNL     1      24.076  49.626  48.401  1.00  0.00     0.029 A 
BRANCH  17  21
HETATM   21  C   UNL     1      19.912  50.603  48.971  1.00  0.00     0.147 C 
HETATM   22  C   UNL     1      19.589  52.041  48.596  1.00  0.00     0.044 C 
BRANCH  21  23
HETATM   23  O   UNL     1      19.548  50.389  50.335  1.00  0.00    -0.391 OA
HETATM   24  H   UNL     1      19.670  49.440  50.510  1.00  0.00     0.210 HD
ENDBRANCH  21  23
ENDBRANCH  17  21
ENDBRANCH  12  15
ENDBRANCH   1  11
BRANCH   8  25
HETATM   25  C   UNL     1      26.805  47.329  54.421  1.00  0.00     0.409 C 
HETATM   26  F   UNL     1      27.701  48.221  53.945  1.00  0.00    -0.169 F 
HETATM   27  F   UNL     1      25.564  47.830  54.231  1.00  0.00    -0.169 F 
HETATM   28  F   UNL     1      27.001  47.282  55.767  1.00  0.00    -0.169 F 
ENDBRANCH   8  25
BRANCH   6  29
HETATM   29  C   UNL     1      28.135  42.988  53.970  1.00  0.00     0.075 A 
HETATM   30  O   UNL     1      28.175  42.045  52.983  1.00  0.00    -0.325 OA
HETATM   31  C   UNL     1      29.483  41.763  52.753  1.00  0.00     0.142 A 
HETATM   32  C   UNL     1      30.288  42.504  53.585  1.00  0.00     0.027 A 
HETATM   33  C   UNL     1      29.419  43.297  54.373  1.00  0.00     0.037 A 
ENDBRANCH   6  29
TORSDOF 6
ENDMDL
MODEL 2
REMARK VINA RESULT:      -9.0      3.050      9.095
REMARK  6 active torsions:
REMARK  status: ('A' for Active; 'I' for Inactive)
REMARK    1  A    between atoms: C_2  and  O_3 
REMARK    2  A    between atoms: C_2  and  C_4 
REMARK    3  A    between atoms: C_6  and  N_7 
REMARK       I    between atoms: N_7  and  C_8 
REMARK    4  A    between atoms: C_8  and  C_9 
REMARK    5  A    between atoms: C_14  and  C_15 
REMARK    6  A    between atoms: C_21  and  C_22 
ROOT
HETATM    1  C   UNL     1      24.339  47.290  49.962  1.00  0.00     0.148 A 
HETATM    2  N   UNL     1      23.834  48.545  49.949  1.00  0.00    -0.165 NA
HETATM    3  N   UNL     1      22.785  48.457  49.110  1.00  0.00    -0.240 N 
HETATM    4  C   UNL     1      22.556  47.187  48.650  1.00  0.00     0.123 A 
HETATM    5  N   UNL     1      21.532  46.910  47.815  1.00  0.00    -0.364 N 
HETATM    6  C   UNL     1      20.512  47.909  47.498  1.00  0.00     0.143 C 
HETATM    7  C   UNL     1      21.139  49.312  47.510  1.00  0.00     0.068 C 
HETATM    8  C   UNL     1      21.914  49.583  48.815  1.00  0.00     0.221 C 
HETATM    9  C   UNL     1      23.544  46.406  49.187  1.00  0.00     0.089 A 
HETATM   10  H   UNL     1      21.266  45.945  47.621  1.00  0.00     0.162 HD
ENDROOT
BRANCH   1  11
HETATM   11  C   UNL     1      25.577  46.950  50.691  1.00  0.00     0.276 C 
HETATM   12  N   UNL     1      25.317  46.515  51.976  1.00  0.00    -0.322 N 
HETATM   13  H   UNL     1      24.324  46.460  52.191  1.00  0.00     0.169 HD
HETATM   14  O   UNL     1      26.677  47.080  50.167  1.00  0.00    -0.266 OA
BRANCH  12  15
HETATM   15  C   UNL     1      26.233  46.189  52.991  1.00  0.00     0.035 A 
HETATM   16  C   UNL     1      26.719  44.898  53.214  1.00  0.00     0.039 A 
HETATM   17  C   UNL     1      27.655  44.640  54.231  1.00  0.00    -0.028 A 
HETATM   18  C   UNL     1      28.087  45.700  55.039  1.00  0.00     0.010 A 
HETATM   19  C   UNL     1      27.608  46.991  54.824  1.00  0.00     0.003 A 
HETATM   20  C   UNL     1      26.689  47.234  53.803  1.00  0.00     0.029 A 
BRANCH  17  21
HETATM   21  C   UNL     1      28.163  43.230  54.449  1.00  0.00     0.147 C 
HETATM   22  C   UNL     1      29.552  43.022  53.864  1.00  0.00     0.044 C 
BRANCH  21  23
HETATM   23  O   UNL     1      27.268  42.287  53.859  1.00  0.00    -0.391 OA
HETATM   24  H   UNL     1      27.818  41.573  53.493  1.00  0.00     0.210 HD
ENDBRANCH  21  23
ENDBRANCH  17  21
ENDBRANCH  12  15
ENDBRANCH   1  11
BRANCH   8  25
HETATM   25  C   UNL     1      22.677  50.884  48.696  1.00  0.00     0.409 C 
HETATM   26  F   UNL     1      23.143  51.340  49.879  1.00  0.00    -0.169 F 
HETATM   27  F   UNL     1      23.716  50.800  47.834  1.00  0.00    -0.169 F 
HETATM   28  F   UNL     1      21.854  51.856  48.217  1.00  0.00    -0.169 F 
ENDBRANCH   8  25
BRANCH   6  29
HETATM   29  C   UNL     1      19.286  47.851  48.355  1.00  0.00     0.075 A 
HETATM   30  O   UNL     1      18.172  47.318  47.771  1.00  0.00    -0.325 OA
HETATM   31  C   UNL     1      17.184  47.339  48.703  1.00  0.00     0.142 A 
HETATM   32  C   UNL     1      17.643  47.888  49.877  1.00  0.00     0.027 A 
HETATM   33  C   UNL     1      19.001  48.220  49.655  1.00  0.00     0.037 A 
ENDBRANCH   6  29
TORSDOF 6
ENDMDL
MODEL 3
REMARK VINA RESULT:      -9.0      3.723      9.278
REMARK  6 active torsions:
REMARK  status: ('A' for Active; 'I' for Inactive)
REMARK    1  A    between atoms: C_2  and  O_3 
REMARK    2  A    between atoms: C_2  and  C_4 
REMARK    3  A    between atoms: C_6  and  N_7 
REMARK       I    between atoms: N_7  and  C_8 
REMARK    4  A    between atoms: C_8  and  C_9 
REMARK    5  A    between atoms: C_14  and  C_15 
REMARK    6  A    between atoms: C_21  and  C_22 
ROOT
HETATM    1  C   UNL     1      23.375  47.830  49.226  1.00  0.00     0.148 A 
HETATM    2  N   UNL     1      22.638  48.918  49.543  1.00  0.00    -0.165 NA
HETATM    3  N   UNL     1      21.632  48.893  48.650  1.00  0.00    -0.240 N 
HETATM    4  C   UNL     1      21.655  47.795  47.830  1.00  0.00     0.123 A 
HETATM    5  N   UNL     1      20.709  47.596  46.887  1.00  0.00    -0.364 N 
HETATM    6  C   UNL     1      19.518  48.441  46.807  1.00  0.00     0.143 C 
HETATM    7  C   UNL     1      19.864  49.867  47.263  1.00  0.00     0.068 C 
HETATM    8  C   UNL     1      20.563  49.878  48.637  1.00  0.00     0.221 C 
HETATM    9  C   UNL     1      22.770  47.084  48.180  1.00  0.00     0.089 A 
HETATM   10  H   UNL     1      20.635  46.700  46.407  1.00  0.00     0.162 HD
ENDROOT
BRANCH   1  11
HETATM   11  C   UNL     1      24.650  47.521  49.903  1.00  0.00     0.276 C 
HETATM   12  N   UNL     1      24.467  46.699  50.999  1.00  0.00    -0.322 N 
HETATM   13  H   UNL     1      23.500  46.411  51.132  1.00  0.00     0.169 HD
HETATM   14  O   UNL     1      25.711  47.986  49.502  1.00  0.00    -0.266 OA
BRANCH  12  15
HETATM   15  C   UNL     1      25.422  46.266  51.935  1.00  0.00     0.035 A 
HETATM   16  C   UNL     1      25.889  47.055  52.991  1.00  0.00     0.039 A 
HETATM   17  C   UNL     1      26.827  46.556  53.910  1.00  0.00    -0.028 A 
HETATM   18  C   UNL     1      27.308  45.249  53.746  1.00  0.00     0.010 A 
HETATM   19  C   UNL     1      26.849  44.455  52.697  1.00  0.00     0.003 A 
HETATM   20  C   UNL     1      25.908  44.961  51.799  1.00  0.00     0.029 A 
BRANCH  17  21
HETATM   21  C   UNL     1      27.314  47.434  55.044  1.00  0.00     0.147 C 
HETATM   22  C   UNL     1      28.096  46.649  56.086  1.00  0.00     0.044 C 
BRANCH  21  23
HETATM   23  O   UNL     1      26.207  48.072  55.682  1.00  0.00    -0.391 OA
HETATM   24  H   UNL     1      26.362  49.030  55.616  1.00  0.00     0.210 HD
ENDBRANCH  21  23
ENDBRANCH  17  21
ENDBRANCH  12  15
ENDBRANCH   1  11
BRANCH   8  25
HETATM   25  C   UNL     1      21.062  51.272  48.946  1.00  0.00     0.409 C 
HETATM   26  F   UNL     1      21.171  51.519  50.269  1.00  0.00    -0.169 F 
HETATM   27  F   UNL     1      22.254  51.538  48.365  1.00  0.00    -0.169 F 
HETATM   28  F   UNL     1      20.183  52.191  48.463  1.00  0.00    -0.169 F 
ENDBRANCH   8  25
BRANCH   6  29
HETATM   29  C   UNL     1      18.320  47.911  47.531  1.00  0.00     0.075 A 
HETATM   30  O   UNL     1      17.148  48.581  47.321  1.00  0.00    -0.325 OA
HETATM   31  C   UNL     1      16.190  47.946  48.043  1.00  0.00     0.142 A 
HETATM   32  C   UNL     1      16.729  46.881  48.725  1.00  0.00     0.027 A 
HETATM   33  C   UNL     1      18.106  46.856  48.396  1.00  0.00     0.037 A 
ENDBRANCH   6  29
TORSDOF 6
ENDMDL
MODEL 4
REMARK VINA RESULT:      -8.7      6.954      9.776
REMARK  6 active torsions:
REMARK  status: ('A' for Active; 'I' for Inactive)
REMARK    1  A    between atoms: C_2  and  O_3 
REMARK    2  A    between atoms: C_2  and  C_4 
REMARK    3  A    between atoms: C_6  and  N_7 
REMARK       I    between atoms: N_7  and  C_8 
REMARK    4  A    between atoms: C_8  and  C_9 
REMARK    5  A    between atoms: C_14  and  C_15 
REMARK    6  A    between atoms: C_21  and  C_22 
ROOT
HETATM    1  C   UNL     1      27.800  41.517  50.999  1.00  0.00     0.148 A 
HETATM    2  N   UNL     1      28.779  40.592  50.883  1.00  0.00    -0.165 NA
HETATM    3  N   UNL     1      28.170  39.558  50.274  1.00  0.00    -0.240 N 
HETATM    4  C   UNL     1      26.869  39.814  49.930  1.00  0.00     0.123 A 
HETATM    5  N   UNL     1      26.111  38.896  49.293  1.00  0.00    -0.364 N 
HETATM    6  C   UNL     1      26.686  37.652  48.780  1.00  0.00     0.143 C 
HETATM    7  C   UNL     1      27.841  37.202  49.689  1.00  0.00     0.068 C 
HETATM    8  C   UNL     1      28.865  38.332  49.917  1.00  0.00     0.221 C 
HETATM    9  C   UNL     1      26.599  41.077  50.382  1.00  0.00     0.089 A 
HETATM   10  H   UNL     1      25.212  39.154  48.888  1.00  0.00     0.162 HD
ENDROOT
BRANCH   1  11
HETATM   11  C   UNL     1      28.007  42.795  51.708  1.00  0.00     0.276 C 
HETATM   12  N   UNL     1      28.528  42.605  52.973  1.00  0.00    -0.322 N 
HETATM   13  H   UNL     1      28.722  41.630  53.189  1.00  0.00     0.169 HD
HETATM   14  O   UNL     1      27.712  43.865  51.187  1.00  0.00    -0.266 OA
BRANCH  12  15
HETATM   15  C   UNL     1      28.775  43.565  53.969  1.00  0.00     0.035 A 
HETATM   16  C   UNL     1      29.852  43.502  54.859  1.00  0.00     0.039 A 
HETATM   17  C   UNL     1      30.059  44.508  55.820  1.00  0.00    -0.028 A 
HETATM   18  C   UNL     1      29.156  45.577  55.888  1.00  0.00     0.010 A 
HETATM   19  C   UNL     1      28.080  45.649  55.005  1.00  0.00     0.003 A 
HETATM   20  C   UNL     1      27.894  44.649  54.049  1.00  0.00     0.029 A 
BRANCH  17  21
HETATM   21  C   UNL     1      31.235  44.412  56.770  1.00  0.00     0.147 C 
HETATM   22  C   UNL     1      31.600  42.971  57.091  1.00  0.00     0.044 C 
BRANCH  21  23
HETATM   23  O   UNL     1      30.940  45.095  57.988  1.00  0.00    -0.391 OA
HETATM   24  H   UNL     1      31.710  45.654  58.188  1.00  0.00     0.210 HD
ENDBRANCH  21  23
ENDBRANCH  17  21
ENDBRANCH  12  15
ENDBRANCH   1  11
BRANCH   8  25
HETATM   25  C   UNL     1      29.865  37.910  50.971  1.00  0.00     0.409 C 
HETATM   26  F   UNL     1      29.661  38.502  52.168  1.00  0.00    -0.169 F 
HETATM   27  F   UNL     1      29.888  36.571  51.158  1.00  0.00    -0.169 F 
HETATM   28  F   UNL     1      31.119  38.268  50.583  1.00  0.00    -0.169 F 
ENDBRANCH   8  25
BRANCH   6  29
HETATM   29  C   UNL     1      27.106  37.697  47.344  1.00  0.00     0.075 A 
HETATM   30  O   UNL     1      26.456  38.606  46.558  1.00  0.00    -0.325 OA
HETATM   31  C   UNL     1      26.983  38.504  45.311  1.00  0.00     0.142 A 
HETATM   32  C   UNL     1      27.957  37.535  45.279  1.00  0.00     0.027 A 
HETATM   33  C   UNL     1      28.039  37.012  46.592  1.00  0.00     0.037 A 
ENDBRANCH   6  29
TORSDOF 6
ENDMDL
MODEL 5
REMARK VINA RESULT:      -8.6      3.766     10.071
REMARK  6 active torsions:
REMARK  status: ('A' for Active; 'I' for Inactive)
REMARK    1  A    between atoms: C_2  and  O_3 
REMARK    2  A    between atoms: C_2  and  C_4 
REMARK    3  A    between atoms: C_6  and  N_7 
REMARK       I    between atoms: N_7  and  C_8 
REMARK    4  A    between atoms: C_8  and  C_9 
REMARK    5  A    between atoms: C_14  and  C_15 
REMARK    6  A    between atoms: C_21  and  C_22 
ROOT
HETATM    1  C   UNL     1      22.513  49.376  49.155  1.00  0.00     0.148 A 
HETATM    2  N   UNL     1      21.384  48.632  49.139  1.00  0.00    -0.165 NA
HETATM    3  N   UNL     1      20.409  49.535  48.935  1.00  0.00    -0.240 N 
HETATM    4  C   UNL     1      20.874  50.810  48.744  1.00  0.00     0.123 A 
HETATM    5  N   UNL     1      20.036  51.841  48.505  1.00  0.00    -0.364 N 
HETATM    6  C   UNL     1      18.609  51.627  48.261  1.00  0.00     0.143 C 
HETATM    7  C   UNL     1      18.124  50.409  49.062  1.00  0.00     0.068 C 
HETATM    8  C   UNL     1      19.007  49.170  48.815  1.00  0.00     0.221 C 
HETATM    9  C   UNL     1      22.234  50.741  48.877  1.00  0.00     0.089 A 
HETATM   10  H   UNL     1      20.396  52.742  48.193  1.00  0.00     0.162 HD
ENDROOT
BRANCH   1  11
HETATM   11  C   UNL     1      23.835  48.792  49.453  1.00  0.00     0.276 C 
HETATM   12  N   UNL     1      23.728  47.563  50.075  1.00  0.00    -0.322 N 
HETATM   13  H   UNL     1      22.767  47.247  50.185  1.00  0.00     0.169 HD
HETATM   14  O   UNL     1      24.870  49.387  49.174  1.00  0.00    -0.266 OA
BRANCH  12  15
HETATM   15  C   UNL     1      24.755  46.751  50.587  1.00  0.00     0.035 A 
HETATM   16  C   UNL     1      25.187  46.789  51.916  1.00  0.00     0.039 A 
HETATM   17  C   UNL     1      26.203  45.932  52.374  1.00  0.00    -0.028 A 
HETATM   18  C   UNL     1      26.797  45.041  51.470  1.00  0.00     0.010 A 
HETATM   19  C   UNL     1      26.373  44.995  50.143  1.00  0.00     0.003 A 
HETATM   20  C   UNL     1      25.355  45.844  49.706  1.00  0.00     0.029 A 
BRANCH  17  21
HETATM   21  C   UNL     1      26.649  45.997  53.820  1.00  0.00     0.147 C 
HETATM   22  C   UNL     1      26.754  44.617  54.452  1.00  0.00     0.044 C 
BRANCH  21  23
HETATM   23  O   UNL     1      25.734  46.785  54.582  1.00  0.00    -0.391 OA
HETATM   24  H   UNL     1      25.270  46.173  55.179  1.00  0.00     0.210 HD
ENDBRANCH  21  23
ENDBRANCH  17  21
ENDBRANCH  12  15
ENDBRANCH   1  11
BRANCH   8  25
HETATM   25  C   UNL     1      18.617  48.065  49.771  1.00  0.00     0.409 C 
HETATM   26  F   UNL     1      18.939  48.332  51.055  1.00  0.00    -0.169 F 
HETATM   27  F   UNL     1      17.298  47.772  49.716  1.00  0.00    -0.169 F 
HETATM   28  F   UNL     1      19.280  46.922  49.447  1.00  0.00    -0.169 F 
ENDBRANCH   8  25
BRANCH   6  29
HETATM   29  C   UNL     1      18.226  51.521  46.818  1.00  0.00     0.075 A 
HETATM   30  O   UNL     1      17.182  52.304  46.416  1.00  0.00    -0.325 OA
HETATM   31  C   UNL     1      17.001  52.079  45.089  1.00  0.00     0.142 A 
HETATM   32  C   UNL     1      17.908  51.152  44.632  1.00  0.00     0.027 A 
HETATM   33  C   UNL     1      18.701  50.790  45.747  1.00  0.00     0.037 A 
ENDBRANCH   6  29
TORSDOF 6
ENDMDL
MODEL 6
REMARK VINA RESULT:      -8.5      7.191      9.403
REMARK  6 active torsions:
REMARK  status: ('A' for Active; 'I' for Inactive)
REMARK    1  A    between atoms: C_2  and  O_3 
REMARK    2  A    between atoms: C_2  and  C_4 
REMARK    3  A    between atoms: C_6  and  N_7 
REMARK       I    between atoms: N_7  and  C_8 
REMARK    4  A    between atoms: C_8  and  C_9 
REMARK    5  A    between atoms: C_14  and  C_15 
REMARK    6  A    between atoms: C_21  and  C_22 
ROOT
HETATM    1  C   UNL     1      27.482  41.487  51.545  1.00  0.00     0.148 A 
HETATM    2  N   UNL     1      28.494  40.665  51.187  1.00  0.00    -0.165 NA
HETATM    3  N   UNL     1      27.929  39.836  50.290  1.00  0.00    -0.240 N 
HETATM    4  C   UNL     1      26.624  40.143  50.006  1.00  0.00     0.123 A 
HETATM    5  N   UNL     1      25.907  39.428  49.112  1.00  0.00    -0.364 N 
HETATM    6  C   UNL     1      26.531  38.406  48.273  1.00  0.00     0.143 C 
HETATM    7  C   UNL     1      27.689  37.744  49.037  1.00  0.00     0.068 C 
HETATM    8  C   UNL     1      28.671  38.788  49.608  1.00  0.00     0.221 C 
HETATM    9  C   UNL     1      26.305  41.211  50.800  1.00  0.00     0.089 A 
HETATM   10  H   UNL     1      25.005  39.768  48.780  1.00  0.00     0.162 HD
ENDROOT
BRANCH   1  11
HETATM   11  C   UNL     1      27.636  42.508  52.599  1.00  0.00     0.276 C 
HETATM   12  N   UNL     1      28.924  42.546  53.097  1.00  0.00    -0.322 N 
HETATM   13  H   UNL     1      29.558  41.901  52.631  1.00  0.00     0.169 HD
HETATM   14  O   UNL     1      26.689  43.197  52.959  1.00  0.00    -0.266 OA
BRANCH  12  15
HETATM   15  C   UNL     1      29.428  43.317  54.159  1.00  0.00     0.035 A 
HETATM   16  C   UNL     1      28.818  44.481  54.633  1.00  0.00     0.039 A 
HETATM   17  C   UNL     1      29.358  45.196  55.716  1.00  0.00    -0.028 A 
HETATM   18  C   UNL     1      30.538  44.732  56.313  1.00  0.00     0.010 A 
HETATM   19  C   UNL     1      31.154  43.571  55.848  1.00  0.00     0.003 A 
HETATM   20  C   UNL     1      30.599  42.867  54.779  1.00  0.00     0.029 A 
BRANCH  17  21
HETATM   21  C   UNL     1      28.673  46.454  56.207  1.00  0.00     0.147 C 
HETATM   22  C   UNL     1      28.399  46.416  57.703  1.00  0.00     0.044 C 
BRANCH  21  23
HETATM   23  O   UNL     1      27.438  46.643  55.517  1.00  0.00    -0.391 OA
HETATM   24  H   UNL     1      27.443  47.556  55.181  1.00  0.00     0.210 HD
ENDBRANCH  21  23
ENDBRANCH  17  21
ENDBRANCH  12  15
ENDBRANCH   1  11
BRANCH   8  25
HETATM   25  C   UNL     1      29.670  38.106  50.515  1.00  0.00     0.409 C 
HETATM   26  F   UNL     1      30.936  38.155  50.046  1.00  0.00    -0.169 F 
HETATM   27  F   UNL     1      29.662  38.611  51.769  1.00  0.00    -0.169 F 
HETATM   28  F   UNL     1      29.362  36.786  50.627  1.00  0.00    -0.169 F 
ENDBRANCH   8  25
BRANCH   6  29
HETATM   29  C   UNL     1      26.967  38.879  46.922  1.00  0.00     0.075 A 
HETATM   30  O   UNL     1      26.404  40.045  46.485  1.00  0.00    -0.325 OA
HETATM   31  C   UNL     1      26.933  40.310  45.263  1.00  0.00     0.142 A 
HETATM   32  C   UNL     1      27.823  39.327  44.901  1.00  0.00     0.027 A 
HETATM   33  C   UNL     1      27.847  38.401  45.972  1.00  0.00     0.037 A 
ENDBRANCH   6  29
TORSDOF 6
ENDMDL
MODEL 7
REMARK VINA RESULT:      -8.4      3.114      4.097
REMARK  6 active torsions:
REMARK  status: ('A' for Active; 'I' for Inactive)
REMARK    1  A    between atoms: C_2  and  O_3 
REMARK    2  A    between atoms: C_2  and  C_4 
REMARK    3  A    between atoms: C_6  and  N_7 
REMARK       I    between atoms: N_7  and  C_8 
REMARK    4  A    between atoms: C_8  and  C_9 
REMARK    5  A    between atoms: C_14  and  C_15 
REMARK    6  A    between atoms: C_21  and  C_22 
ROOT
HETATM    1  C   UNL     1      24.532  47.647  49.646  1.00  0.00     0.148 A 
HETATM    2  N   UNL     1      23.895  46.480  49.896  1.00  0.00    -0.165 NA
HETATM    3  N   UNL     1      24.898  45.598  50.059  1.00  0.00    -0.240 N 
HETATM    4  C   UNL     1      26.143  46.167  50.001  1.00  0.00     0.123 A 
HETATM    5  N   UNL     1      27.265  45.434  50.164  1.00  0.00    -0.364 N 
HETATM    6  C   UNL     1      27.209  44.034  50.587  1.00  0.00     0.143 C 
HETATM    7  C   UNL     1      25.932  43.378  50.038  1.00  0.00     0.068 C 
HETATM    8  C   UNL     1      24.672  44.198  50.380  1.00  0.00     0.221 C 
HETATM    9  C   UNL     1      25.941  47.495  49.738  1.00  0.00     0.089 A 
HETATM   10  H   UNL     1      28.168  45.888  50.294  1.00  0.00     0.162 HD
ENDROOT
BRANCH   1  11
HETATM   11  C   UNL     1      23.802  48.883  49.306  1.00  0.00     0.276 C 
HETATM   12  N   UNL     1      22.433  48.711  49.378  1.00  0.00    -0.322 N 
HETATM   13  H   UNL     1      22.157  47.783  49.693  1.00  0.00     0.169 HD
HETATM   14  O   UNL     1      24.397  49.905  48.985  1.00  0.00    -0.266 OA
BRANCH  12  15
HETATM   15  C   UNL     1      21.418  49.624  49.043  1.00  0.00     0.035 A 
HETATM   16  C   UNL     1      20.757  49.633  47.811  1.00  0.00     0.039 A 
HETATM   17  C   UNL     1      19.732  50.557  47.544  1.00  0.00    -0.028 A 
HETATM   18  C   UNL     1      19.387  51.490  48.531  1.00  0.00     0.010 A 
HETATM   19  C   UNL     1      20.040  51.489  49.762  1.00  0.00     0.003 A 
HETATM   20  C   UNL     1      21.048  50.558  50.016  1.00  0.00     0.029 A 
BRANCH  17  21
HETATM   21  C   UNL     1      19.034  50.542  46.200  1.00  0.00     0.147 C 
HETATM   22  C   UNL     1      17.880  51.531  46.139  1.00  0.00     0.044 C 
BRANCH  21  23
HETATM   23  O   UNL     1      18.535  49.234  45.919  1.00  0.00    -0.391 OA
HETATM   24  H   UNL     1      19.307  48.642  45.889  1.00  0.00     0.210 HD
ENDBRANCH  21  23
ENDBRANCH  17  21
ENDBRANCH  12  15
ENDBRANCH   1  11
BRANCH   8  25
HETATM   25  C   UNL     1      23.477  43.626  49.652  1.00  0.00     0.409 C 
HETATM   26  F   UNL     1      22.297  43.949  50.226  1.00  0.00    -0.169 F 
HETATM   27  F   UNL     1      23.433  43.999  48.353  1.00  0.00    -0.169 F 
HETATM   28  F   UNL     1      23.540  42.267  49.663  1.00  0.00    -0.169 F 
ENDBRANCH   8  25
BRANCH   6  29
HETATM   29  C   UNL     1      27.347  43.815  52.061  1.00  0.00     0.075 A 
HETATM   30  O   UNL     1      27.597  42.532  52.455  1.00  0.00    -0.325 OA
HETATM   31  C   UNL     1      27.702  42.543  53.808  1.00  0.00     0.142 A 
HETATM   32  C   UNL     1      27.513  43.815  54.294  1.00  0.00     0.027 A 
HETATM   33  C   UNL     1      27.283  44.639  53.167  1.00  0.00     0.037 A 
ENDBRANCH   6  29
TORSDOF 6
ENDMDL
MODEL 8
REMARK VINA RESULT:      -8.3     13.419     15.886
REMARK  6 active torsions:
REMARK  status: ('A' for Active; 'I' for Inactive)
REMARK    1  A    between atoms: C_2  and  O_3 
REMARK    2  A    between atoms: C_2  and  C_4 
REMARK    3  A    between atoms: C_6  and  N_7 
REMARK       I    between atoms: N_7  and  C_8 
REMARK    4  A    between atoms: C_8  and  C_9 
REMARK    5  A    between atoms: C_14  and  C_15 
REMARK    6  A    between atoms: C_21  and  C_22 
ROOT
HETATM    1  C   UNL     1      33.853  51.554  42.422  1.00  0.00     0.148 A 
HETATM    2  N   UNL     1      32.540  51.874  42.428  1.00  0.00    -0.165 NA
HETATM    3  N   UNL     1      32.113  51.496  41.210  1.00  0.00    -0.240 N 
HETATM    4  C   UNL     1      33.079  50.881  40.457  1.00  0.00     0.123 A 
HETATM    5  N   UNL     1      32.821  50.418  39.215  1.00  0.00    -0.364 N 
HETATM    6  C   UNL     1      31.461  50.388  38.676  1.00  0.00     0.143 C 
HETATM    7  C   UNL     1      30.654  51.567  39.243  1.00  0.00     0.068 C 
HETATM    8  C   UNL     1      30.730  51.629  40.782  1.00  0.00     0.221 C 
HETATM    9  C   UNL     1      34.218  50.898  41.215  1.00  0.00     0.089 A 
HETATM   10  H   UNL     1      33.487  49.812  38.738  1.00  0.00     0.162 HD
ENDROOT
BRANCH   1  11
HETATM   11  C   UNL     1      34.749  51.889  43.546  1.00  0.00     0.276 C 
HETATM   12  N   UNL     1      36.079  51.859  43.173  1.00  0.00    -0.322 N 
HETATM   13  H   UNL     1      36.218  51.655  42.185  1.00  0.00     0.169 HD
HETATM   14  O   UNL     1      34.304  52.136  44.660  1.00  0.00    -0.266 OA
BRANCH  12  15
HETATM   15  C   UNL     1      37.217  52.032  43.979  1.00  0.00     0.035 A 
HETATM   16  C   UNL     1      37.357  53.062  44.914  1.00  0.00     0.039 A 
HETATM   17  C   UNL     1      38.512  53.168  45.710  1.00  0.00    -0.028 A 
HETATM   18  C   UNL     1      39.539  52.230  45.542  1.00  0.00     0.010 A 
HETATM   19  C   UNL     1      39.408  51.199  44.613  1.00  0.00     0.003 A 
HETATM   20  C   UNL     1      38.251  51.101  43.838  1.00  0.00     0.029 A 
BRANCH  17  21
HETATM   21  C   UNL     1      38.634  54.295  46.714  1.00  0.00     0.147 C 
HETATM   22  C   UNL     1      38.468  53.810  48.147  1.00  0.00     0.044 C 
BRANCH  21  23
HETATM   23  O   UNL     1      37.654  55.299  46.450  1.00  0.00    -0.391 OA
HETATM   24  H   UNL     1      37.475  55.742  47.297  1.00  0.00     0.210 HD
ENDBRANCH  21  23
ENDBRANCH  17  21
ENDBRANCH  12  15
ENDBRANCH   1  11
BRANCH   8  25
HETATM   25  C   UNL     1      30.095  52.910  41.274  1.00  0.00     0.409 C 
HETATM   26  F   UNL     1      29.716  52.855  42.569  1.00  0.00    -0.169 F 
HETATM   27  F   UNL     1      30.901  53.984  41.113  1.00  0.00    -0.169 F 
HETATM   28  F   UNL     1      28.964  53.165  40.562  1.00  0.00    -0.169 F 
ENDBRANCH   8  25
BRANCH   6  29
HETATM   29  C   UNL     1      30.738  49.091  38.862  1.00  0.00     0.075 A 
HETATM   30  O   UNL     1      29.483  49.023  38.328  1.00  0.00    -0.325 OA
HETATM   31  C   UNL     1      29.006  47.779  38.585  1.00  0.00     0.142 A 
HETATM   32  C   UNL     1      29.933  47.045  39.287  1.00  0.00     0.027 A 
HETATM   33  C   UNL     1      31.054  47.891  39.468  1.00  0.00     0.037 A 
ENDBRANCH   6  29
TORSDOF 6
ENDMDL
MODEL 9
REMARK VINA RESULT:      -8.3      4.874     11.062
REMARK  6 active torsions:
REMARK  status: ('A' for Active; 'I' for Inactive)
REMARK    1  A    between atoms: C_2  and  O_3 
REMARK    2  A    between atoms: C_2  and  C_4 
REMARK    3  A    between atoms: C_6  and  N_7 
REMARK       I    between atoms: N_7  and  C_8 
REMARK    4  A    between atoms: C_8  and  C_9 
REMARK    5  A    between atoms: C_14  and  C_15 
REMARK    6  A    between atoms: C_21  and  C_22 
ROOT
HETATM    1  C   UNL     1      20.586  50.752  48.943  1.00  0.00     0.148 A 
HETATM    2  N   UNL     1      19.814  49.720  48.534  1.00  0.00    -0.165 NA
HETATM    3  N   UNL     1      18.644  50.304  48.216  1.00  0.00    -0.240 N 
HETATM    4  C   UNL     1      18.663  51.669  48.333  1.00  0.00     0.123 A 
HETATM    5  N   UNL     1      17.582  52.421  48.036  1.00  0.00    -0.364 N 
HETATM    6  C   UNL     1      16.396  51.840  47.407  1.00  0.00     0.143 C 
HETATM    7  C   UNL     1      16.220  50.387  47.877  1.00  0.00     0.068 C 
HETATM    8  C   UNL     1      17.509  49.563  47.691  1.00  0.00     0.221 C 
HETATM    9  C   UNL     1      19.909  51.992  48.799  1.00  0.00     0.089 A 
HETATM   10  H   UNL     1      17.659  53.434  47.958  1.00  0.00     0.162 HD
ENDROOT
BRANCH   1  11
HETATM   11  C   UNL     1      21.944  50.550  49.484  1.00  0.00     0.276 C 
HETATM   12  N   UNL     1      22.716  49.755  48.658  1.00  0.00    -0.322 N 
HETATM   13  H   UNL     1      22.240  49.479  47.802  1.00  0.00     0.169 HD
HETATM   14  O   UNL     1      22.281  51.040  50.555  1.00  0.00    -0.266 OA
BRANCH  12  15
HETATM   15  C   UNL     1      24.018  49.273  48.877  1.00  0.00     0.035 A 
HETATM   16  C   UNL     1      24.304  48.094  49.573  1.00  0.00     0.039 A 
HETATM   17  C   UNL     1      25.628  47.651  49.737  1.00  0.00    -0.028 A 
HETATM   18  C   UNL     1      26.671  48.420  49.204  1.00  0.00     0.010 A 
HETATM   19  C   UNL     1      26.396  49.596  48.509  1.00  0.00     0.003 A 
HETATM   20  C   UNL     1      25.076  50.017  48.344  1.00  0.00     0.029 A 
BRANCH  17  21
HETATM   21  C   UNL     1      25.905  46.370  50.496  1.00  0.00     0.147 C 
HETATM   22  C   UNL     1      26.133  46.617  51.980  1.00  0.00     0.044 C 
BRANCH  21  23
HETATM   23  O   UNL     1      27.055  45.718  49.956  1.00  0.00    -0.391 OA
HETATM   24  H   UNL     1      26.753  44.858  49.615  1.00  0.00     0.210 HD
ENDBRANCH  21  23
ENDBRANCH  17  21
ENDBRANCH  12  15
ENDBRANCH   1  11
BRANCH   8  25
HETATM   25  C   UNL     1      17.351  48.210  48.349  1.00  0.00     0.409 C 
HETATM   26  F   UNL     1      18.104  47.246  47.776  1.00  0.00    -0.169 F 
HETATM   27  F   UNL     1      17.633  48.240  49.671  1.00  0.00    -0.169 F 
HETATM   28  F   UNL     1      16.061  47.794  48.238  1.00  0.00    -0.169 F 
ENDBRANCH   8  25
BRANCH   6  29
HETATM   29  C   UNL     1      16.362  51.939  45.914  1.00  0.00     0.075 A 
HETATM   30  O   UNL     1      15.270  51.392  45.302  1.00  0.00    -0.325 OA
HETATM   31  C   UNL     1      15.416  51.596  43.968  1.00  0.00     0.142 A 
HETATM   32  C   UNL     1      16.593  52.258  43.709  1.00  0.00     0.027 A 
HETATM   33  C   UNL     1      17.206  52.482  44.966  1.00  0.00     0.037 A 
ENDBRANCH   6  29
TORSDOF 6
ENDMDL
MODEL 10
REMARK VINA RESULT:      -8.0      3.410      4.196
REMARK  6 active torsions:
REMARK  status: ('A' for Active; 'I' for Inactive)
REMARK    1  A    between atoms: C_2  and  O_3 
REMARK    2  A    between atoms: C_2  and  C_4 
REMARK    3  A    between atoms: C_6  and  N_7 
REMARK       I    between atoms: N_7  and  C_8 
REMARK    4  A    between atoms: C_8  and  C_9 
REMARK    5  A    between atoms: C_14  and  C_15 
REMARK    6  A    between atoms: C_21  and  C_22 
ROOT
HETATM    1  C   UNL     1      23.843  45.790  49.236  1.00  0.00     0.148 A 
HETATM    2  N   UNL     1      23.710  44.446  49.299  1.00  0.00    -0.165 NA
HETATM    3  N   UNL     1      24.947  44.018  49.610  1.00  0.00    -0.240 N 
HETATM    4  C   UNL     1      25.841  45.034  49.823  1.00  0.00     0.123 A 
HETATM    5  N   UNL     1      27.124  44.788  50.165  1.00  0.00    -0.364 N 
HETATM    6  C   UNL     1      27.582  43.439  50.499  1.00  0.00     0.143 C 
HETATM    7  C   UNL     1      26.790  42.406  49.681  1.00  0.00     0.068 C 
HETATM    8  C   UNL     1      25.268  42.614  49.812  1.00  0.00     0.221 C 
HETATM    9  C   UNL     1      25.156  46.196  49.592  1.00  0.00     0.089 A 
HETATM   10  H   UNL     1      27.729  45.541  50.490  1.00  0.00     0.162 HD
ENDROOT
BRANCH   1  11
HETATM   11  C   UNL     1      22.733  46.670  48.821  1.00  0.00     0.276 C 
HETATM   12  N   UNL     1      22.968  47.990  49.155  1.00  0.00    -0.322 N 
HETATM   13  H   UNL     1      23.876  48.143  49.588  1.00  0.00     0.169 HD
HETATM   14  O   UNL     1      21.738  46.219  48.267  1.00  0.00    -0.266 OA
BRANCH  12  15
HETATM   15  C   UNL     1      22.113  49.095  49.005  1.00  0.00     0.035 A 
HETATM   16  C   UNL     1      20.793  49.125  49.464  1.00  0.00     0.039 A 
HETATM   17  C   UNL     1      19.994  50.271  49.306  1.00  0.00    -0.028 A 
HETATM   18  C   UNL     1      20.536  51.391  48.660  1.00  0.00     0.010 A 
HETATM   19  C   UNL     1      21.851  51.371  48.199  1.00  0.00     0.003 A 
HETATM   20  C   UNL     1      22.635  50.230  48.374  1.00  0.00     0.029 A 
BRANCH  17  21
HETATM   21  C   UNL     1      18.568  50.272  49.815  1.00  0.00     0.147 C 
HETATM   22  C   UNL     1      17.981  51.674  49.881  1.00  0.00     0.044 C 
BRANCH  21  23
HETATM   23  O   UNL     1      18.508  49.686  51.115  1.00  0.00    -0.391 OA
HETATM   24  H   UNL     1      19.043  48.875  51.080  1.00  0.00     0.210 HD
ENDBRANCH  21  23
ENDBRANCH  17  21
ENDBRANCH  12  15
ENDBRANCH   1  11
BRANCH   8  25
HETATM   25  C   UNL     1      24.543  41.712  48.838  1.00  0.00     0.409 C 
HETATM   26  F   UNL     1      23.239  41.537  49.142  1.00  0.00    -0.169 F 
HETATM   27  F   UNL     1      24.626  42.152  47.562  1.00  0.00    -0.169 F 
HETATM   28  F   UNL     1      25.103  40.473  48.857  1.00  0.00    -0.169 F 
ENDBRANCH   8  25
BRANCH   6  29
HETATM   29  C   UNL     1      27.563  43.111  51.959  1.00  0.00     0.075 A 
HETATM   30  O   UNL     1      28.018  41.869  52.300  1.00  0.00    -0.325 OA
HETATM   31  C   UNL     1      27.937  41.771  53.651  1.00  0.00     0.142 A 
HETATM   32  C   UNL     1      27.425  42.929  54.187  1.00  0.00     0.027 A 
HETATM   33  C   UNL     1      27.183  43.797  53.095  1.00  0.00     0.037 A 
ENDBRANCH   6  29
TORSDOF 6
ENDMDL
