MODEL 1
REMARK VINA RESULT:      -9.6      0.000      0.000
REMARK  6 active torsions:
REMARK  status: ('A' for Active; 'I' for Inactive)
REMARK    1  A    between atoms: C_2  and  C_3 
REMARK    2  A    between atoms: C_5  and  S_6 
REMARK    3  A    between atoms: S_6  and  C_7 
REMARK    4  A    between atoms: C_7  and  C_8 
REMARK       I    between atoms: C_8  and  N_9 
REMARK    5  A    between atoms: N_9  and  C_10 
REMARK    6  A    between atoms: C_13  and  C_14 
ROOT
HETATM    1  C   UNL     1      26.795  45.291  50.231  1.00  0.00     0.233 C 
HETATM    2  N   UNL     1      26.650  46.569  50.713  1.00  0.00    -0.305 N 
HETATM    3  O   UNL     1      26.340  44.868  49.168  1.00  0.00    -0.272 OA
HETATM    4  H   UNL     1      27.048  46.807  51.611  1.00  0.00     0.171 HD
ENDROOT
BRANCH   1   5
HETATM    5  C   UNL     1      27.615  44.351  51.108  1.00  0.00     0.184 C 
BRANCH   5   6
HETATM    6  S   UNL     1      26.735  43.757  52.597  1.00  0.00    -0.100 SA
BRANCH   6   7
HETATM    7  C   UNL     1      27.252  44.969  53.782  1.00  0.00     0.109 A 
HETATM    8  N   UNL     1      26.520  46.098  53.893  1.00  0.00    -0.226 NA
HETATM    9  C   UNL     1      26.890  47.036  54.779  1.00  0.00     0.128 A 
HETATM   10  N   UNL     1      27.952  46.967  55.582  1.00  0.00    -0.225 NA
HETATM   11  C   UNL     1      28.654  45.831  55.448  1.00  0.00     0.113 A 
HETATM   12  C   UNL     1      28.390  44.776  54.588  1.00  0.00     0.042 A 
HETATM   13  S   UNL     1      30.032  45.591  56.408  1.00  0.00    -0.074 SA
HETATM   14  C   UNL     1      29.390  43.723  54.753  1.00  0.00    -0.033 A 
HETATM   15  C   UNL     1      30.335  44.063  55.715  1.00  0.00    -0.012 A 
HETATM   16  C   UNL     1      29.417  42.431  53.994  1.00  0.00     0.050 C 
HETATM   17  C   UNL     1      31.518  43.275  56.181  1.00  0.00     0.057 C 
BRANCH   9  18
HETATM   18  C   UNL     1      26.056  48.286  54.842  1.00  0.00     0.076 C 
HETATM   19  C   UNL     1      26.178  48.960  56.199  1.00  0.00     0.013 C 
ENDBRANCH   9  18
ENDBRANCH   6   7
ENDBRANCH   5   6
ENDBRANCH   1   5
BRANCH   2  20
HETATM   20  C   UNL     1      25.968  47.547  50.050  1.00  0.00     0.173 A 
HETATM   21  S   UNL     1      26.961  48.608  49.160  1.00  0.00    -0.061 SA
HETATM   22  C   UNL     1      25.558  49.465  48.659  1.00  0.00     0.085 A 
HETATM   23  C   UNL     1      24.426  48.877  49.196  1.00  0.00     0.076 A 
HETATM   24  N   UNL     1      24.684  47.777  50.002  1.00  0.00    -0.223 NA
BRANCH  23  25
HETATM   25  C   UNL     1      23.053  49.336  48.983  1.00  0.00    -0.007 A 
HETATM   26  C   UNL     1      21.955  48.460  48.987  1.00  0.00     0.017 A 
HETATM   27  C   UNL     1      20.657  48.944  48.784  1.00  0.00     0.043 A 
HETATM   28  C   UNL     1      20.453  50.303  48.578  1.00  0.00     0.116 A 
HETATM   29  F   UNL     1      19.210  50.761  48.385  1.00  0.00    -0.206 F 
HETATM   30  C   UNL     1      21.519  51.190  48.574  1.00  0.00     0.043 A 
HETATM   31  C   UNL     1      22.815  50.707  48.778  1.00  0.00     0.017 A 
ENDBRANCH  23  25
ENDBRANCH   2  20
TORSDOF 6
ENDMDL
MODEL 2
REMARK VINA RESULT:      -9.6      1.340      1.759
REMARK  6 active torsions:
REMARK  status: ('A' for Active; 'I' for Inactive)
REMARK    1  A    between atoms: C_2  and  C_3 
REMARK    2  A    between atoms: C_5  and  S_6 
REMARK    3  A    between atoms: S_6  and  C_7 
REMARK    4  A    between atoms: C_7  and  C_8 
REMARK       I    between atoms: C_8  and  N_9 
REMARK    5  A    between atoms: N_9  and  C_10 
REMARK    6  A    between atoms: C_13  and  C_14 
ROOT
HETATM    1  C   UNL     1      26.777  45.149  50.212  1.00  0.00     0.233 C 
HETATM    2  N   UNL     1      25.439  45.020  50.492  1.00  0.00    -0.305 N 
HETATM    3  O   UNL     1      27.261  45.839  49.314  1.00  0.00    -0.272 OA
HETATM    4  H   UNL     1      25.147  44.408  51.241  1.00  0.00     0.171 HD
ENDROOT
BRANCH   1   5
HETATM    5  C   UNL     1      27.714  44.370  51.129  1.00  0.00     0.184 C 
BRANCH   5   6
HETATM    6  S   UNL     1      26.908  43.698  52.627  1.00  0.00    -0.100 SA
BRANCH   6   7
HETATM    7  C   UNL     1      27.361  44.932  53.817  1.00  0.00     0.109 A 
HETATM    8  N   UNL     1      26.594  46.040  53.901  1.00  0.00    -0.226 NA
HETATM    9  C   UNL     1      26.916  46.994  54.789  1.00  0.00     0.128 A 
HETATM   10  N   UNL     1      27.958  46.961  55.619  1.00  0.00    -0.225 NA
HETATM   11  C   UNL     1      28.694  45.844  55.512  1.00  0.00     0.113 A 
HETATM   12  C   UNL     1      28.482  44.776  54.653  1.00  0.00     0.042 A 
HETATM   13  S   UNL     1      30.054  45.649  56.509  1.00  0.00    -0.074 SA
HETATM   14  C   UNL     1      29.507  43.753  54.851  1.00  0.00    -0.033 A 
HETATM   15  C   UNL     1      30.417  44.125  55.835  1.00  0.00    -0.012 A 
HETATM   16  C   UNL     1      29.590  42.457  54.103  1.00  0.00     0.050 C 
HETATM   17  C   UNL     1      31.609  43.374  56.337  1.00  0.00     0.057 C 
BRANCH   9  18
HETATM   18  C   UNL     1      26.046  48.221  54.822  1.00  0.00     0.076 C 
HETATM   19  C   UNL     1      26.218  48.982  56.126  1.00  0.00     0.013 C 
ENDBRANCH   9  18
ENDBRANCH   6   7
ENDBRANCH   5   6
ENDBRANCH   1   5
BRANCH   2  20
HETATM   20  C   UNL     1      24.462  45.662  49.789  1.00  0.00     0.173 A 
HETATM   21  S   UNL     1      23.625  44.665  48.688  1.00  0.00    -0.061 SA
HETATM   22  C   UNL     1      22.667  46.015  48.229  1.00  0.00     0.085 A 
HETATM   23  C   UNL     1      23.042  47.133  48.953  1.00  0.00     0.076 A 
HETATM   24  N   UNL     1      24.085  46.910  49.842  1.00  0.00    -0.223 NA
BRANCH  23  25
HETATM   25  C   UNL     1      22.443  48.462  48.828  1.00  0.00    -0.007 A 
HETATM   26  C   UNL     1      23.213  49.629  48.699  1.00  0.00     0.017 A 
HETATM   27  C   UNL     1      22.597  50.879  48.577  1.00  0.00     0.043 A 
HETATM   28  C   UNL     1      21.210  50.967  48.582  1.00  0.00     0.116 A 
HETATM   29  F   UNL     1      20.625  52.165  48.465  1.00  0.00    -0.206 F 
HETATM   30  C   UNL     1      20.426  49.830  48.704  1.00  0.00     0.043 A 
HETATM   31  C   UNL     1      21.041  48.580  48.824  1.00  0.00     0.017 A 
ENDBRANCH  23  25
ENDBRANCH   2  20
TORSDOF 6
ENDMDL
MODEL 3
REMARK VINA RESULT:      -9.5      3.835      9.480
REMARK  6 active torsions:
REMARK  status: ('A' for Active; 'I' for Inactive)
REMARK    1  A    between atoms: C_2  and  C_3 
REMARK    2  A    between atoms: C_5  and  S_6 
REMARK    3  A    between atoms: S_6  and  C_7 
REMARK    4  A    between atoms: C_7  and  C_8 
REMARK       I    between atoms: C_8  and  N_9 
REMARK    5  A    between atoms: N_9  and  C_10 
REMARK    6  A    between atoms: C_13  and  C_14 
ROOT
HETATM    1  C   UNL     1      24.989  44.383  51.160  1.00  0.00     0.233 C 
HETATM    2  N   UNL     1      26.142  45.113  51.314  1.00  0.00    -0.305 N 
HETATM    3  O   UNL     1      24.335  43.872  52.069  1.00  0.00    -0.272 OA
HETATM    4  H   UNL     1      26.614  45.472  50.496  1.00  0.00     0.171 HD
ENDROOT
BRANCH   1   5
HETATM    5  C   UNL     1      24.498  44.234  49.723  1.00  0.00     0.184 C 
BRANCH   5   6
HETATM    6  S   UNL     1      22.957  45.149  49.360  1.00  0.00    -0.100 SA
BRANCH   6   7
HETATM    7  C   UNL     1      23.587  46.800  49.226  1.00  0.00     0.109 A 
HETATM    8  N   UNL     1      24.886  47.008  49.528  1.00  0.00    -0.226 NA
HETATM    9  C   UNL     1      25.390  48.249  49.440  1.00  0.00     0.128 A 
HETATM   10  N   UNL     1      24.710  49.338  49.081  1.00  0.00    -0.225 NA
HETATM   11  C   UNL     1      23.425  49.094  48.784  1.00  0.00     0.113 A 
HETATM   12  C   UNL     1      22.770  47.872  48.820  1.00  0.00     0.042 A 
HETATM   13  S   UNL     1      22.428  50.380  48.302  1.00  0.00    -0.074 SA
HETATM   14  C   UNL     1      21.373  48.032  48.419  1.00  0.00    -0.033 A 
HETATM   15  C   UNL     1      21.076  49.356  48.118  1.00  0.00    -0.012 A 
HETATM   16  C   UNL     1      20.368  46.924  48.333  1.00  0.00     0.050 C 
HETATM   17  C   UNL     1      19.774  49.944  47.675  1.00  0.00     0.057 C 
BRANCH   9  18
HETATM   18  C   UNL     1      26.835  48.429  49.816  1.00  0.00     0.076 C 
HETATM   19  C   UNL     1      27.520  49.429  48.899  1.00  0.00     0.013 C 
ENDBRANCH   9  18
ENDBRANCH   6   7
ENDBRANCH   5   6
ENDBRANCH   1   5
BRANCH   2  20
HETATM   20  C   UNL     1      26.712  45.366  52.528  1.00  0.00     0.173 A 
HETATM   21  S   UNL     1      25.951  46.610  53.409  1.00  0.00    -0.061 SA
HETATM   22  C   UNL     1      27.091  46.381  54.674  1.00  0.00     0.085 A 
HETATM   23  C   UNL     1      27.969  45.364  54.343  1.00  0.00     0.076 A 
HETATM   24  N   UNL     1      27.738  44.796  53.098  1.00  0.00    -0.223 NA
BRANCH  23  25
HETATM   25  C   UNL     1      29.071  44.892  55.182  1.00  0.00    -0.007 A 
HETATM   26  C   UNL     1      29.521  45.602  56.308  1.00  0.00     0.017 A 
HETATM   27  C   UNL     1      30.575  45.110  57.085  1.00  0.00     0.043 A 
HETATM   28  C   UNL     1      31.182  43.907  56.743  1.00  0.00     0.116 A 
HETATM   29  F   UNL     1      32.189  43.440  57.490  1.00  0.00    -0.206 F 
HETATM   30  C   UNL     1      30.754  43.184  55.639  1.00  0.00     0.043 A 
HETATM   31  C   UNL     1      29.700  43.675  54.863  1.00  0.00     0.017 A 
ENDBRANCH  23  25
ENDBRANCH   2  20
TORSDOF 6
ENDMDL
MODEL 4
REMARK VINA RESULT:      -9.2      4.167     10.415
REMARK  6 active torsions:
REMARK  status: ('A' for Active; 'I' for Inactive)
REMARK    1  A    between atoms: C_2  and  C_3 
REMARK    2  A    between atoms: C_5  and  S_6 
REMARK    3  A    between atoms: S_6  and  C_7 
REMARK    4  A    between atoms: C_7  and  C_8 
REMARK       I    between atoms: C_8  and  N_9 
REMARK    5  A    between atoms: N_9  and  C_10 
REMARK    6  A    between atoms: C_13  and  C_14 
ROOT
HETATM    1  C   UNL     1      25.543  47.109  51.320  1.00  0.00     0.233 C 
HETATM    2  N   UNL     1      25.402  46.392  52.483  1.00  0.00    -0.305 N 
HETATM    3  O   UNL     1      26.487  47.847  51.040  1.00  0.00    -0.272 OA
HETATM    4  H   UNL     1      24.574  45.831  52.622  1.00  0.00     0.171 HD
ENDROOT
BRANCH   1   5
HETATM    5  C   UNL     1      24.419  46.931  50.304  1.00  0.00     0.184 C 
BRANCH   5   6
HETATM    6  S   UNL     1      24.184  48.361  49.189  1.00  0.00    -0.100 SA
BRANCH   6   7
HETATM    7  C   UNL     1      22.627  47.943  48.453  1.00  0.00     0.109 A 
HETATM    8  N   UNL     1      22.451  46.676  48.023  1.00  0.00    -0.226 NA
HETATM    9  C   UNL     1      21.283  46.332  47.457  1.00  0.00     0.128 A 
HETATM   10  N   UNL     1      20.246  47.146  47.262  1.00  0.00    -0.225 NA
HETATM   11  C   UNL     1      20.454  48.395  47.705  1.00  0.00     0.113 A 
HETATM   12  C   UNL     1      21.597  48.893  48.314  1.00  0.00     0.042 A 
HETATM   13  S   UNL     1      19.223  49.551  47.534  1.00  0.00    -0.074 SA
HETATM   14  C   UNL     1      21.419  50.304  48.652  1.00  0.00    -0.033 A 
HETATM   15  C   UNL     1      20.166  50.767  48.270  1.00  0.00    -0.012 A 
HETATM   16  C   UNL     1      22.444  51.164  49.328  1.00  0.00     0.050 C 
HETATM   17  C   UNL     1      19.589  52.138  48.428  1.00  0.00     0.057 C 
BRANCH   9  18
HETATM   18  C   UNL     1      21.150  44.915  46.969  1.00  0.00     0.076 C 
HETATM   19  C   UNL     1      22.018  43.969  47.783  1.00  0.00     0.013 C 
ENDBRANCH   9  18
ENDBRANCH   6   7
ENDBRANCH   5   6
ENDBRANCH   1   5
BRANCH   2  20
HETATM   20  C   UNL     1      26.322  46.414  53.491  1.00  0.00     0.173 A 
HETATM   21  S   UNL     1      26.198  47.768  54.518  1.00  0.00    -0.061 SA
HETATM   22  C   UNL     1      27.525  47.169  55.431  1.00  0.00     0.085 A 
HETATM   23  C   UNL     1      27.966  45.971  54.897  1.00  0.00     0.076 A 
HETATM   24  N   UNL     1      27.264  45.556  53.773  1.00  0.00    -0.223 NA
BRANCH  23  25
HETATM   25  C   UNL     1      29.077  45.172  55.415  1.00  0.00    -0.007 A 
HETATM   26  C   UNL     1      29.543  44.016  54.768  1.00  0.00     0.017 A 
HETATM   27  C   UNL     1      30.613  43.285  55.297  1.00  0.00     0.043 A 
HETATM   28  C   UNL     1      31.221  43.707  56.473  1.00  0.00     0.116 A 
HETATM   29  F   UNL     1      32.244  43.006  56.975  1.00  0.00    -0.206 F 
HETATM   30  C   UNL     1      30.783  44.848  57.130  1.00  0.00     0.043 A 
HETATM   31  C   UNL     1      29.715  45.579  56.601  1.00  0.00     0.017 A 
ENDBRANCH  23  25
ENDBRANCH   2  20
TORSDOF 6
ENDMDL
MODEL 5
REMARK VINA RESULT:      -9.2      2.438      4.128
REMARK  6 active torsions:
REMARK  status: ('A' for Active; 'I' for Inactive)
REMARK    1  A    between atoms: C_2  and  C_3 
REMARK    2  A    between atoms: C_5  and  S_6 
REMARK    3  A    between atoms: S_6  and  C_7 
REMARK    4  A    between atoms: C_7  and  C_8 
REMARK       I    between atoms: C_8  and  N_9 
REMARK    5  A    between atoms: N_9  and  C_10 
REMARK    6  A    between atoms: C_13  and  C_14 
ROOT
HETATM    1  C   UNL     1      25.068  47.010  50.578  1.00  0.00     0.233 C 
HETATM    2  N   UNL     1      24.471  47.312  49.379  1.00  0.00    -0.305 N 
HETATM    3  O   UNL     1      25.045  47.710  51.590  1.00  0.00    -0.272 OA
HETATM    4  H   UNL     1      24.569  46.675  48.602  1.00  0.00     0.171 HD
ENDROOT
BRANCH   1   5
HETATM    5  C   UNL     1      25.796  45.670  50.624  1.00  0.00     0.184 C 
BRANCH   5   6
HETATM    6  S   UNL     1      25.150  44.509  51.881  1.00  0.00    -0.100 SA
BRANCH   6   7
HETATM    7  C   UNL     1      26.571  43.481  52.131  1.00  0.00     0.109 A 
HETATM    8  N   UNL     1      26.687  42.368  51.375  1.00  0.00    -0.226 NA
HETATM    9  C   UNL     1      27.751  41.567  51.546  1.00  0.00     0.128 A 
HETATM   10  N   UNL     1      28.735  41.762  52.424  1.00  0.00    -0.225 NA
HETATM   11  C   UNL     1      28.591  42.879  53.153  1.00  0.00     0.113 A 
HETATM   12  C   UNL     1      27.556  43.801  53.083  1.00  0.00     0.042 A 
HETATM   13  S   UNL     1      29.767  43.271  54.311  1.00  0.00    -0.074 SA
HETATM   14  C   UNL     1      27.774  44.881  54.044  1.00  0.00    -0.033 A 
HETATM   15  C   UNL     1      28.945  44.693  54.769  1.00  0.00    -0.012 A 
HETATM   16  C   UNL     1      26.865  46.056  54.241  1.00  0.00     0.050 C 
HETATM   17  C   UNL     1      29.528  45.556  55.843  1.00  0.00     0.057 C 
BRANCH   9  18
HETATM   18  C   UNL     1      27.816  40.325  50.700  1.00  0.00     0.076 C 
HETATM   19  C   UNL     1      26.480  40.043  50.033  1.00  0.00     0.013 C 
ENDBRANCH   9  18
ENDBRANCH   6   7
ENDBRANCH   5   6
ENDBRANCH   1   5
BRANCH   2  20
HETATM   20  C   UNL     1      23.759  48.457  49.165  1.00  0.00     0.173 A 
HETATM   21  S   UNL     1      24.656  49.708  48.434  1.00  0.00    -0.061 SA
HETATM   22  C   UNL     1      23.257  50.706  48.480  1.00  0.00     0.085 A 
HETATM   23  C   UNL     1      22.198  50.014  49.041  1.00  0.00     0.076 A 
HETATM   24  N   UNL     1      22.510  48.720  49.438  1.00  0.00    -0.223 NA
BRANCH  23  25
HETATM   25  C   UNL     1      20.850  50.547  49.240  1.00  0.00    -0.007 A 
HETATM   26  C   UNL     1      20.398  51.714  48.603  1.00  0.00     0.017 A 
HETATM   27  C   UNL     1      19.097  52.185  48.818  1.00  0.00     0.043 A 
HETATM   28  C   UNL     1      18.245  51.490  49.666  1.00  0.00     0.116 A 
HETATM   29  F   UNL     1      17.002  51.943  49.868  1.00  0.00    -0.206 F 
HETATM   30  C   UNL     1      18.664  50.331  50.304  1.00  0.00     0.043 A 
HETATM   31  C   UNL     1      19.963  49.861  50.089  1.00  0.00     0.017 A 
ENDBRANCH  23  25
ENDBRANCH   2  20
TORSDOF 6
ENDMDL
MODEL 6
REMARK VINA RESULT:      -9.2      3.818      9.286
REMARK  6 active torsions:
REMARK  status: ('A' for Active; 'I' for Inactive)
REMARK    1  A    between atoms: C_2  and  C_3 
REMARK    2  A    between atoms: C_5  and  S_6 
REMARK    3  A    between atoms: S_6  and  C_7 
REMARK    4  A    between atoms: C_7  and  C_8 
REMARK       I    between atoms: C_8  and  N_9 
REMARK    5  A    between atoms: N_9  and  C_10 
REMARK    6  A    between atoms: C_13  and  C_14 
ROOT
HETATM    1  C   UNL     1      25.085  43.531  50.364  1.00  0.00     0.233 C 
HETATM    2  N   UNL     1      26.452  43.419  50.298  1.00  0.00    -0.305 N 
HETATM    3  O   UNL     1      24.399  43.386  51.376  1.00  0.00    -0.272 OA
HETATM    4  H   UNL     1      26.917  43.537  49.409  1.00  0.00     0.171 HD
ENDROOT
BRANCH   1   5
HETATM    5  C   UNL     1      24.396  43.887  49.050  1.00  0.00     0.184 C 
BRANCH   5   6
HETATM    6  S   UNL     1      22.890  44.907  49.247  1.00  0.00    -0.100 SA
BRANCH   6   7
HETATM    7  C   UNL     1      23.595  46.532  49.206  1.00  0.00     0.109 A 
HETATM    8  N   UNL     1      24.883  46.673  49.585  1.00  0.00    -0.226 NA
HETATM    9  C   UNL     1      25.443  47.893  49.569  1.00  0.00     0.128 A 
HETATM   10  N   UNL     1      24.831  49.022  49.212  1.00  0.00    -0.225 NA
HETATM   11  C   UNL     1      23.555  48.845  48.836  1.00  0.00     0.113 A 
HETATM   12  C   UNL     1      22.848  47.651  48.793  1.00  0.00     0.042 A 
HETATM   13  S   UNL     1      22.641  50.188  48.346  1.00  0.00    -0.074 SA
HETATM   14  C   UNL     1      21.484  47.885  48.322  1.00  0.00    -0.033 A 
HETATM   15  C   UNL     1      21.261  49.231  48.053  1.00  0.00    -0.012 A 
HETATM   16  C   UNL     1      20.440  46.826  48.143  1.00  0.00     0.050 C 
HETATM   17  C   UNL     1      20.011  49.889  47.560  1.00  0.00     0.057 C 
BRANCH   9  18
HETATM   18  C   UNL     1      26.871  47.998  50.029  1.00  0.00     0.076 C 
HETATM   19  C   UNL     1      27.643  49.010  49.199  1.00  0.00     0.013 C 
ENDBRANCH   9  18
ENDBRANCH   6   7
ENDBRANCH   5   6
ENDBRANCH   1   5
BRANCH   2  20
HETATM   20  C   UNL     1      27.232  43.129  51.379  1.00  0.00     0.173 A 
HETATM   21  S   UNL     1      27.635  41.479  51.525  1.00  0.00    -0.061 SA
HETATM   22  C   UNL     1      28.523  41.846  52.950  1.00  0.00     0.085 A 
HETATM   23  C   UNL     1      28.460  43.203  53.213  1.00  0.00     0.076 A 
HETATM   24  N   UNL     1      27.704  43.925  52.300  1.00  0.00    -0.223 NA
BRANCH  23  25
HETATM   25  C   UNL     1      29.100  43.875  54.344  1.00  0.00    -0.007 A 
HETATM   26  C   UNL     1      30.267  43.385  54.952  1.00  0.00     0.017 A 
HETATM   27  C   UNL     1      30.849  44.064  56.029  1.00  0.00     0.043 A 
HETATM   28  C   UNL     1      30.268  45.235  56.499  1.00  0.00     0.116 A 
HETATM   29  F   UNL     1      30.828  45.882  57.528  1.00  0.00    -0.206 F 
HETATM   30  C   UNL     1      29.118  45.744  55.913  1.00  0.00     0.043 A 
HETATM   31  C   UNL     1      28.538  45.066  54.837  1.00  0.00     0.017 A 
ENDBRANCH  23  25
ENDBRANCH   2  20
TORSDOF 6
ENDMDL
MODEL 7
REMARK VINA RESULT:      -9.0      4.875      8.656
REMARK  6 active torsions:
REMARK  status: ('A' for Active; 'I' for Inactive)
REMARK    1  A    between atoms: C_2  and  C_3 
REMARK    2  A    between atoms: C_5  and  S_6 
REMARK    3  A    between atoms: S_6  and  C_7 
REMARK    4  A    between atoms: C_7  and  C_8 
REMARK       I    between atoms: C_8  and  N_9 
REMARK    5  A    between atoms: N_9  and  C_10 
REMARK    6  A    between atoms: C_13  and  C_14 
ROOT
HETATM    1  C   UNL     1      25.838  45.212  51.025  1.00  0.00     0.233 C 
HETATM    2  N   UNL     1      25.522  45.095  52.356  1.00  0.00    -0.305 N 
HETATM    3  O   UNL     1      26.818  45.802  50.568  1.00  0.00    -0.272 OA
HETATM    4  H   UNL     1      24.679  44.605  52.623  1.00  0.00     0.171 HD
ENDROOT
BRANCH   1   5
HETATM    5  C   UNL     1      24.879  44.520  50.062  1.00  0.00     0.184 C 
BRANCH   5   6
HETATM    6  S   UNL     1      24.391  42.833  50.574  1.00  0.00    -0.100 SA
BRANCH   6   7
HETATM    7  C   UNL     1      25.976  42.039  50.615  1.00  0.00     0.109 A 
HETATM    8  N   UNL     1      26.670  42.073  51.772  1.00  0.00    -0.226 NA
HETATM    9  C   UNL     1      27.875  41.485  51.832  1.00  0.00     0.128 A 
HETATM   10  N   UNL     1      28.481  40.855  50.825  1.00  0.00    -0.225 NA
HETATM   11  C   UNL     1      27.761  40.836  49.693  1.00  0.00     0.113 A 
HETATM   12  C   UNL     1      26.506  41.390  49.484  1.00  0.00     0.042 A 
HETATM   13  S   UNL     1      28.394  40.065  48.321  1.00  0.00    -0.074 SA
HETATM   14  C   UNL     1      26.065  41.147  48.113  1.00  0.00    -0.033 A 
HETATM   15  C   UNL     1      27.016  40.437  47.388  1.00  0.00    -0.012 A 
HETATM   16  C   UNL     1      24.756  41.594  47.535  1.00  0.00     0.050 C 
HETATM   17  C   UNL     1      26.961  39.990  45.962  1.00  0.00     0.057 C 
BRANCH   9  18
HETATM   18  C   UNL     1      28.619  41.577  53.136  1.00  0.00     0.076 C 
HETATM   19  C   UNL     1      29.897  42.386  52.983  1.00  0.00     0.013 C 
ENDBRANCH   9  18
ENDBRANCH   6   7
ENDBRANCH   5   6
ENDBRANCH   1   5
BRANCH   2  20
HETATM   20  C   UNL     1      26.280  45.631  53.356  1.00  0.00     0.173 A 
HETATM   21  S   UNL     1      25.907  47.255  53.718  1.00  0.00    -0.061 SA
HETATM   22  C   UNL     1      27.127  47.241  54.928  1.00  0.00     0.085 A 
HETATM   23  C   UNL     1      27.729  45.996  54.982  1.00  0.00     0.076 A 
HETATM   24  N   UNL     1      27.232  45.084  54.061  1.00  0.00    -0.223 NA
BRANCH  23  25
HETATM   25  C   UNL     1      28.808  45.617  55.894  1.00  0.00    -0.007 A 
HETATM   26  C   UNL     1      29.831  44.728  55.527  1.00  0.00     0.017 A 
HETATM   27  C   UNL     1      30.847  44.398  56.431  1.00  0.00     0.043 A 
HETATM   28  C   UNL     1      30.845  44.955  57.703  1.00  0.00     0.116 A 
HETATM   29  F   UNL     1      31.819  44.637  58.564  1.00  0.00    -0.206 F 
HETATM   30  C   UNL     1      29.848  45.840  58.091  1.00  0.00     0.043 A 
HETATM   31  C   UNL     1      28.834  46.170  57.187  1.00  0.00     0.017 A 
ENDBRANCH  23  25
ENDBRANCH   2  20
TORSDOF 6
ENDMDL
MODEL 8
REMARK VINA RESULT:      -8.7      4.164     10.272
REMARK  6 active torsions:
REMARK  status: ('A' for Active; 'I' for Inactive)
REMARK    1  A    between atoms: C_2  and  C_3 
REMARK    2  A    between atoms: C_5  and  S_6 
REMARK    3  A    between atoms: S_6  and  C_7 
REMARK    4  A    between atoms: C_7  and  C_8 
REMARK       I    between atoms: C_8  and  N_9 
REMARK    5  A    between atoms: N_9  and  C_10 
REMARK    6  A    between atoms: C_13  and  C_14 
ROOT
HETATM    1  C   UNL     1      24.112  48.915  49.124  1.00  0.00     0.233 C 
HETATM    2  N   UNL     1      23.697  47.852  49.887  1.00  0.00    -0.305 N 
HETATM    3  O   UNL     1      25.270  49.321  49.026  1.00  0.00    -0.272 OA
HETATM    4  H   UNL     1      22.715  47.615  49.912  1.00  0.00     0.171 HD
ENDROOT
BRANCH   1   5
HETATM    5  C   UNL     1      23.016  49.614  48.326  1.00  0.00     0.184 C 
BRANCH   5   6
HETATM    6  S   UNL     1      21.670  50.307  49.352  1.00  0.00    -0.100 SA
BRANCH   6   7
HETATM    7  C   UNL     1      20.373  49.149  49.006  1.00  0.00     0.109 A 
HETATM    8  N   UNL     1      20.688  47.836  48.983  1.00  0.00    -0.226 NA
HETATM    9  C   UNL     1      19.728  46.936  48.719  1.00  0.00     0.128 A 
HETATM   10  N   UNL     1      18.451  47.218  48.458  1.00  0.00    -0.225 NA
HETATM   11  C   UNL     1      18.173  48.530  48.493  1.00  0.00     0.113 A 
HETATM   12  C   UNL     1      19.053  49.570  48.759  1.00  0.00     0.042 A 
HETATM   13  S   UNL     1      16.587  49.050  48.188  1.00  0.00    -0.074 SA
HETATM   14  C   UNL     1      18.354  50.852  48.707  1.00  0.00    -0.033 A 
HETATM   15  C   UNL     1      17.008  50.689  48.400  1.00  0.00    -0.012 A 
HETATM   16  C   UNL     1      18.986  52.190  48.950  1.00  0.00     0.050 C 
HETATM   17  C   UNL     1      15.951  51.737  48.247  1.00  0.00     0.057 C 
BRANCH   9  18
HETATM   18  C   UNL     1      20.138  45.489  48.677  1.00  0.00     0.076 C 
HETATM   19  C   UNL     1      21.450  45.311  47.933  1.00  0.00     0.013 C 
ENDBRANCH   9  18
ENDBRANCH   6   7
ENDBRANCH   5   6
ENDBRANCH   1   5
BRANCH   2  20
HETATM   20  C   UNL     1      24.544  47.098  50.646  1.00  0.00     0.173 A 
HETATM   21  S   UNL     1      24.919  45.579  49.970  1.00  0.00    -0.061 SA
HETATM   22  C   UNL     1      25.913  45.245  51.332  1.00  0.00     0.085 A 
HETATM   23  C   UNL     1      25.900  46.319  52.205  1.00  0.00     0.076 A 
HETATM   24  N   UNL     1      25.097  47.375  51.795  1.00  0.00    -0.223 NA
BRANCH  23  25
HETATM   25  C   UNL     1      26.633  46.390  53.469  1.00  0.00    -0.007 A 
HETATM   26  C   UNL     1      26.524  47.482  54.345  1.00  0.00     0.017 A 
HETATM   27  C   UNL     1      27.240  47.506  55.547  1.00  0.00     0.043 A 
HETATM   28  C   UNL     1      28.065  46.438  55.879  1.00  0.00     0.116 A 
HETATM   29  F   UNL     1      28.747  46.464  57.030  1.00  0.00    -0.206 F 
HETATM   30  C   UNL     1      28.187  45.344  55.034  1.00  0.00     0.043 A 
HETATM   31  C   UNL     1      27.471  45.321  53.833  1.00  0.00     0.017 A 
ENDBRANCH  23  25
ENDBRANCH   2  20
TORSDOF 6
ENDMDL
MODEL 9
REMARK VINA RESULT:      -8.4      4.114     10.021
REMARK  6 active torsions:
REMARK  status: ('A' for Active; 'I' for Inactive)
REMARK    1  A    between atoms: C_2  and  C_3 
REMARK    2  A    between atoms: C_5  and  S_6 
REMARK    3  A    between atoms: S_6  and  C_7 
REMARK    4  A    between atoms: C_7  and  C_8 
REMARK       I    between atoms: C_8  and  N_9 
REMARK    5  A    between atoms: N_9  and  C_10 
REMARK    6  A    between atoms: C_13  and  C_14 
ROOT
HETATM    1  C   UNL     1      25.628  45.019  51.260  1.00  0.00     0.233 C 
HETATM    2  N   UNL     1      25.903  43.951  52.078  1.00  0.00    -0.305 N 
HETATM    3  O   UNL     1      26.426  45.897  50.932  1.00  0.00    -0.272 OA
HETATM    4  H   UNL     1      25.166  43.296  52.302  1.00  0.00     0.171 HD
ENDROOT
BRANCH   1   5
HETATM    5  C   UNL     1      24.205  45.074  50.715  1.00  0.00     0.184 C 
BRANCH   5   6
HETATM    6  S   UNL     1      24.105  45.191  48.892  1.00  0.00    -0.100 SA
BRANCH   6   7
HETATM    7  C   UNL     1      22.535  45.991  48.706  1.00  0.00     0.109 A 
HETATM    8  N   UNL     1      21.450  45.214  48.501  1.00  0.00    -0.226 NA
HETATM    9  C   UNL     1      20.248  45.792  48.352  1.00  0.00     0.128 A 
HETATM   10  N   UNL     1      20.009  47.103  48.378  1.00  0.00    -0.225 NA
HETATM   11  C   UNL     1      21.108  47.845  48.589  1.00  0.00     0.113 A 
HETATM   12  C   UNL     1      22.407  47.392  48.767  1.00  0.00     0.042 A 
HETATM   13  S   UNL     1      20.967  49.534  48.655  1.00  0.00    -0.074 SA
HETATM   14  C   UNL     1      23.314  48.519  48.974  1.00  0.00    -0.033 A 
HETATM   15  C   UNL     1      22.639  49.733  48.928  1.00  0.00    -0.012 A 
HETATM   16  C   UNL     1      24.790  48.407  49.208  1.00  0.00     0.050 C 
HETATM   17  C   UNL     1      23.190  51.115  49.086  1.00  0.00     0.057 C 
BRANCH   9  18
HETATM   18  C   UNL     1      19.077  44.882  48.097  1.00  0.00     0.076 C 
HETATM   19  C   UNL     1      18.120  45.489  47.085  1.00  0.00     0.013 C 
ENDBRANCH   9  18
ENDBRANCH   6   7
ENDBRANCH   5   6
ENDBRANCH   1   5
BRANCH   2  20
HETATM   20  C   UNL     1      27.128  43.731  52.637  1.00  0.00     0.173 A 
HETATM   21  S   UNL     1      28.165  42.771  51.684  1.00  0.00    -0.061 SA
HETATM   22  C   UNL     1      29.374  42.913  52.898  1.00  0.00     0.085 A 
HETATM   23  C   UNL     1      28.908  43.692  53.943  1.00  0.00     0.076 A 
HETATM   24  N   UNL     1      27.607  44.147  53.777  1.00  0.00    -0.223 NA
BRANCH  23  25
HETATM   25  C   UNL     1      29.665  44.029  55.149  1.00  0.00    -0.007 A 
HETATM   26  C   UNL     1      29.440  45.209  55.876  1.00  0.00     0.017 A 
HETATM   27  C   UNL     1      30.185  45.488  57.028  1.00  0.00     0.043 A 
HETATM   28  C   UNL     1      31.154  44.590  57.457  1.00  0.00     0.116 A 
HETATM   29  F   UNL     1      31.863  44.861  58.560  1.00  0.00    -0.206 F 
HETATM   30  C   UNL     1      31.393  43.414  56.760  1.00  0.00     0.043 A 
HETATM   31  C   UNL     1      30.648  43.135  55.610  1.00  0.00     0.017 A 
ENDBRANCH  23  25
ENDBRANCH   2  20
TORSDOF 6
ENDMDL
MODEL 10
REMARK VINA RESULT:      -8.3      2.508      3.985
REMARK  6 active torsions:
REMARK  status: ('A' for Active; 'I' for Inactive)
REMARK    1  A    between atoms: C_2  and  C_3 
REMARK    2  A    between atoms: C_5  and  S_6 
REMARK    3  A    between atoms: S_6  and  C_7 
REMARK    4  A    between atoms: C_7  and  C_8 
REMARK       I    between atoms: C_8  and  N_9 
REMARK    5  A    between atoms: N_9  and  C_10 
REMARK    6  A    between atoms: C_13  and  C_14 
ROOT
HETATM    1  C   UNL     1      24.464  45.775  49.945  1.00  0.00     0.233 C 
HETATM    2  N   UNL     1      23.178  45.487  49.561  1.00  0.00    -0.305 N 
HETATM    3  O   UNL     1      25.103  46.778  49.626  1.00  0.00    -0.272 OA
HETATM    4  H   UNL     1      22.753  44.622  49.864  1.00  0.00     0.171 HD
ENDROOT
BRANCH   1   5
HETATM    5  C   UNL     1      25.117  44.747  50.863  1.00  0.00     0.184 C 
BRANCH   5   6
HETATM    6  S   UNL     1      25.962  45.470  52.315  1.00  0.00    -0.100 SA
BRANCH   6   7
HETATM    7  C   UNL     1      27.179  44.221  52.634  1.00  0.00     0.109 A 
HETATM    8  N   UNL     1      27.171  43.118  51.856  1.00  0.00    -0.226 NA
HETATM    9  C   UNL     1      28.077  42.153  52.077  1.00  0.00     0.128 A 
HETATM   10  N   UNL     1      29.012  42.170  53.028  1.00  0.00    -0.225 NA
HETATM   11  C   UNL     1      28.993  43.282  53.778  1.00  0.00     0.113 A 
HETATM   12  C   UNL     1      28.128  44.360  53.664  1.00  0.00     0.042 A 
HETATM   13  S   UNL     1      30.127  43.457  55.029  1.00  0.00    -0.074 SA
HETATM   14  C   UNL     1      28.443  45.373  54.669  1.00  0.00    -0.033 A 
HETATM   15  C   UNL     1      29.511  44.984  55.470  1.00  0.00    -0.012 A 
HETATM   16  C   UNL     1      27.721  46.675  54.837  1.00  0.00     0.050 C 
HETATM   17  C   UNL     1      30.142  45.722  56.608  1.00  0.00     0.057 C 
BRANCH   9  18
HETATM   18  C   UNL     1      28.007  40.932  51.200  1.00  0.00     0.076 C 
HETATM   19  C   UNL     1      26.571  40.616  50.813  1.00  0.00     0.013 C 
ENDBRANCH   9  18
ENDBRANCH   6   7
ENDBRANCH   5   6
ENDBRANCH   1   5
BRANCH   2  20
HETATM   20  C   UNL     1      22.435  46.304  48.761  1.00  0.00     0.173 A 
HETATM   21  S   UNL     1      22.074  45.642  47.232  1.00  0.00    -0.061 SA
HETATM   22  C   UNL     1      21.217  47.079  46.837  1.00  0.00     0.085 A 
HETATM   23  C   UNL     1      21.256  47.963  47.902  1.00  0.00     0.076 A 
HETATM   24  N   UNL     1      21.970  47.500  48.999  1.00  0.00    -0.223 NA
BRANCH  23  25
HETATM   25  C   UNL     1      20.631  49.285  47.925  1.00  0.00    -0.007 A 
HETATM   26  C   UNL     1      19.448  49.575  47.227  1.00  0.00     0.017 A 
HETATM   27  C   UNL     1      18.883  50.854  47.282  1.00  0.00     0.043 A 
HETATM   28  C   UNL     1      19.496  51.846  48.036  1.00  0.00     0.116 A 
HETATM   29  F   UNL     1      18.951  53.068  48.087  1.00  0.00    -0.206 F 
HETATM   30  C   UNL     1      20.663  51.586  48.740  1.00  0.00     0.043 A 
HETATM   31  C   UNL     1      21.227  50.308  48.685  1.00  0.00     0.017 A 
ENDBRANCH  23  25
ENDBRANCH   2  20
TORSDOF 6
ENDMDL
