MODEL 1
REMARK VINA RESULT:      -9.6      0.000      0.000
REMARK  6 active torsions:
REMARK  status: ('A' for Active; 'I' for Inactive)
REMARK    1  A    between atoms: C_3  and  C_4 
REMARK    2  A    between atoms: C_4  and  N_5 
REMARK    3  A    between atoms: C_4  and  C_9 
REMARK       I    between atoms: N_5  and  C_6 
REMARK       I    between atoms: C_6  and  N_7 
REMARK    4  A    between atoms: C_9  and  C_10 
REMARK       I    between atoms: C_10  and  N_11 
REMARK    5  A    between atoms: N_11  and  N_12 
REMARK       I    between atoms: N_12  and  C_13 
REMARK    6  A    between atoms: C_13  and  C_14 
ROOT
HETATM    1  C   UNL     1      25.657  46.934  52.904  1.00  0.00     0.238 C 
HETATM    2  N   UNL     1      26.358  45.748  52.971  1.00  0.00    -0.267 N 
HETATM    3  O   UNL     1      25.711  47.783  53.794  1.00  0.00    -0.272 OA
HETATM    4  H   UNL     1      26.473  45.127  52.169  1.00  0.00     0.190 HD
ENDROOT
BRANCH   1   5
HETATM    5  C   UNL     1      24.784  47.045  51.675  1.00  0.00     0.134 C 
BRANCH   5   6
HETATM    6  C   UNL     1      25.618  46.998  50.382  1.00  0.00     0.129 C 
BRANCH   6   7
HETATM    7  C   UNL     1      25.318  48.158  49.436  1.00  0.00    -0.013 A 
HETATM    8  C   UNL     1      23.985  48.469  49.099  1.00  0.00     0.011 A 
HETATM    9  C   UNL     1      23.676  49.524  48.237  1.00  0.00     0.001 A 
HETATM   10  C   UNL     1      24.692  50.297  47.690  1.00  0.00     0.002 A 
HETATM   11  C   UNL     1      26.019  50.006  47.998  1.00  0.00     0.024 A 
HETATM   12  C   UNL     1      26.333  48.945  48.857  1.00  0.00     0.042 A 
HETATM   13 CL   UNL     1      28.015  48.669  49.157  1.00  0.00    -0.084 Cl
ENDBRANCH   6   7
BRANCH   6  14
HETATM   14  N   UNL     1      25.582  45.715  49.678  1.00  0.00    -0.339 N 
HETATM   15  C   UNL     1      26.617  44.838  49.601  1.00  0.00     0.292 C 
HETATM   16  N   UNL     1      26.314  43.761  48.833  1.00  0.00    -0.254 NA
HETATM   17  O   UNL     1      27.716  44.957  50.121  1.00  0.00    -0.254 OA
HETATM   18  H   UNL     1      25.367  43.416  48.901  1.00  0.00     0.128 HD
HETATM   19  H   UNL     1      27.027  43.043  48.854  1.00  0.00     0.128 HD
HETATM   20  H   UNL     1      24.979  45.698  48.867  1.00  0.00     0.164 HD
ENDBRANCH   6  14
ENDBRANCH   5   6
ENDBRANCH   1   5
BRANCH   2  21
HETATM   21  N   UNL     1      27.301  45.609  53.992  1.00  0.00    -0.263 N 
HETATM   22  C   UNL     1      28.227  44.593  53.899  1.00  0.00     0.270 C 
HETATM   23  O   UNL     1      28.246  43.796  52.964  1.00  0.00    -0.266 OA
HETATM   24  H   UNL     1      27.192  46.230  54.792  1.00  0.00     0.190 HD
BRANCH  22  25
HETATM   25  C   UNL     1      29.208  44.484  55.012  1.00  0.00     0.036 A 
HETATM   26  C   UNL     1      29.277  45.441  56.035  1.00  0.00     0.057 A 
HETATM   27  C   UNL     1      30.225  45.254  57.020  1.00  0.00     0.106 A 
HETATM   28  C   UNL     1      31.084  44.180  57.015  1.00  0.00     0.105 A 
HETATM   29  O   UNL     1      30.432  46.079  58.081  1.00  0.00    -0.323 OA
HETATM   30  O   UNL     1      31.935  44.193  58.075  1.00  0.00    -0.323 OA
HETATM   31  C   UNL     1      31.050  43.229  56.020  1.00  0.00     0.041 A 
HETATM   32  C   UNL     1      31.520  45.402  58.745  1.00  0.00     0.352 A 
HETATM   33  C   UNL     1      30.102  43.389  55.003  1.00  0.00     0.020 A 
ENDBRANCH  22  25
ENDBRANCH   2  21
TORSDOF 6
ENDMDL
MODEL 2
REMARK VINA RESULT:      -9.2      1.927      2.327
REMARK  6 active torsions:
REMARK  status: ('A' for Active; 'I' for Inactive)
REMARK    1  A    between atoms: C_3  and  C_4 
REMARK    2  A    between atoms: C_4  and  N_5 
REMARK    3  A    between atoms: C_4  and  C_9 
REMARK       I    between atoms: N_5  and  C_6 
REMARK       I    between atoms: C_6  and  N_7 
REMARK    4  A    between atoms: C_9  and  C_10 
REMARK       I    between atoms: C_10  and  N_11 
REMARK    5  A    between atoms: N_11  and  N_12 
REMARK       I    between atoms: N_12  and  C_13 
REMARK    6  A    between atoms: C_13  and  C_14 
ROOT
HETATM    1  C   UNL     1      25.305  43.787  52.591  1.00  0.00     0.238 C 
HETATM    2  N   UNL     1      26.549  43.194  52.665  1.00  0.00    -0.267 N 
HETATM    3  O   UNL     1      24.804  44.388  53.542  1.00  0.00    -0.272 OA
HETATM    4  H   UNL     1      27.053  42.862  51.842  1.00  0.00     0.190 HD
ENDROOT
BRANCH   1   5
HETATM    5  C   UNL     1      24.614  43.568  51.264  1.00  0.00     0.134 C 
BRANCH   5   6
HETATM    6  C   UNL     1      25.294  44.363  50.135  1.00  0.00     0.129 C 
BRANCH   6   7
HETATM    7  C   UNL     1      24.463  45.552  49.659  1.00  0.00    -0.013 A 
HETATM    8  C   UNL     1      23.443  45.364  48.704  1.00  0.00     0.011 A 
HETATM    9  C   UNL     1      22.662  46.430  48.248  1.00  0.00     0.001 A 
HETATM   10  C   UNL     1      22.883  47.712  48.736  1.00  0.00     0.002 A 
HETATM   11  C   UNL     1      23.890  47.928  49.673  1.00  0.00     0.024 A 
HETATM   12  C   UNL     1      24.678  46.862  50.128  1.00  0.00     0.042 A 
HETATM   13 CL   UNL     1      25.908  47.252  51.281  1.00  0.00    -0.084 Cl
ENDBRANCH   6   7
BRANCH   6  14
HETATM   14  N   UNL     1      25.754  43.550  49.007  1.00  0.00    -0.339 N 
HETATM   15  C   UNL     1      26.697  42.576  49.081  1.00  0.00     0.292 C 
HETATM   16  N   UNL     1      26.963  42.033  47.866  1.00  0.00    -0.254 NA
HETATM   17  O   UNL     1      27.285  42.202  50.084  1.00  0.00    -0.254 OA
HETATM   18  H   UNL     1      26.175  41.923  47.243  1.00  0.00     0.128 HD
HETATM   19  H   UNL     1      27.578  41.231  47.913  1.00  0.00     0.128 HD
HETATM   20  H   UNL     1      25.731  44.022  48.113  1.00  0.00     0.164 HD
ENDBRANCH   6  14
ENDBRANCH   5   6
ENDBRANCH   1   5
BRANCH   2  21
HETATM   21  N   UNL     1      27.327  43.458  53.794  1.00  0.00    -0.263 N 
HETATM   22  C   UNL     1      28.680  43.657  53.628  1.00  0.00     0.270 C 
HETATM   23  O   UNL     1      29.231  43.595  52.531  1.00  0.00    -0.266 OA
HETATM   24  H   UNL     1      26.848  43.409  54.691  1.00  0.00     0.190 HD
BRANCH  22  25
HETATM   25  C   UNL     1      29.467  43.933  54.860  1.00  0.00     0.036 A 
HETATM   26  C   UNL     1      29.231  45.066  55.652  1.00  0.00     0.057 A 
HETATM   27  C   UNL     1      30.018  45.236  56.773  1.00  0.00     0.106 A 
HETATM   28  C   UNL     1      31.007  44.343  57.115  1.00  0.00     0.105 A 
HETATM   29  O   UNL     1      29.928  46.272  57.649  1.00  0.00    -0.323 OA
HETATM   30  O   UNL     1      31.658  44.704  58.252  1.00  0.00    -0.323 OA
HETATM   31  C   UNL     1      31.272  43.228  56.353  1.00  0.00     0.041 A 
HETATM   32  C   UNL     1      30.974  45.930  58.583  1.00  0.00     0.352 A 
HETATM   33  C   UNL     1      30.494  43.025  55.208  1.00  0.00     0.020 A 
ENDBRANCH  22  25
ENDBRANCH   2  21
TORSDOF 6
ENDMDL
MODEL 3
REMARK VINA RESULT:      -8.9      5.506      7.588
REMARK  6 active torsions:
REMARK  status: ('A' for Active; 'I' for Inactive)
REMARK    1  A    between atoms: C_3  and  C_4 
REMARK    2  A    between atoms: C_4  and  N_5 
REMARK    3  A    between atoms: C_4  and  C_9 
REMARK       I    between atoms: N_5  and  C_6 
REMARK       I    between atoms: C_6  and  N_7 
REMARK    4  A    between atoms: C_9  and  C_10 
REMARK       I    between atoms: C_10  and  N_11 
REMARK    5  A    between atoms: N_11  and  N_12 
REMARK       I    between atoms: N_12  and  C_13 
REMARK    6  A    between atoms: C_13  and  C_14 
ROOT
HETATM    1  C   UNL     1      26.802  40.660  50.414  1.00  0.00     0.238 C 
HETATM    2  N   UNL     1      26.670  40.527  51.782  1.00  0.00    -0.267 N 
HETATM    3  O   UNL     1      27.053  41.739  49.879  1.00  0.00    -0.272 OA
HETATM    4  H   UNL     1      26.651  39.620  52.250  1.00  0.00     0.190 HD
ENDROOT
BRANCH   1   5
HETATM    5  C   UNL     1      26.546  39.375  49.660  1.00  0.00     0.134 C 
BRANCH   5   6
HETATM    6  C   UNL     1      27.861  38.667  49.286  1.00  0.00     0.129 C 
BRANCH   6   7
HETATM    7  C   UNL     1      27.891  38.191  47.836  1.00  0.00    -0.013 A 
HETATM    8  C   UNL     1      27.702  36.827  47.536  1.00  0.00     0.011 A 
HETATM    9  C   UNL     1      27.721  36.358  46.220  1.00  0.00     0.001 A 
HETATM   10  C   UNL     1      27.930  37.242  45.169  1.00  0.00     0.002 A 
HETATM   11  C   UNL     1      28.129  38.594  45.437  1.00  0.00     0.024 A 
HETATM   12  C   UNL     1      28.116  39.067  46.756  1.00  0.00     0.042 A 
HETATM   13 CL   UNL     1      28.388  40.763  46.968  1.00  0.00    -0.084 Cl
ENDBRANCH   6   7
BRANCH   6  14
HETATM   14  N   UNL     1      28.264  37.600  50.204  1.00  0.00    -0.339 N 
HETATM   15  C   UNL     1      29.541  37.342  50.588  1.00  0.00     0.292 C 
HETATM   16  N   UNL     1      29.618  36.256  51.399  1.00  0.00    -0.254 NA
HETATM   17  O   UNL     1      30.541  37.963  50.264  1.00  0.00    -0.254 OA
HETATM   18  H   UNL     1      28.861  36.134  52.057  1.00  0.00     0.128 HD
HETATM   19  H   UNL     1      30.542  36.113  51.787  1.00  0.00     0.128 HD
HETATM   20  H   UNL     1      27.679  36.776  50.173  1.00  0.00     0.164 HD
ENDBRANCH   6  14
ENDBRANCH   5   6
ENDBRANCH   1   5
BRANCH   2  21
HETATM   21  N   UNL     1      27.025  41.619  52.576  1.00  0.00    -0.263 N 
HETATM   22  C   UNL     1      28.289  41.649  53.125  1.00  0.00     0.270 C 
HETATM   23  O   UNL     1      29.107  40.747  52.959  1.00  0.00    -0.266 OA
HETATM   24  H   UNL     1      26.289  42.296  52.765  1.00  0.00     0.190 HD
BRANCH  22  25
HETATM   25  C   UNL     1      28.620  42.831  53.966  1.00  0.00     0.036 A 
HETATM   26  C   UNL     1      27.705  43.874  54.171  1.00  0.00     0.057 A 
HETATM   27  C   UNL     1      28.108  44.929  54.963  1.00  0.00     0.106 A 
HETATM   28  C   UNL     1      29.358  44.980  55.535  1.00  0.00     0.105 A 
HETATM   29  O   UNL     1      27.354  46.020  55.266  1.00  0.00    -0.323 OA
HETATM   30  O   UNL     1      29.544  46.107  56.272  1.00  0.00    -0.323 OA
HETATM   31  C   UNL     1      30.283  43.979  55.343  1.00  0.00     0.041 A 
HETATM   32  C   UNL     1      28.273  46.765  56.093  1.00  0.00     0.352 A 
HETATM   33  C   UNL     1      29.909  42.894  54.544  1.00  0.00     0.020 A 
ENDBRANCH  22  25
ENDBRANCH   2  21
TORSDOF 6
ENDMDL
MODEL 4
REMARK VINA RESULT:      -8.9      4.220      8.549
REMARK  6 active torsions:
REMARK  status: ('A' for Active; 'I' for Inactive)
REMARK    1  A    between atoms: C_3  and  C_4 
REMARK    2  A    between atoms: C_4  and  N_5 
REMARK    3  A    between atoms: C_4  and  C_9 
REMARK       I    between atoms: N_5  and  C_6 
REMARK       I    between atoms: C_6  and  N_7 
REMARK    4  A    between atoms: C_9  and  C_10 
REMARK       I    between atoms: C_10  and  N_11 
REMARK    5  A    between atoms: N_11  and  N_12 
REMARK       I    between atoms: N_12  and  C_13 
REMARK    6  A    between atoms: C_13  and  C_14 
ROOT
HETATM    1  C   UNL     1      27.223  43.686  53.305  1.00  0.00     0.238 C 
HETATM    2  N   UNL     1      27.063  42.317  53.252  1.00  0.00    -0.267 N 
HETATM    3  O   UNL     1      27.568  44.348  52.325  1.00  0.00    -0.272 OA
HETATM    4  H   UNL     1      26.601  41.785  53.991  1.00  0.00     0.190 HD
ENDROOT
BRANCH   1   5
HETATM    5  C   UNL     1      26.995  44.264  54.683  1.00  0.00     0.134 C 
BRANCH   5   6
HETATM    6  C   UNL     1      27.842  45.528  54.915  1.00  0.00     0.129 C 
BRANCH   6   7
HETATM    7  C   UNL     1      28.941  45.328  55.955  1.00  0.00    -0.013 A 
HETATM    8  C   UNL     1      28.894  46.030  57.176  1.00  0.00     0.011 A 
HETATM    9  C   UNL     1      29.883  45.869  58.151  1.00  0.00     0.001 A 
HETATM   10  C   UNL     1      30.943  45.000  57.929  1.00  0.00     0.002 A 
HETATM   11  C   UNL     1      31.020  44.300  56.727  1.00  0.00     0.024 A 
HETATM   12  C   UNL     1      30.033  44.464  55.745  1.00  0.00     0.042 A 
HETATM   13 CL   UNL     1      30.240  43.554  54.288  1.00  0.00    -0.084 Cl
ENDBRANCH   6   7
BRANCH   6  14
HETATM   14  N   UNL     1      27.068  46.741  55.186  1.00  0.00    -0.339 N 
HETATM   15  C   UNL     1      26.318  47.409  54.271  1.00  0.00     0.292 C 
HETATM   16  N   UNL     1      25.760  48.531  54.793  1.00  0.00    -0.254 NA
HETATM   17  O   UNL     1      26.142  47.098  53.103  1.00  0.00    -0.254 OA
HETATM   18  H   UNL     1      25.447  48.470  55.752  1.00  0.00     0.128 HD
HETATM   19  H   UNL     1      25.108  48.982  54.164  1.00  0.00     0.128 HD
HETATM   20  H   UNL     1      27.463  47.341  55.898  1.00  0.00     0.164 HD
ENDBRANCH   6  14
ENDBRANCH   5   6
ENDBRANCH   1   5
BRANCH   2  21
HETATM   21  N   UNL     1      27.111  41.707  51.997  1.00  0.00    -0.263 N 
HETATM   22  C   UNL     1      28.214  40.946  51.677  1.00  0.00     0.270 C 
HETATM   23  O   UNL     1      29.163  40.797  52.443  1.00  0.00    -0.266 OA
HETATM   24  H   UNL     1      26.349  41.930  51.359  1.00  0.00     0.190 HD
BRANCH  22  25
HETATM   25  C   UNL     1      28.220  40.319  50.328  1.00  0.00     0.036 A 
HETATM   26  C   UNL     1      27.673  40.963  49.209  1.00  0.00     0.057 A 
HETATM   27  C   UNL     1      27.722  40.297  48.002  1.00  0.00     0.106 A 
HETATM   28  C   UNL     1      28.276  39.044  47.879  1.00  0.00     0.105 A 
HETATM   29  O   UNL     1      27.240  40.769  46.821  1.00  0.00    -0.323 OA
HETATM   30  O   UNL     1      28.217  38.575  46.605  1.00  0.00    -0.323 OA
HETATM   31  C   UNL     1      28.811  38.379  48.959  1.00  0.00     0.041 A 
HETATM   32  C   UNL     1      27.555  39.670  45.939  1.00  0.00     0.352 A 
HETATM   33  C   UNL     1      28.776  39.025  50.200  1.00  0.00     0.020 A 
ENDBRANCH  22  25
ENDBRANCH   2  21
TORSDOF 6
ENDMDL
MODEL 5
REMARK VINA RESULT:      -8.9      4.676      7.247
REMARK  6 active torsions:
REMARK  status: ('A' for Active; 'I' for Inactive)
REMARK    1  A    between atoms: C_3  and  C_4 
REMARK    2  A    between atoms: C_4  and  N_5 
REMARK    3  A    between atoms: C_4  and  C_9 
REMARK       I    between atoms: N_5  and  C_6 
REMARK       I    between atoms: C_6  and  N_7 
REMARK    4  A    between atoms: C_9  and  C_10 
REMARK       I    between atoms: C_10  and  N_11 
REMARK    5  A    between atoms: N_11  and  N_12 
REMARK       I    between atoms: N_12  and  C_13 
REMARK    6  A    between atoms: C_13  and  C_14 
ROOT
HETATM    1  C   UNL     1      22.713  48.253  48.851  1.00  0.00     0.238 C 
HETATM    2  N   UNL     1      23.396  48.014  50.026  1.00  0.00    -0.267 N 
HETATM    3  O   UNL     1      22.789  47.501  47.879  1.00  0.00    -0.272 OA
HETATM    4  H   UNL     1      23.198  48.516  50.892  1.00  0.00     0.190 HD
ENDROOT
BRANCH   1   5
HETATM    5  C   UNL     1      21.928  49.545  48.866  1.00  0.00     0.134 C 
BRANCH   5   6
HETATM    6  C   UNL     1      20.421  49.290  49.047  1.00  0.00     0.129 C 
BRANCH   6   7
HETATM    7  C   UNL     1      19.551  50.309  48.316  1.00  0.00    -0.013 A 
HETATM    8  C   UNL     1      19.493  51.643  48.769  1.00  0.00     0.011 A 
HETATM    9  C   UNL     1      18.708  52.601  48.122  1.00  0.00     0.001 A 
HETATM   10  C   UNL     1      17.961  52.250  47.005  1.00  0.00     0.002 A 
HETATM   11  C   UNL     1      17.993  50.937  46.540  1.00  0.00     0.024 A 
HETATM   12  C   UNL     1      18.774  49.972  47.191  1.00  0.00     0.042 A 
HETATM   13 CL   UNL     1      18.725  48.372  46.534  1.00  0.00    -0.084 Cl
ENDBRANCH   6   7
BRANCH   6  14
HETATM   14  N   UNL     1      19.992  49.126  50.438  1.00  0.00    -0.339 N 
HETATM   15  C   UNL     1      18.829  48.545  50.832  1.00  0.00     0.292 C 
HETATM   16  N   UNL     1      18.672  48.586  52.179  1.00  0.00    -0.254 NA
HETATM   17  O   UNL     1      17.981  48.045  50.110  1.00  0.00    -0.254 OA
HETATM   18  H   UNL     1      19.509  48.461  52.731  1.00  0.00     0.128 HD
HETATM   19  H   UNL     1      17.870  48.061  52.504  1.00  0.00     0.128 HD
HETATM   20  H   UNL     1      20.312  49.852  51.065  1.00  0.00     0.164 HD
ENDBRANCH   6  14
ENDBRANCH   5   6
ENDBRANCH   1   5
BRANCH   2  21
HETATM   21  N   UNL     1      24.033  46.780  50.165  1.00  0.00    -0.263 N 
HETATM   22  C   UNL     1      25.349  46.761  50.576  1.00  0.00     0.270 C 
HETATM   23  O   UNL     1      25.986  47.785  50.807  1.00  0.00    -0.266 OA
HETATM   24  H   UNL     1      23.499  45.963  49.875  1.00  0.00     0.190 HD
BRANCH  22  25
HETATM   25  C   UNL     1      25.985  45.423  50.707  1.00  0.00     0.036 A 
HETATM   26  C   UNL     1      26.226  44.605  49.593  1.00  0.00     0.057 A 
HETATM   27  C   UNL     1      26.815  43.378  49.819  1.00  0.00     0.106 A 
HETATM   28  C   UNL     1      27.157  42.951  51.081  1.00  0.00     0.105 A 
HETATM   29  O   UNL     1      27.119  42.461  48.861  1.00  0.00    -0.323 OA
HETATM   30  O   UNL     1      27.722  41.714  51.073  1.00  0.00    -0.323 OA
HETATM   31  C   UNL     1      26.923  43.724  52.196  1.00  0.00     0.041 A 
HETATM   32  C   UNL     1      27.691  41.407  49.664  1.00  0.00     0.352 A 
HETATM   33  C   UNL     1      26.324  44.974  52.004  1.00  0.00     0.020 A 
ENDBRANCH  22  25
ENDBRANCH   2  21
TORSDOF 6
ENDMDL
MODEL 6
REMARK VINA RESULT:      -8.8      4.498      6.377
REMARK  6 active torsions:
REMARK  status: ('A' for Active; 'I' for Inactive)
REMARK    1  A    between atoms: C_3  and  C_4 
REMARK    2  A    between atoms: C_4  and  N_5 
REMARK    3  A    between atoms: C_4  and  C_9 
REMARK       I    between atoms: N_5  and  C_6 
REMARK       I    between atoms: C_6  and  N_7 
REMARK    4  A    between atoms: C_9  and  C_10 
REMARK       I    between atoms: C_10  and  N_11 
REMARK    5  A    between atoms: N_11  and  N_12 
REMARK       I    between atoms: N_12  and  C_13 
REMARK    6  A    between atoms: C_13  and  C_14 
ROOT
HETATM    1  C   UNL     1      22.710  48.892  49.346  1.00  0.00     0.238 C 
HETATM    2  N   UNL     1      23.181  47.623  49.613  1.00  0.00    -0.267 N 
HETATM    3  O   UNL     1      22.929  49.847  50.093  1.00  0.00    -0.272 OA
HETATM    4  H   UNL     1      23.172  46.873  48.922  1.00  0.00     0.190 HD
ENDROOT
BRANCH   1   5
HETATM    5  C   UNL     1      21.862  48.966  48.097  1.00  0.00     0.134 C 
BRANCH   5   6
HETATM    6  C   UNL     1      20.359  48.919  48.430  1.00  0.00     0.129 C 
BRANCH   6   7
HETATM    7  C   UNL     1      19.597  50.139  47.920  1.00  0.00    -0.013 A 
HETATM    8  C   UNL     1      19.690  51.368  48.604  1.00  0.00     0.011 A 
HETATM    9  C   UNL     1      19.006  52.504  48.163  1.00  0.00     0.001 A 
HETATM   10  C   UNL     1      18.212  52.441  47.025  1.00  0.00     0.002 A 
HETATM   11  C   UNL     1      18.095  51.237  46.334  1.00  0.00     0.024 A 
HETATM   12  C   UNL     1      18.774  50.094  46.777  1.00  0.00     0.042 A 
HETATM   13 CL   UNL     1      18.543  48.653  45.848  1.00  0.00    -0.084 Cl
ENDBRANCH   6   7
BRANCH   6  14
HETATM   14  N   UNL     1      20.053  48.651  49.837  1.00  0.00    -0.339 N 
HETATM   15  C   UNL     1      18.849  48.232  50.307  1.00  0.00     0.292 C 
HETATM   16  N   UNL     1      18.842  48.124  51.659  1.00  0.00    -0.254 NA
HETATM   17  O   UNL     1      17.853  47.984  49.646  1.00  0.00    -0.254 OA
HETATM   18  H   UNL     1      19.693  47.786  52.085  1.00  0.00     0.128 HD
HETATM   19  H   UNL     1      17.994  47.707  52.022  1.00  0.00     0.128 HD
HETATM   20  H   UNL     1      20.565  49.224  50.494  1.00  0.00     0.164 HD
ENDBRANCH   6  14
ENDBRANCH   5   6
ENDBRANCH   1   5
BRANCH   2  21
HETATM   21  N   UNL     1      24.091  47.477  50.662  1.00  0.00    -0.263 N 
HETATM   22  C   UNL     1      24.655  46.238  50.876  1.00  0.00     0.270 C 
HETATM   23  O   UNL     1      24.378  45.256  50.192  1.00  0.00    -0.266 OA
HETATM   24  H   UNL     1      24.222  48.290  51.261  1.00  0.00     0.190 HD
BRANCH  22  25
HETATM   25  C   UNL     1      25.616  46.131  52.007  1.00  0.00     0.036 A 
HETATM   26  C   UNL     1      26.418  44.996  52.194  1.00  0.00     0.057 A 
HETATM   27  C   UNL     1      27.273  44.991  53.276  1.00  0.00     0.106 A 
HETATM   28  C   UNL     1      27.348  46.046  54.155  1.00  0.00     0.105 A 
HETATM   29  O   UNL     1      28.118  43.978  53.609  1.00  0.00    -0.323 OA
HETATM   30  O   UNL     1      28.253  45.831  55.147  1.00  0.00    -0.323 OA
HETATM   31  C   UNL     1      26.567  47.170  54.007  1.00  0.00     0.041 A 
HETATM   32  C   UNL     1      28.734  44.516  54.798  1.00  0.00     0.352 A 
HETATM   33  C   UNL     1      25.686  47.208  52.921  1.00  0.00     0.020 A 
ENDBRANCH  22  25
ENDBRANCH   2  21
TORSDOF 6
ENDMDL
MODEL 7
REMARK VINA RESULT:      -8.7      3.231      9.330
REMARK  6 active torsions:
REMARK  status: ('A' for Active; 'I' for Inactive)
REMARK    1  A    between atoms: C_3  and  C_4 
REMARK    2  A    between atoms: C_4  and  N_5 
REMARK    3  A    between atoms: C_4  and  C_9 
REMARK       I    between atoms: N_5  and  C_6 
REMARK       I    between atoms: C_6  and  N_7 
REMARK    4  A    between atoms: C_9  and  C_10 
REMARK       I    between atoms: C_10  and  N_11 
REMARK    5  A    between atoms: N_11  and  N_12 
REMARK       I    between atoms: N_12  and  C_13 
REMARK    6  A    between atoms: C_13  and  C_14 
ROOT
HETATM    1  C   UNL     1      26.115  45.441  51.677  1.00  0.00     0.238 C 
HETATM    2  N   UNL     1      26.275  46.505  50.813  1.00  0.00    -0.267 N 
HETATM    3  O   UNL     1      25.017  45.121  52.133  1.00  0.00    -0.272 OA
HETATM    4  H   UNL     1      27.133  46.664  50.284  1.00  0.00     0.190 HD
ENDROOT
BRANCH   1   5
HETATM    5  C   UNL     1      27.417  44.765  52.042  1.00  0.00     0.134 C 
BRANCH   5   6
HETATM    6  C   UNL     1      27.283  43.940  53.335  1.00  0.00     0.129 C 
BRANCH   6   7
HETATM    7  C   UNL     1      28.482  44.094  54.268  1.00  0.00    -0.013 A 
HETATM    8  C   UNL     1      29.444  43.068  54.356  1.00  0.00     0.011 A 
HETATM    9  C   UNL     1      30.555  43.178  55.199  1.00  0.00     0.001 A 
HETATM   10  C   UNL     1      30.730  44.316  55.974  1.00  0.00     0.002 A 
HETATM   11  C   UNL     1      29.789  45.342  55.913  1.00  0.00     0.024 A 
HETATM   12  C   UNL     1      28.672  45.233  55.074  1.00  0.00     0.042 A 
HETATM   13 CL   UNL     1      27.564  46.562  55.092  1.00  0.00    -0.084 Cl
ENDBRANCH   6   7
BRANCH   6  14
HETATM   14  N   UNL     1      26.949  42.529  53.128  1.00  0.00    -0.339 N 
HETATM   15  C   UNL     1      27.354  41.778  52.072  1.00  0.00     0.292 C 
HETATM   16  N   UNL     1      26.843  40.522  52.115  1.00  0.00    -0.254 NA
HETATM   17  O   UNL     1      28.076  42.137  51.154  1.00  0.00    -0.254 OA
HETATM   18  H   UNL     1      26.766  40.102  53.030  1.00  0.00     0.128 HD
HETATM   19  H   UNL     1      27.220  39.913  51.401  1.00  0.00     0.128 HD
HETATM   20  H   UNL     1      26.049  42.253  53.497  1.00  0.00     0.164 HD
ENDBRANCH   6  14
ENDBRANCH   5   6
ENDBRANCH   1   5
BRANCH   2  21
HETATM   21  N   UNL     1      25.121  47.104  50.303  1.00  0.00    -0.263 N 
HETATM   22  C   UNL     1      25.259  48.207  49.488  1.00  0.00     0.270 C 
HETATM   23  O   UNL     1      26.351  48.693  49.207  1.00  0.00    -0.266 OA
HETATM   24  H   UNL     1      24.235  46.728  50.634  1.00  0.00     0.190 HD
BRANCH  22  25
HETATM   25  C   UNL     1      24.001  48.812  48.971  1.00  0.00     0.036 A 
HETATM   26  C   UNL     1      22.750  48.216  49.186  1.00  0.00     0.057 A 
HETATM   27  C   UNL     1      21.643  48.851  48.662  1.00  0.00     0.106 A 
HETATM   28  C   UNL     1      21.740  50.022  47.948  1.00  0.00     0.105 A 
HETATM   29  O   UNL     1      20.359  48.416  48.772  1.00  0.00    -0.323 OA
HETATM   30  O   UNL     1      20.530  50.472  47.524  1.00  0.00    -0.323 OA
HETATM   31  C   UNL     1      22.954  50.627  47.709  1.00  0.00     0.041 A 
HETATM   32  C   UNL     1      19.658  49.448  48.045  1.00  0.00     0.352 A 
HETATM   33  C   UNL     1      24.099  50.008  48.224  1.00  0.00     0.020 A 
ENDBRANCH  22  25
ENDBRANCH   2  21
TORSDOF 6
ENDMDL
MODEL 8
REMARK VINA RESULT:      -8.7      4.076      9.678
REMARK  6 active torsions:
REMARK  status: ('A' for Active; 'I' for Inactive)
REMARK    1  A    between atoms: C_3  and  C_4 
REMARK    2  A    between atoms: C_4  and  N_5 
REMARK    3  A    between atoms: C_4  and  C_9 
REMARK       I    between atoms: N_5  and  C_6 
REMARK       I    between atoms: C_6  and  N_7 
REMARK    4  A    between atoms: C_9  and  C_10 
REMARK       I    between atoms: C_10  and  N_11 
REMARK    5  A    between atoms: N_11  and  N_12 
REMARK       I    between atoms: N_12  and  C_13 
REMARK    6  A    between atoms: C_13  and  C_14 
ROOT
HETATM    1  C   UNL     1      25.384  47.362  49.912  1.00  0.00     0.238 C 
HETATM    2  N   UNL     1      24.055  46.991  49.912  1.00  0.00    -0.267 N 
HETATM    3  O   UNL     1      25.742  48.533  49.785  1.00  0.00    -0.272 OA
HETATM    4  H   UNL     1      23.739  46.066  50.203  1.00  0.00     0.190 HD
ENDROOT
BRANCH   1   5
HETATM    5  C   UNL     1      26.333  46.190  50.019  1.00  0.00     0.134 C 
BRANCH   5   6
HETATM    6  C   UNL     1      25.832  45.148  51.035  1.00  0.00     0.129 C 
BRANCH   6   7
HETATM    7  C   UNL     1      26.789  44.950  52.208  1.00  0.00    -0.013 A 
HETATM    8  C   UNL     1      27.734  43.904  52.181  1.00  0.00     0.011 A 
HETATM    9  C   UNL     1      28.626  43.696  53.237  1.00  0.00     0.001 A 
HETATM   10  C   UNL     1      28.595  44.530  54.347  1.00  0.00     0.002 A 
HETATM   11  C   UNL     1      27.666  45.566  54.405  1.00  0.00     0.024 A 
HETATM   12  C   UNL     1      26.766  45.773  53.351  1.00  0.00     0.042 A 
HETATM   13 CL   UNL     1      25.649  47.081  53.539  1.00  0.00    -0.084 Cl
ENDBRANCH   6   7
BRANCH   6  14
HETATM   14  N   UNL     1      25.436  43.865  50.451  1.00  0.00    -0.339 N 
HETATM   15  C   UNL     1      24.162  43.402  50.376  1.00  0.00     0.292 C 
HETATM   16  N   UNL     1      24.104  42.158  49.837  1.00  0.00    -0.254 NA
HETATM   17  O   UNL     1      23.151  43.979  50.747  1.00  0.00    -0.254 OA
HETATM   18  H   UNL     1      24.754  41.964  49.088  1.00  0.00     0.128 HD
HETATM   19  H   UNL     1      23.158  41.840  49.668  1.00  0.00     0.128 HD
HETATM   20  H   UNL     1      26.126  43.131  50.541  1.00  0.00     0.164 HD
ENDBRANCH   6  14
ENDBRANCH   5   6
ENDBRANCH   1   5
BRANCH   2  21
HETATM   21  N   UNL     1      23.099  48.008  49.962  1.00  0.00    -0.263 N 
HETATM   22  C   UNL     1      22.366  48.278  48.827  1.00  0.00     0.270 C 
HETATM   23  O   UNL     1      22.531  47.672  47.771  1.00  0.00    -0.266 OA
HETATM   24  H   UNL     1      23.059  48.546  50.826  1.00  0.00     0.190 HD
BRANCH  22  25
HETATM   25  C   UNL     1      21.362  49.371  48.928  1.00  0.00     0.036 A 
HETATM   26  C   UNL     1      20.165  49.215  49.643  1.00  0.00     0.057 A 
HETATM   27  C   UNL     1      19.296  50.286  49.674  1.00  0.00     0.106 A 
HETATM   28  C   UNL     1      19.571  51.470  49.029  1.00  0.00     0.105 A 
HETATM   29  O   UNL     1      18.097  50.310  50.314  1.00  0.00    -0.323 OA
HETATM   30  O   UNL     1      18.580  52.387  49.189  1.00  0.00    -0.323 OA
HETATM   31  C   UNL     1      20.730  51.652  48.310  1.00  0.00     0.041 A 
HETATM   32  C   UNL     1      17.646  51.644  50.000  1.00  0.00     0.352 A 
HETATM   33  C   UNL     1      21.634  50.585  48.255  1.00  0.00     0.020 A 
ENDBRANCH  22  25
ENDBRANCH   2  21
TORSDOF 6
ENDMDL
MODEL 9
REMARK VINA RESULT:      -8.6      3.397      5.477
REMARK  6 active torsions:
REMARK  status: ('A' for Active; 'I' for Inactive)
REMARK    1  A    between atoms: C_3  and  C_4 
REMARK    2  A    between atoms: C_4  and  N_5 
REMARK    3  A    between atoms: C_4  and  C_9 
REMARK       I    between atoms: N_5  and  C_6 
REMARK       I    between atoms: C_6  and  N_7 
REMARK    4  A    between atoms: C_9  and  C_10 
REMARK       I    between atoms: C_10  and  N_11 
REMARK    5  A    between atoms: N_11  and  N_12 
REMARK       I    between atoms: N_12  and  C_13 
REMARK    6  A    between atoms: C_13  and  C_14 
ROOT
HETATM    1  C   UNL     1      22.966  46.514  48.626  1.00  0.00     0.238 C 
HETATM    2  N   UNL     1      23.426  46.891  49.872  1.00  0.00    -0.267 N 
HETATM    3  O   UNL     1      23.351  45.488  48.065  1.00  0.00    -0.272 OA
HETATM    4  H   UNL     1      22.984  47.625  50.426  1.00  0.00     0.190 HD
ENDROOT
BRANCH   1   5
HETATM    5  C   UNL     1      22.008  47.510  48.015  1.00  0.00     0.134 C 
BRANCH   5   6
HETATM    6  C   UNL     1      22.369  48.955  48.403  1.00  0.00     0.129 C 
BRANCH   6   7
HETATM    7  C   UNL     1      21.182  49.911  48.320  1.00  0.00    -0.013 A 
HETATM    8  C   UNL     1      20.276  49.821  47.244  1.00  0.00     0.011 A 
HETATM    9  C   UNL     1      19.178  50.679  47.139  1.00  0.00     0.001 A 
HETATM   10  C   UNL     1      18.957  51.648  48.108  1.00  0.00     0.002 A 
HETATM   11  C   UNL     1      19.840  51.765  49.178  1.00  0.00     0.024 A 
HETATM   12  C   UNL     1      20.946  50.911  49.284  1.00  0.00     0.042 A 
HETATM   13 CL   UNL     1      21.983  51.159  50.647  1.00  0.00    -0.084 Cl
ENDBRANCH   6   7
BRANCH   6  14
HETATM   14  N   UNL     1      23.539  49.500  47.710  1.00  0.00    -0.339 N 
HETATM   15  C   UNL     1      24.761  49.688  48.271  1.00  0.00     0.292 C 
HETATM   16  N   UNL     1      25.635  50.263  47.406  1.00  0.00    -0.254 NA
HETATM   17  O   UNL     1      25.091  49.411  49.414  1.00  0.00    -0.254 OA
HETATM   18  H   UNL     1      25.564  49.973  46.441  1.00  0.00     0.128 HD
HETATM   19  H   UNL     1      26.580  50.309  47.765  1.00  0.00     0.128 HD
HETATM   20  H   UNL     1      23.322  50.169  46.983  1.00  0.00     0.164 HD
ENDBRANCH   6  14
ENDBRANCH   5   6
ENDBRANCH   1   5
BRANCH   2  21
HETATM   21  N   UNL     1      24.202  45.972  50.581  1.00  0.00    -0.263 N 
HETATM   22  C   UNL     1      25.036  46.443  51.573  1.00  0.00     0.270 C 
HETATM   23  O   UNL     1      25.135  47.636  51.846  1.00  0.00    -0.266 OA
HETATM   24  H   UNL     1      24.160  45.006  50.262  1.00  0.00     0.190 HD
BRANCH  22  25
HETATM   25  C   UNL     1      25.845  45.426  52.298  1.00  0.00     0.036 A 
HETATM   26  C   UNL     1      26.125  44.168  51.744  1.00  0.00     0.057 A 
HETATM   27  C   UNL     1      26.878  43.293  52.497  1.00  0.00     0.106 A 
HETATM   28  C   UNL     1      27.343  43.617  53.750  1.00  0.00     0.105 A 
HETATM   29  O   UNL     1      27.242  42.038  52.119  1.00  0.00    -0.323 OA
HETATM   30  O   UNL     1      28.061  42.609  54.314  1.00  0.00    -0.323 OA
HETATM   31  C   UNL     1      27.076  44.838  54.328  1.00  0.00     0.041 A 
HETATM   32  C   UNL     1      27.989  41.609  53.277  1.00  0.00     0.352 A 
HETATM   33  C   UNL     1      26.312  45.751  53.593  1.00  0.00     0.020 A 
ENDBRANCH  22  25
ENDBRANCH   2  21
TORSDOF 6
ENDMDL
MODEL 10
REMARK VINA RESULT:      -8.5      5.346      7.470
REMARK  6 active torsions:
REMARK  status: ('A' for Active; 'I' for Inactive)
REMARK    1  A    between atoms: C_3  and  C_4 
REMARK    2  A    between atoms: C_4  and  N_5 
REMARK    3  A    between atoms: C_4  and  C_9 
REMARK       I    between atoms: N_5  and  C_6 
REMARK       I    between atoms: C_6  and  N_7 
REMARK    4  A    between atoms: C_9  and  C_10 
REMARK       I    between atoms: C_10  and  N_11 
REMARK    5  A    between atoms: N_11  and  N_12 
REMARK       I    between atoms: N_12  and  C_13 
REMARK    6  A    between atoms: C_13  and  C_14 
ROOT
HETATM    1  C   UNL     1      27.493  40.595  51.020  1.00  0.00     0.238 C 
HETATM    2  N   UNL     1      26.648  41.599  51.449  1.00  0.00    -0.267 N 
HETATM    3  O   UNL     1      28.631  40.456  51.468  1.00  0.00    -0.272 OA
HETATM    4  H   UNL     1      25.651  41.613  51.231  1.00  0.00     0.190 HD
ENDROOT
BRANCH   1   5
HETATM    5  C   UNL     1      26.902  39.744  49.919  1.00  0.00     0.134 C 
BRANCH   5   6
HETATM    6  C   UNL     1      27.931  38.741  49.366  1.00  0.00     0.129 C 
BRANCH   6   7
HETATM    7  C   UNL     1      27.617  38.288  47.942  1.00  0.00    -0.013 A 
HETATM    8  C   UNL     1      27.175  36.972  47.700  1.00  0.00     0.011 A 
HETATM    9  C   UNL     1      26.878  36.526  46.410  1.00  0.00     0.001 A 
HETATM   10  C   UNL     1      27.014  37.386  45.328  1.00  0.00     0.002 A 
HETATM   11  C   UNL     1      27.457  38.690  45.536  1.00  0.00     0.024 A 
HETATM   12  C   UNL     1      27.762  39.138  46.828  1.00  0.00     0.042 A 
HETATM   13 CL   UNL     1      28.317  40.772  46.964  1.00  0.00    -0.084 Cl
ENDBRANCH   6   7
BRANCH   6  14
HETATM   14  N   UNL     1      28.200  37.597  50.240  1.00  0.00    -0.339 N 
HETATM   15  C   UNL     1      29.433  37.204  50.653  1.00  0.00     0.292 C 
HETATM   16  N   UNL     1      29.381  36.078  51.408  1.00  0.00    -0.254 NA
HETATM   17  O   UNL     1      30.497  37.746  50.397  1.00  0.00    -0.254 OA
HETATM   18  H   UNL     1      28.591  35.994  52.032  1.00  0.00     0.128 HD
HETATM   19  H   UNL     1      30.272  35.831  51.819  1.00  0.00     0.128 HD
HETATM   20  H   UNL     1      27.545  36.833  50.145  1.00  0.00     0.164 HD
ENDBRANCH   6  14
ENDBRANCH   5   6
ENDBRANCH   1   5
BRANCH   2  21
HETATM   21  N   UNL     1      27.042  42.347  52.559  1.00  0.00    -0.263 N 
HETATM   22  C   UNL     1      27.575  43.602  52.351  1.00  0.00     0.270 C 
HETATM   23  O   UNL     1      27.731  44.079  51.230  1.00  0.00    -0.266 OA
HETATM   24  H   UNL     1      26.982  41.880  53.462  1.00  0.00     0.190 HD
BRANCH  22  25
HETATM   25  C   UNL     1      27.983  44.359  53.565  1.00  0.00     0.036 A 
HETATM   26  C   UNL     1      29.117  44.008  54.311  1.00  0.00     0.057 A 
HETATM   27  C   UNL     1      29.409  44.770  55.424  1.00  0.00     0.106 A 
HETATM   28  C   UNL     1      28.627  45.834  55.809  1.00  0.00     0.105 A 
HETATM   29  O   UNL     1      30.464  44.572  56.259  1.00  0.00    -0.323 OA
HETATM   30  O   UNL     1      29.096  46.441  56.931  1.00  0.00    -0.323 OA
HETATM   31  C   UNL     1      27.501  46.197  55.105  1.00  0.00     0.041 A 
HETATM   32  C   UNL     1      30.257  45.634  57.215  1.00  0.00     0.352 A 
HETATM   33  C   UNL     1      27.174  45.445  53.972  1.00  0.00     0.020 A 
ENDBRANCH  22  25
ENDBRANCH   2  21
TORSDOF 6
ENDMDL
