MODEL 1
REMARK VINA RESULT:      -9.4      0.000      0.000
REMARK  3 active torsions:
REMARK  status: ('A' for Active; 'I' for Inactive)
REMARK    1  A    between atoms: C_3  and  N_4 
REMARK       I    between atoms: N_4  and  C_5 
REMARK    2  A    between atoms: C_5  and  C_6 
REMARK    3  A    between atoms: C_7  and  C_8 
ROOT
HETATM    1  C   UNL     1      26.663  42.844  52.140  1.00  0.00     0.063 C 
HETATM    2  C   UNL     1      25.405  43.675  51.893  1.00  0.00     0.216 C 
HETATM    3  N   UNL     1      24.528  43.020  50.933  1.00  0.00    -0.091 N 
HETATM    4  C   UNL     1      24.934  42.042  50.072  1.00  0.00     0.735 A 
HETATM    5  N   UNL     1      26.200  41.586  50.159  1.00  0.00    -0.191 N 
HETATM    6  N   UNL     1      23.241  43.327  50.721  1.00  0.00     0.012 NA
HETATM    7  N   UNL     1      22.877  42.539  49.712  1.00  0.00     0.033 NA
HETATM    8  N   UNL     1      23.924  41.738  49.294  1.00  0.00     0.030 NA
HETATM    9  C   UNL     1      27.025  41.881  51.248  1.00  0.00     0.037 C 
HETATM   10  C   UNL     1      28.286  41.054  51.339  1.00  0.00     0.070 C 
HETATM   11  H   UNL     1      26.460  40.777  49.599  1.00  0.00     0.184 HD
ENDROOT
BRANCH   1  12
HETATM   12  C   UNL     1      27.362  42.980  53.466  1.00  0.00     0.256 C 
HETATM   13  N   UNL     1      28.468  43.798  53.476  1.00  0.00    -0.323 N 
HETATM   14  H   UNL     1      28.908  44.005  52.580  1.00  0.00     0.169 HD
HETATM   15  O   UNL     1      26.927  42.375  54.440  1.00  0.00    -0.267 OA
BRANCH  13  16
HETATM   16  C   UNL     1      29.254  44.158  54.598  1.00  0.00     0.041 A 
HETATM   17  C   UNL     1      29.130  45.338  55.352  1.00  0.00    -0.035 A 
HETATM   18  C   UNL     1      28.209  46.479  55.016  1.00  0.00     0.050 C 
HETATM   19  C   UNL     1      29.960  45.512  56.481  1.00  0.00     0.009 A 
HETATM   20  C   UNL     1      30.934  44.576  56.819  1.00  0.00     0.001 A 
HETATM   21  C   UNL     1      31.105  43.449  56.028  1.00  0.00     0.002 A 
HETATM   22  C   UNL     1      30.277  43.248  54.923  1.00  0.00     0.030 A 
ENDBRANCH  13  16
ENDBRANCH   1  12
BRANCH   2  23
HETATM   23  C   UNL     1      25.755  45.087  51.416  1.00  0.00     0.064 A 
HETATM   24  N   UNL     1      26.289  45.173  50.165  1.00  0.00    -0.263 NA
HETATM   25  C   UNL     1      26.612  46.402  49.695  1.00  0.00     0.117 A 
HETATM   26  C   UNL     1      26.380  47.574  50.387  1.00  0.00     0.019 A 
HETATM   27  C   UNL     1      25.788  47.485  51.638  1.00  0.00     0.003 A 
HETATM   28  C   UNL     1      25.466  46.234  52.160  1.00  0.00     0.030 A 
ENDBRANCH   2  23
TORSDOF 3
ENDMDL
MODEL 2
REMARK VINA RESULT:      -8.5      2.308      3.331
REMARK  3 active torsions:
REMARK  status: ('A' for Active; 'I' for Inactive)
REMARK    1  A    between atoms: C_3  and  N_4 
REMARK       I    between atoms: N_4  and  C_5 
REMARK    2  A    between atoms: C_5  and  C_6 
REMARK    3  A    between atoms: C_7  and  C_8 
ROOT
HETATM    1  C   UNL     1      25.056  44.963  50.528  1.00  0.00     0.063 C 
HETATM    2  C   UNL     1      24.255  46.135  49.961  1.00  0.00     0.216 C 
HETATM    3  N   UNL     1      23.447  45.712  48.826  1.00  0.00    -0.091 N 
HETATM    4  C   UNL     1      23.671  44.571  48.112  1.00  0.00     0.735 A 
HETATM    5  N   UNL     1      24.645  43.732  48.519  1.00  0.00    -0.191 N 
HETATM    6  N   UNL     1      22.430  46.406  48.296  1.00  0.00     0.012 NA
HETATM    7  N   UNL     1      22.052  45.683  47.244  1.00  0.00     0.033 NA
HETATM    8  N   UNL     1      22.821  44.541  47.115  1.00  0.00     0.030 NA
HETATM    9  C   UNL     1      25.252  43.847  49.773  1.00  0.00     0.037 C 
HETATM   10  C   UNL     1      26.092  42.663  50.189  1.00  0.00     0.070 C 
HETATM   11  H   UNL     1      24.726  42.829  48.056  1.00  0.00     0.184 HD
ENDROOT
BRANCH   1  12
HETATM   12  C   UNL     1      25.440  44.997  51.983  1.00  0.00     0.256 C 
HETATM   13  N   UNL     1      26.685  45.515  52.259  1.00  0.00    -0.323 N 
HETATM   14  H   UNL     1      27.357  45.555  51.494  1.00  0.00     0.169 HD
HETATM   15  O   UNL     1      24.653  44.574  52.823  1.00  0.00    -0.267 OA
BRANCH  13  16
HETATM   16  C   UNL     1      27.255  45.732  53.537  1.00  0.00     0.041 A 
HETATM   17  C   UNL     1      28.038  44.816  54.262  1.00  0.00    -0.035 A 
HETATM   18  C   UNL     1      28.304  43.395  53.845  1.00  0.00     0.050 C 
HETATM   19  C   UNL     1      28.580  45.218  55.501  1.00  0.00     0.009 A 
HETATM   20  C   UNL     1      28.301  46.470  56.045  1.00  0.00     0.001 A 
HETATM   21  C   UNL     1      27.467  47.343  55.363  1.00  0.00     0.002 A 
HETATM   22  C   UNL     1      26.942  46.972  54.124  1.00  0.00     0.030 A 
ENDBRANCH  13  16
ENDBRANCH   1  12
BRANCH   2  23
HETATM   23  C   UNL     1      25.172  47.293  49.557  1.00  0.00     0.064 A 
HETATM   24  N   UNL     1      26.505  47.007  49.521  1.00  0.00    -0.263 NA
HETATM   25  C   UNL     1      27.358  47.997  49.165  1.00  0.00     0.117 A 
HETATM   26  C   UNL     1      26.951  49.261  48.785  1.00  0.00     0.019 A 
HETATM   27  C   UNL     1      25.591  49.531  48.772  1.00  0.00     0.003 A 
HETATM   28  C   UNL     1      24.689  48.541  49.156  1.00  0.00     0.030 A 
ENDBRANCH   2  23
TORSDOF 3
ENDMDL
MODEL 3
REMARK VINA RESULT:      -8.3      1.460      2.228
REMARK  3 active torsions:
REMARK  status: ('A' for Active; 'I' for Inactive)
REMARK    1  A    between atoms: C_3  and  N_4 
REMARK       I    between atoms: N_4  and  C_5 
REMARK    2  A    between atoms: C_5  and  C_6 
REMARK    3  A    between atoms: C_7  and  C_8 
ROOT
HETATM    1  C   UNL     1      25.434  43.828  51.538  1.00  0.00     0.063 C 
HETATM    2  C   UNL     1      24.354  44.754  50.980  1.00  0.00     0.216 C 
HETATM    3  N   UNL     1      23.519  44.055  50.013  1.00  0.00    -0.091 N 
HETATM    4  C   UNL     1      23.881  42.898  49.385  1.00  0.00     0.735 A 
HETATM    5  N   UNL     1      25.045  42.311  49.731  1.00  0.00    -0.191 N 
HETATM    6  N   UNL     1      22.328  44.478  49.566  1.00  0.00     0.012 NA
HETATM    7  N   UNL     1      21.982  43.577  48.649  1.00  0.00     0.033 NA
HETATM    8  N   UNL     1      22.944  42.591  48.523  1.00  0.00     0.030 NA
HETATM    9  C   UNL     1      25.760  42.686  50.872  1.00  0.00     0.037 C 
HETATM   10  C   UNL     1      26.863  41.737  51.277  1.00  0.00     0.070 C 
HETATM   11  H   UNL     1      25.250  41.390  49.348  1.00  0.00     0.184 HD
ENDROOT
BRANCH   1  12
HETATM   12  C   UNL     1      25.972  44.106  52.916  1.00  0.00     0.256 C 
HETATM   13  N   UNL     1      27.282  44.522  52.972  1.00  0.00    -0.323 N 
HETATM   14  H   UNL     1      27.871  44.332  52.161  1.00  0.00     0.169 HD
HETATM   15  O   UNL     1      25.242  43.952  53.889  1.00  0.00    -0.267 OA
BRANCH  13  16
HETATM   16  C   UNL     1      28.003  44.922  54.123  1.00  0.00     0.041 A 
HETATM   17  C   UNL     1      29.071  44.226  54.716  1.00  0.00    -0.035 A 
HETATM   18  C   UNL     1      29.552  42.866  54.289  1.00  0.00     0.050 C 
HETATM   19  C   UNL     1      29.719  44.799  55.831  1.00  0.00     0.009 A 
HETATM   20  C   UNL     1      29.283  45.999  56.389  1.00  0.00     0.001 A 
HETATM   21  C   UNL     1      28.182  46.645  55.848  1.00  0.00     0.002 A 
HETATM   22  C   UNL     1      27.544  46.106  54.730  1.00  0.00     0.030 A 
ENDBRANCH  13  16
ENDBRANCH   1  12
BRANCH   2  23
HETATM   23  C   UNL     1      24.966  46.005  50.346  1.00  0.00     0.064 A 
HETATM   24  N   UNL     1      24.116  47.058  50.175  1.00  0.00    -0.263 NA
HETATM   25  C   UNL     1      24.611  48.191  49.622  1.00  0.00     0.117 A 
HETATM   26  C   UNL     1      25.937  48.359  49.272  1.00  0.00     0.019 A 
HETATM   27  C   UNL     1      26.809  47.304  49.496  1.00  0.00     0.003 A 
HETATM   28  C   UNL     1      26.326  46.116  50.042  1.00  0.00     0.030 A 
ENDBRANCH   2  23
TORSDOF 3
ENDMDL
MODEL 4
REMARK VINA RESULT:      -7.9     12.578     13.558
REMARK  3 active torsions:
REMARK  status: ('A' for Active; 'I' for Inactive)
REMARK    1  A    between atoms: C_3  and  N_4 
REMARK       I    between atoms: N_4  and  C_5 
REMARK    2  A    between atoms: C_5  and  C_6 
REMARK    3  A    between atoms: C_7  and  C_8 
ROOT
HETATM    1  C   UNL     1      29.807  48.934  40.811  1.00  0.00     0.063 C 
HETATM    2  C   UNL     1      28.481  49.694  40.805  1.00  0.00     0.216 C 
HETATM    3  N   UNL     1      27.427  48.896  40.195  1.00  0.00    -0.091 N 
HETATM    4  C   UNL     1      27.655  47.824  39.382  1.00  0.00     0.735 A 
HETATM    5  N   UNL     1      28.925  47.415  39.188  1.00  0.00    -0.191 N 
HETATM    6  N   UNL     1      26.113  49.140  40.293  1.00  0.00     0.012 NA
HETATM    7  N   UNL     1      25.548  48.217  39.518  1.00  0.00     0.033 NA
HETATM    8  N   UNL     1      26.498  47.395  38.940  1.00  0.00     0.030 NA
HETATM    9  C   UNL     1      29.984  47.871  39.978  1.00  0.00     0.037 C 
HETATM   10  C   UNL     1      31.272  47.095  39.833  1.00  0.00     0.070 C 
HETATM   11  H   UNL     1      29.078  46.546  38.681  1.00  0.00     0.184 HD
ENDROOT
BRANCH   1  12
HETATM   12  C   UNL     1      30.815  49.261  41.880  1.00  0.00     0.256 C 
HETATM   13  N   UNL     1      31.651  50.319  41.608  1.00  0.00    -0.323 N 
HETATM   14  H   UNL     1      31.745  50.606  40.634  1.00  0.00     0.169 HD
HETATM   15  O   UNL     1      30.841  48.591  42.907  1.00  0.00    -0.267 OA
BRANCH  13  16
HETATM   16  C   UNL     1      32.627  50.880  42.468  1.00  0.00     0.041 A 
HETATM   17  C   UNL     1      34.016  50.882  42.256  1.00  0.00    -0.035 A 
HETATM   18  C   UNL     1      34.713  50.176  41.124  1.00  0.00     0.050 C 
HETATM   19  C   UNL     1      34.844  51.541  43.189  1.00  0.00     0.009 A 
HETATM   20  C   UNL     1      34.321  52.126  44.340  1.00  0.00     0.001 A 
HETATM   21  C   UNL     1      32.958  52.057  44.584  1.00  0.00     0.002 A 
HETATM   22  C   UNL     1      32.121  51.432  43.660  1.00  0.00     0.030 A 
ENDBRANCH  13  16
ENDBRANCH   1  12
BRANCH   2  23
HETATM   23  C   UNL     1      28.613  51.039  40.086  1.00  0.00     0.064 A 
HETATM   24  N   UNL     1      28.918  52.106  40.879  1.00  0.00    -0.263 NA
HETATM   25  C   UNL     1      29.050  53.318  40.289  1.00  0.00     0.117 A 
HETATM   26  C   UNL     1      28.948  53.525  38.927  1.00  0.00     0.019 A 
HETATM   27  C   UNL     1      28.691  52.427  38.119  1.00  0.00     0.003 A 
HETATM   28  C   UNL     1      28.525  51.170  38.697  1.00  0.00     0.030 A 
ENDBRANCH   2  23
TORSDOF 3
ENDMDL
MODEL 5
REMARK VINA RESULT:      -7.8      5.422      8.927
REMARK  3 active torsions:
REMARK  status: ('A' for Active; 'I' for Inactive)
REMARK    1  A    between atoms: C_3  and  N_4 
REMARK       I    between atoms: N_4  and  C_5 
REMARK    2  A    between atoms: C_5  and  C_6 
REMARK    3  A    between atoms: C_7  and  C_8 
ROOT
HETATM    1  C   UNL     1      22.562  46.539  48.872  1.00  0.00     0.063 C 
HETATM    2  C   UNL     1      22.003  45.118  48.933  1.00  0.00     0.216 C 
HETATM    3  N   UNL     1      22.762  44.300  49.867  1.00  0.00    -0.091 N 
HETATM    4  C   UNL     1      24.018  44.606  50.305  1.00  0.00     0.735 A 
HETATM    5  N   UNL     1      24.570  45.776  49.923  1.00  0.00    -0.191 N 
HETATM    6  N   UNL     1      22.366  43.120  50.366  1.00  0.00     0.012 NA
HETATM    7  N   UNL     1      23.400  42.708  51.096  1.00  0.00     0.033 NA
HETATM    8  N   UNL     1      24.438  43.622  51.061  1.00  0.00     0.030 NA
HETATM    9  C   UNL     1      23.823  46.792  49.320  1.00  0.00     0.037 C 
HETATM   10  C   UNL     1      24.515  48.132  49.237  1.00  0.00     0.070 C 
HETATM   11  H   UNL     1      25.453  46.052  50.349  1.00  0.00     0.184 HD
ENDROOT
BRANCH   1  12
HETATM   12  C   UNL     1      21.630  47.660  48.497  1.00  0.00     0.256 C 
HETATM   13  N   UNL     1      21.205  48.455  49.536  1.00  0.00    -0.323 N 
HETATM   14  H   UNL     1      21.288  48.079  50.480  1.00  0.00     0.169 HD
HETATM   15  O   UNL     1      21.305  47.804  47.323  1.00  0.00    -0.267 OA
BRANCH  13  16
HETATM   16  C   UNL     1      20.395  49.614  49.448  1.00  0.00     0.041 A 
HETATM   17  C   UNL     1      20.774  50.850  48.897  1.00  0.00    -0.035 A 
HETATM   18  C   UNL     1      22.158  51.185  48.410  1.00  0.00     0.050 C 
HETATM   19  C   UNL     1      19.820  51.888  48.836  1.00  0.00     0.009 A 
HETATM   20  C   UNL     1      18.541  51.732  49.367  1.00  0.00     0.001 A 
HETATM   21  C   UNL     1      18.195  50.536  49.978  1.00  0.00     0.002 A 
HETATM   22  C   UNL     1      19.117  49.491  50.025  1.00  0.00     0.030 A 
ENDBRANCH  13  16
ENDBRANCH   1  12
BRANCH   2  23
HETATM   23  C   UNL     1      21.986  44.466  47.548  1.00  0.00     0.064 A 
HETATM   24  N   UNL     1      20.803  43.899  47.175  1.00  0.00    -0.263 NA
HETATM   25  C   UNL     1      20.736  43.313  45.956  1.00  0.00     0.117 A 
HETATM   26  C   UNL     1      21.778  43.305  45.049  1.00  0.00     0.019 A 
HETATM   27  C   UNL     1      22.962  43.929  45.412  1.00  0.00     0.003 A 
HETATM   28  C   UNL     1      23.071  44.520  46.669  1.00  0.00     0.030 A 
ENDBRANCH   2  23
TORSDOF 3
ENDMDL
MODEL 6
REMARK VINA RESULT:      -7.8     13.049     14.974
REMARK  3 active torsions:
REMARK  status: ('A' for Active; 'I' for Inactive)
REMARK    1  A    between atoms: C_3  and  N_4 
REMARK       I    between atoms: N_4  and  C_5 
REMARK    2  A    between atoms: C_5  and  C_6 
REMARK    3  A    between atoms: C_7  and  C_8 
ROOT
HETATM    1  C   UNL     1      31.448  51.223  41.111  1.00  0.00     0.063 C 
HETATM    2  C   UNL     1      31.146  50.638  39.732  1.00  0.00     0.216 C 
HETATM    3  N   UNL     1      30.278  51.523  38.969  1.00  0.00    -0.091 N 
HETATM    4  C   UNL     1      29.512  52.507  39.525  1.00  0.00     0.735 A 
HETATM    5  N   UNL     1      29.617  52.739  40.849  1.00  0.00    -0.191 N 
HETATM    6  N   UNL     1      30.064  51.453  37.647  1.00  0.00     0.012 NA
HETATM    7  N   UNL     1      29.150  52.391  37.412  1.00  0.00     0.033 NA
HETATM    8  N   UNL     1      28.793  53.050  38.575  1.00  0.00     0.030 NA
HETATM    9  C   UNL     1      30.651  52.202  41.621  1.00  0.00     0.037 C 
HETATM   10  C   UNL     1      30.796  52.799  43.001  1.00  0.00     0.070 C 
HETATM   11  H   UNL     1      29.136  53.550  41.235  1.00  0.00     0.184 HD
ENDROOT
BRANCH   1  12
HETATM   12  C   UNL     1      32.737  50.837  41.785  1.00  0.00     0.256 C 
HETATM   13  N   UNL     1      33.789  51.703  41.601  1.00  0.00    -0.323 N 
HETATM   14  H   UNL     1      33.733  52.352  40.816  1.00  0.00     0.169 HD
HETATM   15  O   UNL     1      32.784  49.804  42.444  1.00  0.00    -0.267 OA
BRANCH  13  16
HETATM   16  C   UNL     1      35.078  51.619  42.184  1.00  0.00     0.041 A 
HETATM   17  C   UNL     1      36.216  51.038  41.598  1.00  0.00    -0.035 A 
HETATM   18  C   UNL     1      36.225  50.297  40.289  1.00  0.00     0.050 C 
HETATM   19  C   UNL     1      37.441  51.093  42.296  1.00  0.00     0.009 A 
HETATM   20  C   UNL     1      37.528  51.648  43.571  1.00  0.00     0.001 A 
HETATM   21  C   UNL     1      36.387  52.152  44.177  1.00  0.00     0.002 A 
HETATM   22  C   UNL     1      35.172  52.129  43.492  1.00  0.00     0.030 A 
ENDBRANCH  13  16
ENDBRANCH   1  12
BRANCH   2  23
HETATM   23  C   UNL     1      30.519  49.245  39.843  1.00  0.00     0.064 A 
HETATM   24  N   UNL     1      29.499  49.125  40.740  1.00  0.00    -0.263 NA
HETATM   25  C   UNL     1      28.908  47.914  40.872  1.00  0.00     0.117 A 
HETATM   26  C   UNL     1      29.243  46.810  40.112  1.00  0.00     0.019 A 
HETATM   27  C   UNL     1      30.245  46.951  39.164  1.00  0.00     0.003 A 
HETATM   28  C   UNL     1      30.889  48.178  39.020  1.00  0.00     0.030 A 
ENDBRANCH   2  23
TORSDOF 3
ENDMDL
MODEL 7
REMARK VINA RESULT:      -7.7      4.198      8.152
REMARK  3 active torsions:
REMARK  status: ('A' for Active; 'I' for Inactive)
REMARK    1  A    between atoms: C_3  and  N_4 
REMARK       I    between atoms: N_4  and  C_5 
REMARK    2  A    between atoms: C_5  and  C_6 
REMARK    3  A    between atoms: C_7  and  C_8 
ROOT
HETATM    1  C   UNL     1      24.341  46.477  49.993  1.00  0.00     0.063 C 
HETATM    2  C   UNL     1      24.032  45.220  50.805  1.00  0.00     0.216 C 
HETATM    3  N   UNL     1      24.878  45.144  51.988  1.00  0.00    -0.091 N 
HETATM    4  C   UNL     1      26.041  45.841  52.141  1.00  0.00     0.735 A 
HETATM    5  N   UNL     1      26.401  46.720  51.184  1.00  0.00    -0.191 N 
HETATM    6  N   UNL     1      24.668  44.343  53.042  1.00  0.00     0.012 NA
HETATM    7  N   UNL     1      25.723  44.549  53.826  1.00  0.00     0.033 NA
HETATM    8  N   UNL     1      26.589  45.475  53.273  1.00  0.00     0.030 NA
HETATM    9  C   UNL     1      25.519  47.135  50.183  1.00  0.00     0.037 C 
HETATM   10  C   UNL     1      25.973  48.335  49.386  1.00  0.00     0.070 C 
HETATM   11  H   UNL     1      27.203  47.322  51.361  1.00  0.00     0.184 HD
ENDROOT
BRANCH   1  12
HETATM   12  C   UNL     1      23.249  47.066  49.142  1.00  0.00     0.256 C 
HETATM   13  N   UNL     1      22.610  48.166  49.667  1.00  0.00    -0.323 N 
HETATM   14  H   UNL     1      22.693  48.322  50.672  1.00  0.00     0.169 HD
HETATM   15  O   UNL     1      22.988  46.554  48.058  1.00  0.00    -0.267 OA
BRANCH  13  16
HETATM   16  C   UNL     1      21.610  48.952  49.045  1.00  0.00     0.041 A 
HETATM   17  C   UNL     1      21.808  50.182  48.393  1.00  0.00    -0.035 A 
HETATM   18  C   UNL     1      23.112  50.931  48.352  1.00  0.00     0.050 C 
HETATM   19  C   UNL     1      20.706  50.806  47.772  1.00  0.00     0.009 A 
HETATM   20  C   UNL     1      19.425  50.264  47.848  1.00  0.00     0.001 A 
HETATM   21  C   UNL     1      19.219  49.090  48.557  1.00  0.00     0.002 A 
HETATM   22  C   UNL     1      20.302  48.445  49.156  1.00  0.00     0.030 A 
ENDBRANCH  13  16
ENDBRANCH   1  12
BRANCH   2  23
HETATM   23  C   UNL     1      24.190  43.956  49.956  1.00  0.00     0.064 A 
HETATM   24  N   UNL     1      25.468  43.632  49.609  1.00  0.00    -0.263 NA
HETATM   25  C   UNL     1      25.661  42.519  48.862  1.00  0.00     0.117 A 
HETATM   26  C   UNL     1      24.645  41.665  48.479  1.00  0.00     0.019 A 
HETATM   27  C   UNL     1      23.353  41.970  48.880  1.00  0.00     0.003 A 
HETATM   28  C   UNL     1      23.118  43.121  49.629  1.00  0.00     0.030 A 
ENDBRANCH   2  23
TORSDOF 3
ENDMDL
MODEL 8
REMARK VINA RESULT:      -7.6      4.070      6.443
REMARK  3 active torsions:
REMARK  status: ('A' for Active; 'I' for Inactive)
REMARK    1  A    between atoms: C_3  and  N_4 
REMARK       I    between atoms: N_4  and  C_5 
REMARK    2  A    between atoms: C_5  and  C_6 
REMARK    3  A    between atoms: C_7  and  C_8 
ROOT
HETATM    1  C   UNL     1      23.206  46.631  48.842  1.00  0.00     0.063 C 
HETATM    2  C   UNL     1      23.359  47.986  49.530  1.00  0.00     0.216 C 
HETATM    3  N   UNL     1      22.276  48.885  49.157  1.00  0.00    -0.091 N 
HETATM    4  C   UNL     1      21.485  48.713  48.058  1.00  0.00     0.735 A 
HETATM    5  N   UNL     1      21.651  47.605  47.307  1.00  0.00    -0.191 N 
HETATM    6  N   UNL     1      21.954  50.020  49.793  1.00  0.00     0.012 NA
HETATM    7  N   UNL     1      20.974  50.542  49.060  1.00  0.00     0.033 NA
HETATM    8  N   UNL     1      20.677  49.740  47.972  1.00  0.00     0.030 NA
HETATM    9  C   UNL     1      22.406  46.513  47.746  1.00  0.00     0.037 C 
HETATM   10  C   UNL     1      22.240  45.252  46.932  1.00  0.00     0.070 C 
HETATM   11  H   UNL     1      20.981  47.424  46.562  1.00  0.00     0.184 HD
ENDROOT
BRANCH   1  12
HETATM   12  C   UNL     1      23.792  45.417  49.512  1.00  0.00     0.256 C 
HETATM   13  N   UNL     1      25.119  45.170  49.244  1.00  0.00    -0.323 N 
HETATM   14  H   UNL     1      25.522  45.612  48.419  1.00  0.00     0.169 HD
HETATM   15  O   UNL     1      23.082  44.730  50.238  1.00  0.00    -0.267 OA
BRANCH  13  16
HETATM   16  C   UNL     1      25.927  44.150  49.802  1.00  0.00     0.041 A 
HETATM   17  C   UNL     1      25.921  42.793  49.434  1.00  0.00    -0.035 A 
HETATM   18  C   UNL     1      24.959  42.173  48.457  1.00  0.00     0.050 C 
HETATM   19  C   UNL     1      26.838  41.918  50.054  1.00  0.00     0.009 A 
HETATM   20  C   UNL     1      27.695  42.356  51.061  1.00  0.00     0.001 A 
HETATM   21  C   UNL     1      27.646  43.679  51.474  1.00  0.00     0.002 A 
HETATM   22  C   UNL     1      26.763  44.564  50.856  1.00  0.00     0.030 A 
ENDBRANCH  13  16
ENDBRANCH   1  12
BRANCH   2  23
HETATM   23  C   UNL     1      24.713  48.624  49.210  1.00  0.00     0.064 A 
HETATM   24  N   UNL     1      25.780  48.122  49.894  1.00  0.00    -0.263 NA
HETATM   25  C   UNL     1      27.002  48.651  49.643  1.00  0.00     0.117 A 
HETATM   26  C   UNL     1      27.235  49.629  48.696  1.00  0.00     0.019 A 
HETATM   27  C   UNL     1      26.154  50.099  47.965  1.00  0.00     0.003 A 
HETATM   28  C   UNL     1      24.881  49.593  48.216  1.00  0.00     0.030 A 
ENDBRANCH   2  23
TORSDOF 3
ENDMDL
MODEL 9
REMARK VINA RESULT:      -7.5     12.578     15.594
REMARK  3 active torsions:
REMARK  status: ('A' for Active; 'I' for Inactive)
REMARK    1  A    between atoms: C_3  and  N_4 
REMARK       I    between atoms: N_4  and  C_5 
REMARK    2  A    between atoms: C_5  and  C_6 
REMARK    3  A    between atoms: C_7  and  C_8 
ROOT
HETATM    1  C   UNL     1      31.427  49.690  40.415  1.00  0.00     0.063 C 
HETATM    2  C   UNL     1      31.831  50.766  39.408  1.00  0.00     0.216 C 
HETATM    3  N   UNL     1      33.053  51.438  39.827  1.00  0.00    -0.091 N 
HETATM    4  C   UNL     1      33.537  51.418  41.103  1.00  0.00     0.735 A 
HETATM    5  N   UNL     1      32.901  50.667  42.025  1.00  0.00    -0.191 N 
HETATM    6  N   UNL     1      33.822  52.210  39.046  1.00  0.00     0.012 NA
HETATM    7  N   UNL     1      34.765  52.670  39.864  1.00  0.00     0.033 NA
HETATM    8  N   UNL     1      34.595  52.189  41.150  1.00  0.00     0.030 NA
HETATM    9  C   UNL     1      31.938  49.716  41.677  1.00  0.00     0.037 C 
HETATM   10  C   UNL     1      31.553  48.761  42.782  1.00  0.00     0.070 C 
HETATM   11  H   UNL     1      33.336  50.560  42.940  1.00  0.00     0.184 HD
ENDROOT
BRANCH   1  12
HETATM   12  C   UNL     1      30.625  48.515  39.923  1.00  0.00     0.256 C 
HETATM   13  N   UNL     1      29.271  48.578  40.158  1.00  0.00    -0.323 N 
HETATM   14  H   UNL     1      28.947  49.223  40.877  1.00  0.00     0.169 HD
HETATM   15  O   UNL     1      31.198  47.590  39.359  1.00  0.00    -0.267 OA
BRANCH  13  16
HETATM   16  C   UNL     1      28.287  47.651  39.733  1.00  0.00     0.041 A 
HETATM   17  C   UNL     1      27.325  47.865  38.730  1.00  0.00    -0.035 A 
HETATM   18  C   UNL     1      27.106  49.171  38.015  1.00  0.00     0.050 C 
HETATM   19  C   UNL     1      26.454  46.809  38.389  1.00  0.00     0.009 A 
HETATM   20  C   UNL     1      26.485  45.593  39.068  1.00  0.00     0.001 A 
HETATM   21  C   UNL     1      27.384  45.412  40.108  1.00  0.00     0.002 A 
HETATM   22  C   UNL     1      28.270  46.436  40.442  1.00  0.00     0.030 A 
ENDBRANCH  13  16
ENDBRANCH   1  12
BRANCH   2  23
HETATM   23  C   UNL     1      30.708  51.786  39.202  1.00  0.00     0.064 A 
HETATM   24  N   UNL     1      30.542  52.695  40.205  1.00  0.00    -0.263 NA
HETATM   25  C   UNL     1      29.563  53.621  40.068  1.00  0.00     0.117 A 
HETATM   26  C   UNL     1      28.763  53.732  38.948  1.00  0.00     0.019 A 
HETATM   27  C   UNL     1      28.970  52.839  37.908  1.00  0.00     0.003 A 
HETATM   28  C   UNL     1      29.953  51.858  38.028  1.00  0.00     0.030 A 
ENDBRANCH   2  23
TORSDOF 3
ENDMDL
MODEL 10
REMARK VINA RESULT:      -7.3     13.096     15.891
REMARK  3 active torsions:
REMARK  status: ('A' for Active; 'I' for Inactive)
REMARK    1  A    between atoms: C_3  and  N_4 
REMARK       I    between atoms: N_4  and  C_5 
REMARK    2  A    between atoms: C_5  and  C_6 
REMARK    3  A    between atoms: C_7  and  C_8 
ROOT
HETATM    1  C   UNL     1      31.640  51.654  40.250  1.00  0.00     0.063 C 
HETATM    2  C   UNL     1      31.894  50.531  41.255  1.00  0.00     0.216 C 
HETATM    3  N   UNL     1      30.658  49.832  41.577  1.00  0.00    -0.091 N 
HETATM    4  C   UNL     1      29.412  50.344  41.358  1.00  0.00     0.735 A 
HETATM    5  N   UNL     1      29.301  51.532  40.731  1.00  0.00    -0.191 N 
HETATM    6  N   UNL     1      30.576  48.639  42.184  1.00  0.00     0.012 NA
HETATM    7  N   UNL     1      29.270  48.442  42.345  1.00  0.00     0.033 NA
HETATM    8  N   UNL     1      28.534  49.500  41.841  1.00  0.00     0.030 NA
HETATM    9  C   UNL     1      30.377  52.131  40.070  1.00  0.00     0.037 C 
HETATM   10  C   UNL     1      30.014  53.289  39.172  1.00  0.00     0.070 C 
HETATM   11  H   UNL     1      28.370  51.849  40.463  1.00  0.00     0.184 HD
ENDROOT
BRANCH   1  12
HETATM   12  C   UNL     1      32.766  52.070  39.342  1.00  0.00     0.256 C 
HETATM   13  N   UNL     1      33.815  52.719  39.952  1.00  0.00    -0.323 N 
HETATM   14  H   UNL     1      33.644  53.131  40.868  1.00  0.00     0.169 HD
HETATM   15  O   UNL     1      32.695  51.821  38.143  1.00  0.00    -0.267 OA
BRANCH  13  16
HETATM   16  C   UNL     1      35.024  53.143  39.348  1.00  0.00     0.041 A 
HETATM   17  C   UNL     1      36.136  52.332  39.060  1.00  0.00    -0.035 A 
HETATM   18  C   UNL     1      36.270  50.887  39.457  1.00  0.00     0.050 C 
HETATM   19  C   UNL     1      37.242  52.906  38.399  1.00  0.00     0.009 A 
HETATM   20  C   UNL     1      37.279  54.264  38.089  1.00  0.00     0.001 A 
HETATM   21  C   UNL     1      36.213  55.077  38.442  1.00  0.00     0.002 A 
HETATM   22  C   UNL     1      35.100  54.521  39.074  1.00  0.00     0.030 A 
ENDBRANCH  13  16
ENDBRANCH   1  12
BRANCH   2  23
HETATM   23  C   UNL     1      32.552  51.063  42.531  1.00  0.00     0.064 A 
HETATM   24  N   UNL     1      33.912  51.165  42.496  1.00  0.00    -0.263 NA
HETATM   25  C   UNL     1      34.542  51.635  43.600  1.00  0.00     0.117 A 
HETATM   26  C   UNL     1      33.883  52.067  44.734  1.00  0.00     0.019 A 
HETATM   27  C   UNL     1      32.497  52.010  44.744  1.00  0.00     0.003 A 
HETATM   28  C   UNL     1      31.821  51.509  43.634  1.00  0.00     0.030 A 
ENDBRANCH   2  23
TORSDOF 3
ENDMDL
