MODEL 1
REMARK VINA RESULT:      -9.3      0.000      0.000
REMARK  8 active torsions:
REMARK  status: ('A' for Active; 'I' for Inactive)
REMARK    1  A    between atoms: C_7  and  C_8 
REMARK       I    between atoms: C_8  and  N_9 
REMARK    2  A    between atoms: N_9  and  S_10 
REMARK    3  A    between atoms: S_10  and  N_11 
REMARK    4  A    between atoms: N_11  and  C_12 
REMARK    5  A    between atoms: C_12  and  C_13 
REMARK    6  A    between atoms: C_13  and  C_14 
REMARK    7  A    between atoms: C_16  and  O_17 
REMARK    8  A    between atoms: C_19  and  O_20 
ROOT
HETATM    1  S   UNL     1      26.213  44.417  50.204  1.00  0.00     0.303 S 
HETATM    2  O   UNL     1      24.817  44.099  50.044  1.00  0.00    -0.188 OA
HETATM    3  O   UNL     1      27.237  43.645  49.540  1.00  0.00    -0.188 OA
ENDROOT
BRANCH   1   4
HETATM    4  N   UNL     1      26.428  45.984  49.735  1.00  0.00    -0.237 N 
HETATM    5  C   UNL     1      25.687  47.023  50.309  1.00  0.00     0.268 C 
HETATM    6  O   UNL     1      25.227  46.920  51.441  1.00  0.00    -0.267 OA
HETATM    7  H   UNL     1      26.580  46.020  48.737  1.00  0.00     0.183 HD
BRANCH   5   8
HETATM    8  C   UNL     1      25.478  48.212  49.475  1.00  0.00     0.067 A 
HETATM    9  C   UNL     1      26.411  49.110  48.949  1.00  0.00     0.022 A 
HETATM   10  C   UNL     1      27.891  49.229  49.055  1.00  0.00     0.069 C 
HETATM   11  N   UNL     1      25.718  50.047  48.215  1.00  0.00    -0.358 N 
HETATM   12  H   UNL     1      26.138  50.820  47.715  1.00  0.00     0.166 HD
HETATM   13  C   UNL     1      24.369  49.817  48.265  1.00  0.00     0.043 A 
HETATM   14  C   UNL     1      24.179  48.680  49.046  1.00  0.00     0.008 A 
HETATM   15  C   UNL     1      23.314  50.530  47.682  1.00  0.00     0.030 A 
HETATM   16  C   UNL     1      22.854  48.233  49.247  1.00  0.00     0.015 A 
HETATM   17  C   UNL     1      21.784  48.932  48.676  1.00  0.00     0.001 A 
HETATM   18  C   UNL     1      22.015  50.065  47.904  1.00  0.00     0.002 A 
ENDBRANCH   5   8
ENDBRANCH   1   4
BRANCH   1  19
HETATM   19  N   UNL     1      26.563  44.490  51.843  1.00  0.00    -0.202 NA
HETATM   20  H   UNL     1      25.691  44.759  52.320  1.00  0.00     0.141 HD
BRANCH  19  21
HETATM   21  C   UNL     1      27.060  43.223  52.443  1.00  0.00     0.110 C 
BRANCH  21  22
HETATM   22  C   UNL     1      28.584  43.138  52.485  1.00  0.00     0.054 C 
BRANCH  22  23
HETATM   23  C   UNL     1      29.104  43.727  53.776  1.00  0.00    -0.054 A 
HETATM   24  C   UNL     1      28.486  44.862  54.326  1.00  0.00     0.046 A 
HETATM   25  C   UNL     1      28.993  45.468  55.482  1.00  0.00     0.102 A 
HETATM   26  C   UNL     1      30.143  44.935  56.094  1.00  0.00     0.101 A 
HETATM   27  C   UNL     1      30.747  43.794  55.557  1.00  0.00     0.040 A 
HETATM   28  C   UNL     1      30.234  43.196  54.402  1.00  0.00     0.010 A 
BRANCH  25  29
HETATM   29  O   UNL     1      28.455  46.585  56.072  1.00  0.00    -0.353 OA
HETATM   30  C   UNL     1      27.451  47.290  55.354  1.00  0.00     0.210 C 
ENDBRANCH  25  29
BRANCH  26  31
HETATM   31  O   UNL     1      30.588  45.584  57.220  1.00  0.00    -0.353 OA
HETATM   32  C   UNL     1      31.105  44.777  58.268  1.00  0.00     0.210 C 
ENDBRANCH  26  31
ENDBRANCH  22  23
ENDBRANCH  21  22
ENDBRANCH  19  21
ENDBRANCH   1  19
TORSDOF 8
ENDMDL
MODEL 2
REMARK VINA RESULT:      -9.1      2.549      8.294
REMARK  8 active torsions:
REMARK  status: ('A' for Active; 'I' for Inactive)
REMARK    1  A    between atoms: C_7  and  C_8 
REMARK       I    between atoms: C_8  and  N_9 
REMARK    2  A    between atoms: N_9  and  S_10 
REMARK    3  A    between atoms: S_10  and  N_11 
REMARK    4  A    between atoms: N_11  and  C_12 
REMARK    5  A    between atoms: C_12  and  C_13 
REMARK    6  A    between atoms: C_13  and  C_14 
REMARK    7  A    between atoms: C_16  and  O_17 
REMARK    8  A    between atoms: C_19  and  O_20 
ROOT
HETATM    1  S   UNL     1      27.223  42.576  50.619  1.00  0.00     0.303 S 
HETATM    2  O   UNL     1      27.193  43.431  49.460  1.00  0.00    -0.188 OA
HETATM    3  O   UNL     1      27.705  41.217  50.535  1.00  0.00    -0.188 OA
ENDROOT
BRANCH   1   4
HETATM    4  N   UNL     1      28.134  43.326  51.772  1.00  0.00    -0.237 N 
HETATM    5  C   UNL     1      27.973  43.031  53.132  1.00  0.00     0.268 C 
HETATM    6  O   UNL     1      27.539  41.943  53.495  1.00  0.00    -0.267 OA
HETATM    7  H   UNL     1      28.267  44.294  51.522  1.00  0.00     0.183 HD
BRANCH   5   8
HETATM    8  C   UNL     1      28.325  44.098  54.075  1.00  0.00     0.067 A 
HETATM    9  C   UNL     1      27.754  45.363  54.248  1.00  0.00     0.022 A 
HETATM   10  C   UNL     1      26.656  46.094  53.559  1.00  0.00     0.069 C 
HETATM   11  N   UNL     1      28.427  45.985  55.275  1.00  0.00    -0.358 N 
HETATM   12  H   UNL     1      28.226  46.914  55.623  1.00  0.00     0.166 HD
HETATM   13  C   UNL     1      29.434  45.194  55.760  1.00  0.00     0.043 A 
HETATM   14  C   UNL     1      29.404  44.007  55.033  1.00  0.00     0.008 A 
HETATM   15  C   UNL     1      30.362  45.443  56.779  1.00  0.00     0.030 A 
HETATM   16  C   UNL     1      30.358  43.014  55.352  1.00  0.00     0.015 A 
HETATM   17  C   UNL     1      31.295  43.244  56.366  1.00  0.00     0.001 A 
HETATM   18  C   UNL     1      31.295  44.443  57.068  1.00  0.00     0.002 A 
ENDBRANCH   5   8
ENDBRANCH   1   4
BRANCH   1  19
HETATM   19  N   UNL     1      25.701  42.570  51.322  1.00  0.00    -0.202 NA
HETATM   20  H   UNL     1      25.817  42.203  52.278  1.00  0.00     0.141 HD
BRANCH  19  21
HETATM   21  C   UNL     1      25.034  43.897  51.402  1.00  0.00     0.110 C 
BRANCH  21  22
HETATM   22  C   UNL     1      24.116  44.178  50.215  1.00  0.00     0.054 C 
BRANCH  22  23
HETATM   23  C   UNL     1      24.202  45.636  49.823  1.00  0.00    -0.054 A 
HETATM   24  C   UNL     1      25.365  46.370  50.111  1.00  0.00     0.046 A 
HETATM   25  C   UNL     1      25.441  47.737  49.823  1.00  0.00     0.102 A 
HETATM   26  C   UNL     1      24.334  48.385  49.244  1.00  0.00     0.101 A 
HETATM   27  C   UNL     1      23.183  47.650  48.940  1.00  0.00     0.040 A 
HETATM   28  C   UNL     1      23.116  46.285  49.232  1.00  0.00     0.010 A 
BRANCH  25  29
HETATM   29  O   UNL     1      26.534  48.525  50.086  1.00  0.00    -0.353 OA
HETATM   30  C   UNL     1      27.554  48.589  49.098  1.00  0.00     0.210 C 
ENDBRANCH  25  29
BRANCH  26  31
HETATM   31  O   UNL     1      24.477  49.728  48.995  1.00  0.00    -0.353 OA
HETATM   32  C   UNL     1      23.589  50.307  48.051  1.00  0.00     0.210 C 
ENDBRANCH  26  31
ENDBRANCH  22  23
ENDBRANCH  21  22
ENDBRANCH  19  21
ENDBRANCH   1  19
TORSDOF 8
ENDMDL
MODEL 3
REMARK VINA RESULT:      -9.1      2.468      9.421
REMARK  8 active torsions:
REMARK  status: ('A' for Active; 'I' for Inactive)
REMARK    1  A    between atoms: C_7  and  C_8 
REMARK       I    between atoms: C_8  and  N_9 
REMARK    2  A    between atoms: N_9  and  S_10 
REMARK    3  A    between atoms: S_10  and  N_11 
REMARK    4  A    between atoms: N_11  and  C_12 
REMARK    5  A    between atoms: C_12  and  C_13 
REMARK    6  A    between atoms: C_13  and  C_14 
REMARK    7  A    between atoms: C_16  and  O_17 
REMARK    8  A    between atoms: C_19  and  O_20 
ROOT
HETATM    1  S   UNL     1      26.245  45.159  50.510  1.00  0.00     0.303 S 
HETATM    2  O   UNL     1      27.103  45.608  49.442  1.00  0.00    -0.188 OA
HETATM    3  O   UNL     1      25.458  43.956  50.383  1.00  0.00    -0.188 OA
ENDROOT
BRANCH   1   4
HETATM    4  N   UNL     1      27.179  44.969  51.857  1.00  0.00    -0.237 N 
HETATM    5  C   UNL     1      26.626  45.038  53.141  1.00  0.00     0.268 C 
HETATM    6  O   UNL     1      25.444  44.774  53.335  1.00  0.00    -0.267 OA
HETATM    7  H   UNL     1      28.074  45.414  51.714  1.00  0.00     0.183 HD
BRANCH   5   8
HETATM    8  C   UNL     1      27.529  45.465  54.216  1.00  0.00     0.067 A 
HETATM    9  C   UNL     1      27.499  46.622  55.001  1.00  0.00     0.022 A 
HETATM   10  C   UNL     1      26.617  47.820  55.027  1.00  0.00     0.069 C 
HETATM   11  N   UNL     1      28.552  46.550  55.885  1.00  0.00    -0.358 N 
HETATM   12  H   UNL     1      28.776  47.250  56.581  1.00  0.00     0.166 HD
HETATM   13  C   UNL     1      29.287  45.411  55.691  1.00  0.00     0.043 A 
HETATM   14  C   UNL     1      28.680  44.708  54.654  1.00  0.00     0.008 A 
HETATM   15  C   UNL     1      30.436  44.958  56.352  1.00  0.00     0.030 A 
HETATM   16  C   UNL     1      29.259  43.480  54.262  1.00  0.00     0.015 A 
HETATM   17  C   UNL     1      30.408  43.010  54.908  1.00  0.00     0.001 A 
HETATM   18  C   UNL     1      30.987  43.742  55.939  1.00  0.00     0.002 A 
ENDBRANCH   5   8
ENDBRANCH   1   4
BRANCH   1  19
HETATM   19  N   UNL     1      25.238  46.424  50.957  1.00  0.00    -0.202 NA
HETATM   20  H   UNL     1      25.849  47.201  51.248  1.00  0.00     0.141 HD
BRANCH  19  21
HETATM   21  C   UNL     1      24.323  46.913  49.891  1.00  0.00     0.110 C 
BRANCH  21  22
HETATM   22  C   UNL     1      24.719  48.283  49.345  1.00  0.00     0.054 C 
BRANCH  22  23
HETATM   23  C   UNL     1      23.484  49.098  49.037  1.00  0.00    -0.054 A 
HETATM   24  C   UNL     1      22.238  48.462  48.917  1.00  0.00     0.046 A 
HETATM   25  C   UNL     1      21.093  49.184  48.562  1.00  0.00     0.102 A 
HETATM   26  C   UNL     1      21.196  50.566  48.314  1.00  0.00     0.101 A 
HETATM   27  C   UNL     1      22.434  51.204  48.452  1.00  0.00     0.040 A 
HETATM   28  C   UNL     1      23.572  50.473  48.806  1.00  0.00     0.010 A 
BRANCH  25  29
HETATM   29  O   UNL     1      19.844  48.634  48.410  1.00  0.00    -0.353 OA
HETATM   30  C   UNL     1      19.194  48.144  49.576  1.00  0.00     0.210 C 
ENDBRANCH  25  29
BRANCH  26  31
HETATM   31  O   UNL     1      20.035  51.210  47.963  1.00  0.00    -0.353 OA
HETATM   32  C   UNL     1      19.415  52.010  48.960  1.00  0.00     0.210 C 
ENDBRANCH  26  31
ENDBRANCH  22  23
ENDBRANCH  21  22
ENDBRANCH  19  21
ENDBRANCH   1  19
TORSDOF 8
ENDMDL
MODEL 4
REMARK VINA RESULT:      -8.8      2.329      9.290
REMARK  8 active torsions:
REMARK  status: ('A' for Active; 'I' for Inactive)
REMARK    1  A    between atoms: C_7  and  C_8 
REMARK       I    between atoms: C_8  and  N_9 
REMARK    2  A    between atoms: N_9  and  S_10 
REMARK    3  A    between atoms: S_10  and  N_11 
REMARK    4  A    between atoms: N_11  and  C_12 
REMARK    5  A    between atoms: C_12  and  C_13 
REMARK    6  A    between atoms: C_13  and  C_14 
REMARK    7  A    between atoms: C_16  and  O_17 
REMARK    8  A    between atoms: C_19  and  O_20 
ROOT
HETATM    1  S   UNL     1      26.680  45.386  49.913  1.00  0.00     0.303 S 
HETATM    2  O   UNL     1      27.604  46.145  49.109  1.00  0.00    -0.188 OA
HETATM    3  O   UNL     1      25.651  44.576  49.307  1.00  0.00    -0.188 OA
ENDROOT
BRANCH   1   4
HETATM    4  N   UNL     1      27.563  44.380  50.877  1.00  0.00    -0.237 N 
HETATM    5  C   UNL     1      27.101  43.992  52.141  1.00  0.00     0.268 C 
HETATM    6  O   UNL     1      25.902  43.970  52.395  1.00  0.00    -0.267 OA
HETATM    7  H   UNL     1      28.544  44.604  50.792  1.00  0.00     0.183 HD
BRANCH   5   8
HETATM    8  C   UNL     1      28.128  43.645  53.130  1.00  0.00     0.067 A 
HETATM    9  C   UNL     1      28.850  42.458  53.291  1.00  0.00     0.022 A 
HETATM   10  C   UNL     1      28.834  41.146  52.588  1.00  0.00     0.069 C 
HETATM   11  N   UNL     1      29.709  42.636  54.352  1.00  0.00    -0.358 N 
HETATM   12  H   UNL     1      30.359  41.941  54.696  1.00  0.00     0.166 HD
HETATM   13  C   UNL     1      29.557  43.876  54.912  1.00  0.00     0.043 A 
HETATM   14  C   UNL     1      28.575  44.536  54.177  1.00  0.00     0.008 A 
HETATM   15  C   UNL     1      30.211  44.455  56.006  1.00  0.00     0.030 A 
HETATM   16  C   UNL     1      28.236  45.853  54.563  1.00  0.00     0.015 A 
HETATM   17  C   UNL     1      28.876  46.449  55.656  1.00  0.00     0.001 A 
HETATM   18  C   UNL     1      29.850  45.757  56.366  1.00  0.00     0.002 A 
ENDBRANCH   5   8
ENDBRANCH   1   4
BRANCH   1  19
HETATM   19  N   UNL     1      25.973  46.415  51.034  1.00  0.00    -0.202 NA
HETATM   20  H   UNL     1      26.696  47.096  51.308  1.00  0.00     0.141 HD
BRANCH  19  21
HETATM   21  C   UNL     1      24.780  47.158  50.549  1.00  0.00     0.110 C 
BRANCH  21  22
HETATM   22  C   UNL     1      25.122  48.232  49.518  1.00  0.00     0.054 C 
BRANCH  22  23
HETATM   23  C   UNL     1      23.872  48.974  49.105  1.00  0.00    -0.054 A 
HETATM   24  C   UNL     1      22.642  48.298  49.053  1.00  0.00     0.046 A 
HETATM   25  C   UNL     1      21.484  48.945  48.605  1.00  0.00     0.102 A 
HETATM   26  C   UNL     1      21.558  50.288  48.192  1.00  0.00     0.101 A 
HETATM   27  C   UNL     1      22.780  50.967  48.260  1.00  0.00     0.040 A 
HETATM   28  C   UNL     1      23.930  50.313  48.709  1.00  0.00     0.010 A 
BRANCH  25  29
HETATM   29  O   UNL     1      20.250  48.350  48.512  1.00  0.00    -0.353 OA
HETATM   30  C   UNL     1      19.475  48.252  49.700  1.00  0.00     0.210 C 
ENDBRANCH  25  29
BRANCH  26  31
HETATM   31  O   UNL     1      20.386  50.857  47.757  1.00  0.00    -0.353 OA
HETATM   32  C   UNL     1      19.850  51.911  48.544  1.00  0.00     0.210 C 
ENDBRANCH  26  31
ENDBRANCH  22  23
ENDBRANCH  21  22
ENDBRANCH  19  21
ENDBRANCH   1  19
TORSDOF 8
ENDMDL
MODEL 5
REMARK VINA RESULT:      -8.8      2.568      7.789
REMARK  8 active torsions:
REMARK  status: ('A' for Active; 'I' for Inactive)
REMARK    1  A    between atoms: C_7  and  C_8 
REMARK       I    between atoms: C_8  and  N_9 
REMARK    2  A    between atoms: N_9  and  S_10 
REMARK    3  A    between atoms: S_10  and  N_11 
REMARK    4  A    between atoms: N_11  and  C_12 
REMARK    5  A    between atoms: C_12  and  C_13 
REMARK    6  A    between atoms: C_13  and  C_14 
REMARK    7  A    between atoms: C_16  and  O_17 
REMARK    8  A    between atoms: C_19  and  O_20 
ROOT
HETATM    1  S   UNL     1      27.131  42.474  50.608  1.00  0.00     0.303 S 
HETATM    2  O   UNL     1      27.894  41.329  50.179  1.00  0.00    -0.188 OA
HETATM    3  O   UNL     1      25.828  42.322  51.211  1.00  0.00    -0.188 OA
ENDROOT
BRANCH   1   4
HETATM    4  N   UNL     1      28.052  43.314  51.688  1.00  0.00    -0.237 N 
HETATM    5  C   UNL     1      28.041  43.000  53.053  1.00  0.00     0.268 C 
HETATM    6  O   UNL     1      27.759  41.871  53.438  1.00  0.00    -0.267 OA
HETATM    7  H   UNL     1      28.059  44.292  51.439  1.00  0.00     0.183 HD
BRANCH   5   8
HETATM    8  C   UNL     1      28.358  44.096  53.975  1.00  0.00     0.067 A 
HETATM    9  C   UNL     1      29.411  44.222  54.886  1.00  0.00     0.022 A 
HETATM   10  C   UNL     1      30.535  43.330  55.282  1.00  0.00     0.069 C 
HETATM   11  N   UNL     1      29.282  45.445  55.505  1.00  0.00    -0.358 N 
HETATM   12  H   UNL     1      29.908  45.808  56.211  1.00  0.00     0.166 HD
HETATM   13  C   UNL     1      28.171  46.111  55.059  1.00  0.00     0.043 A 
HETATM   14  C   UNL     1      27.566  45.299  54.104  1.00  0.00     0.008 A 
HETATM   15  C   UNL     1      27.663  47.362  55.432  1.00  0.00     0.030 A 
HETATM   16  C   UNL     1      26.386  45.773  53.487  1.00  0.00     0.015 A 
HETATM   17  C   UNL     1      25.860  47.019  53.847  1.00  0.00     0.001 A 
HETATM   18  C   UNL     1      26.493  47.801  54.806  1.00  0.00     0.002 A 
ENDBRANCH   5   8
ENDBRANCH   1   4
BRANCH   1  19
HETATM   19  N   UNL     1      27.017  43.553  49.329  1.00  0.00    -0.202 NA
HETATM   20  H   UNL     1      26.751  43.003  48.500  1.00  0.00     0.141 HD
BRANCH  19  21
HETATM   21  C   UNL     1      26.026  44.647  49.509  1.00  0.00     0.110 C 
BRANCH  21  22
HETATM   22  C   UNL     1      26.660  45.962  49.956  1.00  0.00     0.054 C 
BRANCH  22  23
HETATM   23  C   UNL     1      25.764  47.124  49.593  1.00  0.00    -0.054 A 
HETATM   24  C   UNL     1      24.372  46.942  49.535  1.00  0.00     0.046 A 
HETATM   25  C   UNL     1      23.527  47.982  49.131  1.00  0.00     0.102 A 
HETATM   26  C   UNL     1      24.083  49.224  48.770  1.00  0.00     0.101 A 
HETATM   27  C   UNL     1      25.468  49.411  48.846  1.00  0.00     0.040 A 
HETATM   28  C   UNL     1      26.303  48.366  49.250  1.00  0.00     0.010 A 
BRANCH  25  29
HETATM   29  O   UNL     1      22.161  47.880  49.034  1.00  0.00    -0.353 OA
HETATM   30  C   UNL     1      21.631  47.169  47.924  1.00  0.00     0.210 C 
ENDBRANCH  25  29
BRANCH  26  31
HETATM   31  O   UNL     1      23.197  50.197  48.378  1.00  0.00    -0.353 OA
HETATM   32  C   UNL     1      22.759  51.111  49.373  1.00  0.00     0.210 C 
ENDBRANCH  26  31
ENDBRANCH  22  23
ENDBRANCH  21  22
ENDBRANCH  19  21
ENDBRANCH   1  19
TORSDOF 8
ENDMDL
MODEL 6
REMARK VINA RESULT:      -8.8      3.972      7.683
REMARK  8 active torsions:
REMARK  status: ('A' for Active; 'I' for Inactive)
REMARK    1  A    between atoms: C_7  and  C_8 
REMARK       I    between atoms: C_8  and  N_9 
REMARK    2  A    between atoms: N_9  and  S_10 
REMARK    3  A    between atoms: S_10  and  N_11 
REMARK    4  A    between atoms: N_11  and  C_12 
REMARK    5  A    between atoms: C_12  and  C_13 
REMARK    6  A    between atoms: C_13  and  C_14 
REMARK    7  A    between atoms: C_16  and  O_17 
REMARK    8  A    between atoms: C_19  and  O_20 
ROOT
HETATM    1  S   UNL     1      25.536  46.301  50.706  1.00  0.00     0.303 S 
HETATM    2  O   UNL     1      24.896  47.489  51.212  1.00  0.00    -0.188 OA
HETATM    3  O   UNL     1      26.221  46.303  49.436  1.00  0.00    -0.188 OA
ENDROOT
BRANCH   1   4
HETATM    4  N   UNL     1      26.636  45.805  51.832  1.00  0.00    -0.237 N 
HETATM    5  C   UNL     1      26.259  45.557  53.157  1.00  0.00     0.268 C 
HETATM    6  O   UNL     1      25.108  45.239  53.437  1.00  0.00    -0.267 OA
HETATM    7  H   UNL     1      27.512  46.283  51.682  1.00  0.00     0.183 HD
BRANCH   5   8
HETATM    8  C   UNL     1      27.304  45.726  54.173  1.00  0.00     0.067 A 
HETATM    9  C   UNL     1      27.490  46.755  55.102  1.00  0.00     0.022 A 
HETATM   10  C   UNL     1      26.767  48.025  55.382  1.00  0.00     0.069 C 
HETATM   11  N   UNL     1      28.604  46.444  55.848  1.00  0.00    -0.358 N 
HETATM   12  H   UNL     1      28.977  47.009  56.601  1.00  0.00     0.166 HD
HETATM   13  C   UNL     1      29.173  45.272  55.426  1.00  0.00     0.043 A 
HETATM   14  C   UNL     1      28.390  44.794  54.379  1.00  0.00     0.008 A 
HETATM   15  C   UNL     1      30.315  44.607  55.892  1.00  0.00     0.030 A 
HETATM   16  C   UNL     1      28.775  43.579  53.768  1.00  0.00     0.015 A 
HETATM   17  C   UNL     1      29.914  42.901  54.217  1.00  0.00     0.001 A 
HETATM   18  C   UNL     1      30.672  43.410  55.265  1.00  0.00     0.002 A 
ENDBRANCH   5   8
ENDBRANCH   1   4
BRANCH   1  19
HETATM   19  N   UNL     1      24.425  45.044  50.724  1.00  0.00    -0.202 NA
HETATM   20  H   UNL     1      23.551  45.416  50.326  1.00  0.00     0.141 HD
BRANCH  19  21
HETATM   21  C   UNL     1      24.821  43.837  49.951  1.00  0.00     0.110 C 
BRANCH  21  22
HETATM   22  C   UNL     1      24.943  42.585  50.817  1.00  0.00     0.054 C 
BRANCH  22  23
HETATM   23  C   UNL     1      26.142  41.769  50.389  1.00  0.00    -0.054 A 
HETATM   24  C   UNL     1      26.263  41.352  49.053  1.00  0.00     0.046 A 
HETATM   25  C   UNL     1      27.325  40.536  48.648  1.00  0.00     0.102 A 
HETATM   26  C   UNL     1      28.280  40.122  49.596  1.00  0.00     0.101 A 
HETATM   27  C   UNL     1      28.169  40.553  50.923  1.00  0.00     0.040 A 
HETATM   28  C   UNL     1      27.104  41.367  51.318  1.00  0.00     0.010 A 
BRANCH  25  29
HETATM   29  O   UNL     1      27.506  40.076  47.367  1.00  0.00    -0.353 OA
HETATM   30  C   UNL     1      27.860  41.025  46.370  1.00  0.00     0.210 C 
ENDBRANCH  25  29
BRANCH  26  31
HETATM   31  O   UNL     1      29.290  39.318  49.130  1.00  0.00    -0.353 OA
HETATM   32  C   UNL     1      29.400  38.023  49.703  1.00  0.00     0.210 C 
ENDBRANCH  26  31
ENDBRANCH  22  23
ENDBRANCH  21  22
ENDBRANCH  19  21
ENDBRANCH   1  19
TORSDOF 8
ENDMDL
MODEL 7
REMARK VINA RESULT:      -8.5      2.633      7.535
REMARK  8 active torsions:
REMARK  status: ('A' for Active; 'I' for Inactive)
REMARK    1  A    between atoms: C_7  and  C_8 
REMARK       I    between atoms: C_8  and  N_9 
REMARK    2  A    between atoms: N_9  and  S_10 
REMARK    3  A    between atoms: S_10  and  N_11 
REMARK    4  A    between atoms: N_11  and  C_12 
REMARK    5  A    between atoms: C_12  and  C_13 
REMARK    6  A    between atoms: C_13  and  C_14 
REMARK    7  A    between atoms: C_16  and  O_17 
REMARK    8  A    between atoms: C_19  and  O_20 
ROOT
HETATM    1  S   UNL     1      27.172  42.911  50.289  1.00  0.00     0.303 S 
HETATM    2  O   UNL     1      26.919  43.910  49.281  1.00  0.00    -0.188 OA
HETATM    3  O   UNL     1      27.835  41.671  49.964  1.00  0.00    -0.188 OA
ENDROOT
BRANCH   1   4
HETATM    4  N   UNL     1      28.060  43.620  51.484  1.00  0.00    -0.237 N 
HETATM    5  C   UNL     1      27.968  43.187  52.813  1.00  0.00     0.268 C 
HETATM    6  O   UNL     1      27.631  42.039  53.081  1.00  0.00    -0.267 OA
HETATM    7  H   UNL     1      28.110  44.615  51.325  1.00  0.00     0.183 HD
BRANCH   5   8
HETATM    8  C   UNL     1      28.270  44.185  53.845  1.00  0.00     0.067 A 
HETATM    9  C   UNL     1      29.279  44.194  54.813  1.00  0.00     0.022 A 
HETATM   10  C   UNL     1      30.354  43.233  55.180  1.00  0.00     0.069 C 
HETATM   11  N   UNL     1      29.154  45.361  55.532  1.00  0.00    -0.358 N 
HETATM   12  H   UNL     1      29.754  45.639  56.298  1.00  0.00     0.166 HD
HETATM   13  C   UNL     1      28.087  46.101  55.096  1.00  0.00     0.043 A 
HETATM   14  C   UNL     1      27.508  45.398  54.044  1.00  0.00     0.008 A 
HETATM   15  C   UNL     1      27.598  47.331  55.556  1.00  0.00     0.030 A 
HETATM   16  C   UNL     1      26.375  45.965  53.416  1.00  0.00     0.015 A 
HETATM   17  C   UNL     1      25.869  47.191  53.861  1.00  0.00     0.001 A 
HETATM   18  C   UNL     1      26.475  47.863  54.917  1.00  0.00     0.002 A 
ENDBRANCH   5   8
ENDBRANCH   1   4
BRANCH   1  19
HETATM   19  N   UNL     1      25.732  42.568  51.077  1.00  0.00    -0.202 NA
HETATM   20  H   UNL     1      25.513  43.386  51.665  1.00  0.00     0.141 HD
BRANCH  19  21
HETATM   21  C   UNL     1      24.570  42.300  50.189  1.00  0.00     0.110 C 
BRANCH  21  22
HETATM   22  C   UNL     1      23.317  43.075  50.590  1.00  0.00     0.054 C 
BRANCH  22  23
HETATM   23  C   UNL     1      23.336  44.453  49.969  1.00  0.00    -0.054 A 
HETATM   24  C   UNL     1      24.209  45.434  50.469  1.00  0.00     0.046 A 
HETATM   25  C   UNL     1      24.194  46.738  49.959  1.00  0.00     0.102 A 
HETATM   26  C   UNL     1      23.286  47.069  48.936  1.00  0.00     0.101 A 
HETATM   27  C   UNL     1      22.430  46.088  48.425  1.00  0.00     0.040 A 
HETATM   28  C   UNL     1      22.452  44.789  48.941  1.00  0.00     0.010 A 
BRANCH  25  29
HETATM   29  O   UNL     1      25.003  47.754  50.404  1.00  0.00    -0.353 OA
HETATM   30  C   UNL     1      26.394  47.657  50.128  1.00  0.00     0.210 C 
ENDBRANCH  25  29
BRANCH  26  31
HETATM   31  O   UNL     1      23.322  48.367  48.488  1.00  0.00    -0.353 OA
HETATM   32  C   UNL     1      22.097  48.930  48.041  1.00  0.00     0.210 C 
ENDBRANCH  26  31
ENDBRANCH  22  23
ENDBRANCH  21  22
ENDBRANCH  19  21
ENDBRANCH   1  19
TORSDOF 8
ENDMDL
MODEL 8
REMARK VINA RESULT:      -8.4      2.285      3.533
REMARK  8 active torsions:
REMARK  status: ('A' for Active; 'I' for Inactive)
REMARK    1  A    between atoms: C_7  and  C_8 
REMARK       I    between atoms: C_8  and  N_9 
REMARK    2  A    between atoms: N_9  and  S_10 
REMARK    3  A    between atoms: S_10  and  N_11 
REMARK    4  A    between atoms: N_11  and  C_12 
REMARK    5  A    between atoms: C_12  and  C_13 
REMARK    6  A    between atoms: C_13  and  C_14 
REMARK    7  A    between atoms: C_16  and  O_17 
REMARK    8  A    between atoms: C_19  and  O_20 
ROOT
HETATM    1  S   UNL     1      25.755  46.862  51.247  1.00  0.00     0.303 S 
HETATM    2  O   UNL     1      26.167  45.483  51.300  1.00  0.00    -0.188 OA
HETATM    3  O   UNL     1      26.467  47.826  50.441  1.00  0.00    -0.188 OA
ENDROOT
BRANCH   1   4
HETATM    4  N   UNL     1      24.185  46.897  50.742  1.00  0.00    -0.237 N 
HETATM    5  C   UNL     1      23.827  46.496  49.450  1.00  0.00     0.268 C 
HETATM    6  O   UNL     1      24.515  45.696  48.824  1.00  0.00    -0.267 OA
HETATM    7  H   UNL     1      23.728  47.716  51.116  1.00  0.00     0.183 HD
BRANCH   5   8
HETATM    8  C   UNL     1      22.612  47.102  48.893  1.00  0.00     0.067 A 
HETATM    9  C   UNL     1      21.460  46.493  48.387  1.00  0.00     0.022 A 
HETATM   10  C   UNL     1      21.053  45.075  48.190  1.00  0.00     0.069 C 
HETATM   11  N   UNL     1      20.596  47.493  48.003  1.00  0.00    -0.358 N 
HETATM   12  H   UNL     1      19.678  47.347  47.603  1.00  0.00     0.166 HD
HETATM   13  C   UNL     1      21.147  48.730  48.207  1.00  0.00     0.043 A 
HETATM   14  C   UNL     1      22.408  48.527  48.760  1.00  0.00     0.008 A 
HETATM   15  C   UNL     1      20.624  50.002  47.941  1.00  0.00     0.030 A 
HETATM   16  C   UNL     1      23.185  49.667  49.067  1.00  0.00     0.015 A 
HETATM   17  C   UNL     1      22.682  50.947  48.807  1.00  0.00     0.001 A 
HETATM   18  C   UNL     1      21.418  51.110  48.252  1.00  0.00     0.002 A 
ENDBRANCH   5   8
ENDBRANCH   1   4
BRANCH   1  19
HETATM   19  N   UNL     1      25.634  47.447  52.814  1.00  0.00    -0.202 NA
HETATM   20  H   UNL     1      24.656  47.744  52.945  1.00  0.00     0.141 HD
BRANCH  19  21
HETATM   21  C   UNL     1      25.981  46.474  53.883  1.00  0.00     0.110 C 
BRANCH  21  22
HETATM   22  C   UNL     1      26.965  47.035  54.907  1.00  0.00     0.054 C 
BRANCH  22  23
HETATM   23  C   UNL     1      28.099  46.061  55.129  1.00  0.00    -0.054 A 
HETATM   24  C   UNL     1      28.103  44.828  54.457  1.00  0.00     0.046 A 
HETATM   25  C   UNL     1      29.103  43.879  54.700  1.00  0.00     0.102 A 
HETATM   26  C   UNL     1      30.113  44.165  55.639  1.00  0.00     0.101 A 
HETATM   27  C   UNL     1      30.119  45.400  56.295  1.00  0.00     0.040 A 
HETATM   28  C   UNL     1      29.116  46.341  56.045  1.00  0.00     0.010 A 
BRANCH  25  29
HETATM   29  O   UNL     1      29.170  42.648  54.095  1.00  0.00    -0.353 OA
HETATM   30  C   UNL     1      27.976  42.131  53.522  1.00  0.00     0.210 C 
ENDBRANCH  25  29
BRANCH  26  31
HETATM   31  O   UNL     1      31.058  43.187  55.832  1.00  0.00    -0.353 OA
HETATM   32  C   UNL     1      31.780  43.220  57.054  1.00  0.00     0.210 C 
ENDBRANCH  26  31
ENDBRANCH  22  23
ENDBRANCH  21  22
ENDBRANCH  19  21
ENDBRANCH   1  19
TORSDOF 8
ENDMDL
MODEL 9
REMARK VINA RESULT:      -8.3      3.098     10.087
REMARK  8 active torsions:
REMARK  status: ('A' for Active; 'I' for Inactive)
REMARK    1  A    between atoms: C_7  and  C_8 
REMARK       I    between atoms: C_8  and  N_9 
REMARK    2  A    between atoms: N_9  and  S_10 
REMARK    3  A    between atoms: S_10  and  N_11 
REMARK    4  A    between atoms: N_11  and  C_12 
REMARK    5  A    between atoms: C_12  and  C_13 
REMARK    6  A    between atoms: C_13  and  C_14 
REMARK    7  A    between atoms: C_16  and  O_17 
REMARK    8  A    between atoms: C_19  and  O_20 
ROOT
HETATM    1  S   UNL     1      25.530  47.241  51.071  1.00  0.00     0.303 S 
HETATM    2  O   UNL     1      25.248  47.504  52.460  1.00  0.00    -0.188 OA
HETATM    3  O   UNL     1      26.393  48.109  50.306  1.00  0.00    -0.188 OA
ENDROOT
BRANCH   1   4
HETATM    4  N   UNL     1      26.177  45.727  50.968  1.00  0.00    -0.237 N 
HETATM    5  C   UNL     1      25.660  44.663  51.717  1.00  0.00     0.268 C 
HETATM    6  O   UNL     1      24.491  44.662  52.089  1.00  0.00    -0.267 OA
HETATM    7  H   UNL     1      27.181  45.793  50.890  1.00  0.00     0.183 HD
BRANCH   5   8
HETATM    8  C   UNL     1      26.596  43.582  52.044  1.00  0.00     0.067 A 
HETATM    9  C   UNL     1      26.699  42.296  51.505  1.00  0.00     0.022 A 
HETATM   10  C   UNL     1      25.922  41.549  50.479  1.00  0.00     0.069 C 
HETATM   11  N   UNL     1      27.752  41.667  52.132  1.00  0.00    -0.358 N 
HETATM   12  H   UNL     1      28.063  40.723  51.940  1.00  0.00     0.166 HD
HETATM   13  C   UNL     1      28.321  42.476  53.079  1.00  0.00     0.043 A 
HETATM   14  C   UNL     1      27.624  43.681  53.055  1.00  0.00     0.008 A 
HETATM   15  C   UNL     1      29.392  42.228  53.947  1.00  0.00     0.030 A 
HETATM   16  C   UNL     1      28.030  44.695  53.953  1.00  0.00     0.015 A 
HETATM   17  C   UNL     1      29.096  44.467  54.831  1.00  0.00     0.001 A 
HETATM   18  C   UNL     1      29.766  43.249  54.825  1.00  0.00     0.002 A 
ENDBRANCH   5   8
ENDBRANCH   1   4
BRANCH   1  19
HETATM   19  N   UNL     1      24.077  47.059  50.253  1.00  0.00    -0.202 NA
HETATM   20  H   UNL     1      23.336  47.037  50.968  1.00  0.00     0.141 HD
BRANCH  19  21
HETATM   21  C   UNL     1      23.761  48.133  49.275  1.00  0.00     0.110 C 
BRANCH  21  22
HETATM   22  C   UNL     1      22.491  47.858  48.473  1.00  0.00     0.054 C 
BRANCH  22  23
HETATM   23  C   UNL     1      21.587  49.069  48.496  1.00  0.00    -0.054 A 
HETATM   24  C   UNL     1      20.589  49.216  47.518  1.00  0.00     0.046 A 
HETATM   25  C   UNL     1      19.787  50.362  47.475  1.00  0.00     0.102 A 
HETATM   26  C   UNL     1      19.991  51.385  48.421  1.00  0.00     0.101 A 
HETATM   27  C   UNL     1      20.972  51.230  49.406  1.00  0.00     0.040 A 
HETATM   28  C   UNL     1      21.768  50.082  49.441  1.00  0.00     0.010 A 
BRANCH  25  29
HETATM   29  O   UNL     1      18.803  50.586  46.544  1.00  0.00    -0.353 OA
HETATM   30  C   UNL     1      18.101  49.457  46.043  1.00  0.00     0.210 C 
ENDBRANCH  25  29
BRANCH  26  31
HETATM   31  O   UNL     1      19.173  52.483  48.315  1.00  0.00    -0.353 OA
HETATM   32  C   UNL     1      18.095  52.575  49.235  1.00  0.00     0.210 C 
ENDBRANCH  26  31
ENDBRANCH  22  23
ENDBRANCH  21  22
ENDBRANCH  19  21
ENDBRANCH   1  19
TORSDOF 8
ENDMDL
MODEL 10
REMARK VINA RESULT:      -8.2      2.492      3.723
REMARK  8 active torsions:
REMARK  status: ('A' for Active; 'I' for Inactive)
REMARK    1  A    between atoms: C_7  and  C_8 
REMARK       I    between atoms: C_8  and  N_9 
REMARK    2  A    between atoms: N_9  and  S_10 
REMARK    3  A    between atoms: S_10  and  N_11 
REMARK    4  A    between atoms: N_11  and  C_12 
REMARK    5  A    between atoms: C_12  and  C_13 
REMARK    6  A    between atoms: C_13  and  C_14 
REMARK    7  A    between atoms: C_16  and  O_17 
REMARK    8  A    between atoms: C_19  and  O_20 
ROOT
HETATM    1  S   UNL     1      25.092  47.132  50.047  1.00  0.00     0.303 S 
HETATM    2  O   UNL     1      24.809  45.719  50.056  1.00  0.00    -0.188 OA
HETATM    3  O   UNL     1      25.866  47.734  48.988  1.00  0.00    -0.188 OA
ENDROOT
BRANCH   1   4
HETATM    4  N   UNL     1      23.649  47.932  50.086  1.00  0.00    -0.237 N 
HETATM    5  C   UNL     1      22.789  47.934  48.981  1.00  0.00     0.268 C 
HETATM    6  O   UNL     1      22.811  47.022  48.162  1.00  0.00    -0.267 OA
HETATM    7  H   UNL     1      23.757  48.800  50.590  1.00  0.00     0.183 HD
BRANCH   5   8
HETATM    8  C   UNL     1      21.895  49.091  48.855  1.00  0.00     0.067 A 
HETATM    9  C   UNL     1      22.192  50.418  48.528  1.00  0.00     0.022 A 
HETATM   10  C   UNL     1      23.459  51.143  48.236  1.00  0.00     0.069 C 
HETATM   11  N   UNL     1      21.007  51.118  48.519  1.00  0.00    -0.358 N 
HETATM   12  H   UNL     1      20.915  52.104  48.311  1.00  0.00     0.166 HD
HETATM   13  C   UNL     1      19.952  50.313  48.857  1.00  0.00     0.043 A 
HETATM   14  C   UNL     1      20.468  49.038  49.077  1.00  0.00     0.008 A 
HETATM   15  C   UNL     1      18.591  50.619  48.985  1.00  0.00     0.030 A 
HETATM   16  C   UNL     1      19.564  48.014  49.441  1.00  0.00     0.015 A 
HETATM   17  C   UNL     1      18.201  48.300  49.576  1.00  0.00     0.001 A 
HETATM   18  C   UNL     1      17.723  49.586  49.350  1.00  0.00     0.002 A 
ENDBRANCH   5   8
ENDBRANCH   1   4
BRANCH   1  19
HETATM   19  N   UNL     1      25.767  47.554  51.523  1.00  0.00    -0.202 NA
HETATM   20  H   UNL     1      25.368  48.469  51.781  1.00  0.00     0.141 HD
BRANCH  19  21
HETATM   21  C   UNL     1      25.517  46.597  52.633  1.00  0.00     0.110 C 
BRANCH  21  22
HETATM   22  C   UNL     1      26.052  47.085  53.977  1.00  0.00     0.054 C 
BRANCH  22  23
HETATM   23  C   UNL     1      27.267  46.280  54.378  1.00  0.00    -0.054 A 
HETATM   24  C   UNL     1      27.528  45.050  53.752  1.00  0.00     0.046 A 
HETATM   25  C   UNL     1      28.605  44.252  54.156  1.00  0.00     0.102 A 
HETATM   26  C   UNL     1      29.431  44.687  55.210  1.00  0.00     0.101 A 
HETATM   27  C   UNL     1      29.182  45.920  55.821  1.00  0.00     0.040 A 
HETATM   28  C   UNL     1      28.103  46.710  55.411  1.00  0.00     0.010 A 
BRANCH  25  29
HETATM   29  O   UNL     1      28.918  43.034  53.604  1.00  0.00    -0.353 OA
HETATM   30  C   UNL     1      27.950  41.999  53.702  1.00  0.00     0.210 C 
ENDBRANCH  25  29
BRANCH  26  31
HETATM   31  O   UNL     1      30.464  43.851  55.557  1.00  0.00    -0.353 OA
HETATM   32  C   UNL     1      31.171  44.161  56.750  1.00  0.00     0.210 C 
ENDBRANCH  26  31
ENDBRANCH  22  23
ENDBRANCH  21  22
ENDBRANCH  19  21
ENDBRANCH   1  19
TORSDOF 8
ENDMDL
