MODEL 1
REMARK VINA RESULT:      -8.5      0.000      0.000
REMARK  8 active torsions:
REMARK  status: ('A' for Active; 'I' for Inactive)
REMARK    1  A    between atoms: C_2  and  C_3 
REMARK    2  A    between atoms: C_3  and  O_4 
REMARK    3  A    between atoms: O_4  and  C_5 
REMARK    4  A    between atoms: C_8  and  C_9 
REMARK    5  A    between atoms: N_10  and  N_11 
REMARK       I    between atoms: N_11  and  C_12 
REMARK    6  A    between atoms: C_12  and  C_13 
REMARK    7  A    between atoms: C_17  and  C_18 
REMARK    8  A    between atoms: C_21  and  O_22 
ROOT
HETATM    1  N   UNL     1      26.754  40.491  51.388  1.00  0.00    -0.242 N 
HETATM    2  C   UNL     1      25.976  40.937  50.323  1.00  0.00     0.289 C 
HETATM    3  O   UNL     1      25.802  40.194  49.358  1.00  0.00    -0.264 OA
HETATM    4  H   UNL     1      27.170  39.573  51.268  1.00  0.00     0.192 HD
ENDROOT
BRANCH   2   5
HETATM    5  C   UNL     1      25.425  42.269  50.404  1.00  0.00     0.121 A 
HETATM    6  N   UNL     1      24.397  42.634  51.221  1.00  0.00    -0.272 N 
HETATM    7  H   UNL     1      23.922  42.023  51.879  1.00  0.00     0.189 HD
HETATM    8  N   UNL     1      24.059  43.928  51.156  1.00  0.00    -0.174 NA
HETATM    9  C   UNL     1      24.915  44.448  50.261  1.00  0.00     0.089 A 
HETATM   10  C   UNL     1      25.761  43.429  49.736  1.00  0.00     0.071 A 
BRANCH   9  11
HETATM   11  C   UNL     1      24.914  45.881  49.956  1.00  0.00    -0.005 A 
HETATM   12  C   UNL     1      23.738  46.538  49.577  1.00  0.00     0.016 A 
HETATM   13  C   UNL     1      23.762  47.899  49.251  1.00  0.00     0.037 A 
HETATM   14  C   UNL     1      24.953  48.626  49.302  1.00  0.00     0.068 A 
HETATM   15  C   UNL     1      26.129  47.979  49.682  1.00  0.00     0.037 A 
HETATM   16  C   UNL     1      26.107  46.616  50.002  1.00  0.00     0.016 A 
BRANCH  14  17
HETATM   17  O   UNL     1      24.835  49.943  48.955  1.00  0.00    -0.356 OA
HETATM   18  C   UNL     1      23.891  50.255  47.939  1.00  0.00     0.210 C 
ENDBRANCH  14  17
ENDBRANCH   9  11
ENDBRANCH   2   5
BRANCH   1  19
HETATM   19  N   UNL     1      27.193  41.323  52.376  1.00  0.00    -0.184 NA
HETATM   20  C   UNL     1      28.405  41.764  52.272  1.00  0.00     0.150 C 
BRANCH  20  21
HETATM   21  C   UNL     1      28.934  42.726  53.261  1.00  0.00    -0.017 A 
HETATM   22  C   UNL     1      30.189  42.518  53.844  1.00  0.00     0.016 A 
HETATM   23  C   UNL     1      30.685  43.421  54.787  1.00  0.00     0.037 A 
HETATM   24  C   UNL     1      29.931  44.534  55.156  1.00  0.00     0.068 A 
HETATM   25  C   UNL     1      28.671  44.731  54.576  1.00  0.00     0.037 A 
HETATM   26  C   UNL     1      28.168  43.832  53.630  1.00  0.00     0.016 A 
BRANCH  24  27
HETATM   27  O   UNL     1      30.305  45.486  56.064  1.00  0.00    -0.351 OA
BRANCH  27  28
HETATM   28  C   UNL     1      29.284  45.971  56.941  1.00  0.00     0.175 C 
BRANCH  28  29
HETATM   29  C   UNL     1      29.770  45.814  58.376  1.00  0.00     0.022 C 
HETATM   30  C   UNL     1      31.052  45.003  58.447  1.00  0.00     0.007 C 
ENDBRANCH  28  29
ENDBRANCH  27  28
ENDBRANCH  24  27
ENDBRANCH  20  21
ENDBRANCH   1  19
TORSDOF 8
ENDMDL
MODEL 2
REMARK VINA RESULT:      -8.4      4.257      6.854
REMARK  8 active torsions:
REMARK  status: ('A' for Active; 'I' for Inactive)
REMARK    1  A    between atoms: C_2  and  C_3 
REMARK    2  A    between atoms: C_3  and  O_4 
REMARK    3  A    between atoms: O_4  and  C_5 
REMARK    4  A    between atoms: C_8  and  C_9 
REMARK    5  A    between atoms: N_10  and  N_11 
REMARK       I    between atoms: N_11  and  C_12 
REMARK    6  A    between atoms: C_12  and  C_13 
REMARK    7  A    between atoms: C_17  and  C_18 
REMARK    8  A    between atoms: C_21  and  O_22 
ROOT
HETATM    1  N   UNL     1      26.368  49.082  48.837  1.00  0.00    -0.242 N 
HETATM    2  C   UNL     1      25.494  49.884  48.109  1.00  0.00     0.289 C 
HETATM    3  O   UNL     1      25.953  50.677  47.287  1.00  0.00    -0.264 OA
HETATM    4  H   UNL     1      27.355  49.246  48.663  1.00  0.00     0.192 HD
ENDROOT
BRANCH   2   5
HETATM    5  C   UNL     1      24.081  49.752  48.374  1.00  0.00     0.121 A 
HETATM    6  N   UNL     1      23.425  48.565  48.506  1.00  0.00    -0.272 N 
HETATM    7  H   UNL     1      23.855  47.646  48.457  1.00  0.00     0.189 HD
HETATM    8  N   UNL     1      22.118  48.671  48.775  1.00  0.00    -0.174 NA
HETATM    9  C   UNL     1      21.901  49.995  48.838  1.00  0.00     0.089 A 
HETATM   10  C   UNL     1      23.100  50.708  48.550  1.00  0.00     0.071 A 
BRANCH   9  11
HETATM   11  C   UNL     1      20.582  50.530  49.185  1.00  0.00    -0.005 A 
HETATM   12  C   UNL     1      19.717  49.827  50.032  1.00  0.00     0.016 A 
HETATM   13  C   UNL     1      18.445  50.335  50.322  1.00  0.00     0.037 A 
HETATM   14  C   UNL     1      18.018  51.550  49.781  1.00  0.00     0.068 A 
HETATM   15  C   UNL     1      18.876  52.257  48.940  1.00  0.00     0.037 A 
HETATM   16  C   UNL     1      20.146  51.748  48.644  1.00  0.00     0.016 A 
BRANCH  14  17
HETATM   17  O   UNL     1      16.755  51.925  50.143  1.00  0.00    -0.356 OA
HETATM   18  C   UNL     1      15.754  51.858  49.135  1.00  0.00     0.210 C 
ENDBRANCH  14  17
ENDBRANCH   9  11
ENDBRANCH   2   5
BRANCH   1  19
HETATM   19  N   UNL     1      25.970  48.360  49.923  1.00  0.00    -0.184 NA
HETATM   20  C   UNL     1      26.245  47.096  49.917  1.00  0.00     0.150 C 
BRANCH  20  21
HETATM   21  C   UNL     1      25.911  46.255  51.086  1.00  0.00    -0.017 A 
HETATM   22  C   UNL     1      25.438  44.951  50.904  1.00  0.00     0.016 A 
HETATM   23  C   UNL     1      25.111  44.161  52.007  1.00  0.00     0.037 A 
HETATM   24  C   UNL     1      25.252  44.667  53.299  1.00  0.00     0.068 A 
HETATM   25  C   UNL     1      25.715  45.977  53.473  1.00  0.00     0.037 A 
HETATM   26  C   UNL     1      26.046  46.775  52.373  1.00  0.00     0.016 A 
BRANCH  24  27
HETATM   27  O   UNL     1      24.966  43.995  54.455  1.00  0.00    -0.351 OA
BRANCH  27  28
HETATM   28  C   UNL     1      26.082  43.572  55.242  1.00  0.00     0.175 C 
BRANCH  28  29
HETATM   29  C   UNL     1      27.123  42.963  54.310  1.00  0.00     0.022 C 
HETATM   30  C   UNL     1      28.473  43.640  54.461  1.00  0.00     0.007 C 
ENDBRANCH  28  29
ENDBRANCH  27  28
ENDBRANCH  24  27
ENDBRANCH  20  21
ENDBRANCH   1  19
TORSDOF 8
ENDMDL
MODEL 3
REMARK VINA RESULT:      -8.3      1.530      7.722
REMARK  8 active torsions:
REMARK  status: ('A' for Active; 'I' for Inactive)
REMARK    1  A    between atoms: C_2  and  C_3 
REMARK    2  A    between atoms: C_3  and  O_4 
REMARK    3  A    between atoms: O_4  and  C_5 
REMARK    4  A    between atoms: C_8  and  C_9 
REMARK    5  A    between atoms: N_10  and  N_11 
REMARK       I    between atoms: N_11  and  C_12 
REMARK    6  A    between atoms: C_12  and  C_13 
REMARK    7  A    between atoms: C_17  and  C_18 
REMARK    8  A    between atoms: C_21  and  O_22 
ROOT
HETATM    1  N   UNL     1      27.548  41.488  49.037  1.00  0.00    -0.242 N 
HETATM    2  C   UNL     1      27.806  40.645  50.114  1.00  0.00     0.289 C 
HETATM    3  O   UNL     1      27.910  39.435  49.916  1.00  0.00    -0.264 OA
HETATM    4  H   UNL     1      27.416  41.023  48.144  1.00  0.00     0.192 HD
ENDROOT
BRANCH   2   5
HETATM    5  C   UNL     1      27.923  41.243  51.423  1.00  0.00     0.121 A 
HETATM    6  N   UNL     1      27.317  40.769  52.549  1.00  0.00    -0.272 N 
HETATM    7  H   UNL     1      26.740  39.934  52.599  1.00  0.00     0.189 HD
HETATM    8  N   UNL     1      27.580  41.462  53.663  1.00  0.00    -0.174 NA
HETATM    9  C   UNL     1      28.411  42.436  53.258  1.00  0.00     0.089 A 
HETATM   10  C   UNL     1      28.618  42.357  51.851  1.00  0.00     0.071 A 
BRANCH   9  11
HETATM   11  C   UNL     1      28.991  43.383  54.214  1.00  0.00    -0.005 A 
HETATM   12  C   UNL     1      30.215  43.120  54.840  1.00  0.00     0.016 A 
HETATM   13  C   UNL     1      30.735  44.018  55.780  1.00  0.00     0.037 A 
HETATM   14  C   UNL     1      30.049  45.190  56.106  1.00  0.00     0.068 A 
HETATM   15  C   UNL     1      28.831  45.460  55.484  1.00  0.00     0.037 A 
HETATM   16  C   UNL     1      28.307  44.560  54.549  1.00  0.00     0.016 A 
BRANCH  14  17
HETATM   17  O   UNL     1      30.667  45.973  57.041  1.00  0.00    -0.356 OA
HETATM   18  C   UNL     1      30.678  45.486  58.377  1.00  0.00     0.210 C 
ENDBRANCH  14  17
ENDBRANCH   9  11
ENDBRANCH   2   5
BRANCH   1  19
HETATM   19  N   UNL     1      27.183  42.792  49.197  1.00  0.00    -0.184 NA
HETATM   20  C   UNL     1      25.920  43.061  49.110  1.00  0.00     0.150 C 
BRANCH  20  21
HETATM   21  C   UNL     1      25.434  44.438  49.341  1.00  0.00    -0.017 A 
HETATM   22  C   UNL     1      24.100  44.767  49.077  1.00  0.00     0.016 A 
HETATM   23  C   UNL     1      23.644  46.071  49.284  1.00  0.00     0.037 A 
HETATM   24  C   UNL     1      24.515  47.052  49.753  1.00  0.00     0.068 A 
HETATM   25  C   UNL     1      25.852  46.718  50.005  1.00  0.00     0.037 A 
HETATM   26  C   UNL     1      26.317  45.414  49.802  1.00  0.00     0.016 A 
BRANCH  24  27
HETATM   27  O   UNL     1      24.190  48.359  49.994  1.00  0.00    -0.351 OA
BRANCH  27  28
HETATM   28  C   UNL     1      23.041  48.869  49.312  1.00  0.00     0.175 C 
BRANCH  28  29
HETATM   29  C   UNL     1      23.240  50.364  49.091  1.00  0.00     0.022 C 
HETATM   30  C   UNL     1      21.992  51.016  48.522  1.00  0.00     0.007 C 
ENDBRANCH  28  29
ENDBRANCH  27  28
ENDBRANCH  24  27
ENDBRANCH  20  21
ENDBRANCH   1  19
TORSDOF 8
ENDMDL
MODEL 4
REMARK VINA RESULT:      -8.3      2.965      6.325
REMARK  8 active torsions:
REMARK  status: ('A' for Active; 'I' for Inactive)
REMARK    1  A    between atoms: C_2  and  C_3 
REMARK    2  A    between atoms: C_3  and  O_4 
REMARK    3  A    between atoms: O_4  and  C_5 
REMARK    4  A    between atoms: C_8  and  C_9 
REMARK    5  A    between atoms: N_10  and  N_11 
REMARK       I    between atoms: N_11  and  C_12 
REMARK    6  A    between atoms: C_12  and  C_13 
REMARK    7  A    between atoms: C_17  and  C_18 
REMARK    8  A    between atoms: C_21  and  O_22 
ROOT
HETATM    1  N   UNL     1      24.169  45.218  51.149  1.00  0.00    -0.242 N 
HETATM    2  C   UNL     1      23.948  44.108  50.339  1.00  0.00     0.289 C 
HETATM    3  O   UNL     1      22.808  43.878  49.938  1.00  0.00    -0.264 OA
HETATM    4  H   UNL     1      23.340  45.749  51.394  1.00  0.00     0.192 HD
ENDROOT
BRANCH   2   5
HETATM    5  C   UNL     1      25.080  43.269  50.024  1.00  0.00     0.121 A 
HETATM    6  N   UNL     1      25.997  43.537  49.051  1.00  0.00    -0.272 N 
HETATM    7  H   UNL     1      26.002  44.362  48.459  1.00  0.00     0.189 HD
HETATM    8  N   UNL     1      26.982  42.637  48.944  1.00  0.00    -0.174 NA
HETATM    9  C   UNL     1      26.711  41.735  49.902  1.00  0.00     0.089 A 
HETATM   10  C   UNL     1      25.502  42.075  50.574  1.00  0.00     0.071 A 
BRANCH   9  11
HETATM   11  C   UNL     1      27.611  40.607  50.157  1.00  0.00    -0.005 A 
HETATM   12  C   UNL     1      28.389  40.552  51.318  1.00  0.00     0.016 A 
HETATM   13  C   UNL     1      29.273  39.487  51.527  1.00  0.00     0.037 A 
HETATM   14  C   UNL     1      29.391  38.460  50.588  1.00  0.00     0.068 A 
HETATM   15  C   UNL     1      28.616  38.506  49.430  1.00  0.00     0.037 A 
HETATM   16  C   UNL     1      27.736  39.575  49.217  1.00  0.00     0.016 A 
BRANCH  14  17
HETATM   17  O   UNL     1      30.292  37.485  50.915  1.00  0.00    -0.356 OA
HETATM   18  C   UNL     1      29.770  36.306  51.514  1.00  0.00     0.210 C 
ENDBRANCH  14  17
ENDBRANCH   9  11
ENDBRANCH   2   5
BRANCH   1  19
HETATM   19  N   UNL     1      25.337  45.411  51.826  1.00  0.00    -0.184 NA
HETATM   20  C   UNL     1      25.386  44.973  53.043  1.00  0.00     0.150 C 
BRANCH  20  21
HETATM   21  C   UNL     1      26.638  45.079  53.822  1.00  0.00    -0.017 A 
HETATM   22  C   UNL     1      26.996  46.294  54.417  1.00  0.00     0.016 A 
HETATM   23  C   UNL     1      28.184  46.397  55.144  1.00  0.00     0.037 A 
HETATM   24  C   UNL     1      29.022  45.291  55.280  1.00  0.00     0.068 A 
HETATM   25  C   UNL     1      28.662  44.081  54.673  1.00  0.00     0.037 A 
HETATM   26  C   UNL     1      27.473  43.969  53.944  1.00  0.00     0.016 A 
BRANCH  24  27
HETATM   27  O   UNL     1      30.206  45.266  55.963  1.00  0.00    -0.351 OA
BRANCH  27  28
HETATM   28  C   UNL     1      30.950  44.046  55.910  1.00  0.00     0.175 C 
BRANCH  28  29
HETATM   29  C   UNL     1      31.547  43.789  57.289  1.00  0.00     0.022 C 
HETATM   30  C   UNL     1      31.112  44.843  58.292  1.00  0.00     0.007 C 
ENDBRANCH  28  29
ENDBRANCH  27  28
ENDBRANCH  24  27
ENDBRANCH  20  21
ENDBRANCH   1  19
TORSDOF 8
ENDMDL
MODEL 5
REMARK VINA RESULT:      -8.0      1.741      8.348
REMARK  8 active torsions:
REMARK  status: ('A' for Active; 'I' for Inactive)
REMARK    1  A    between atoms: C_2  and  C_3 
REMARK    2  A    between atoms: C_3  and  O_4 
REMARK    3  A    between atoms: O_4  and  C_5 
REMARK    4  A    between atoms: C_8  and  C_9 
REMARK    5  A    between atoms: N_10  and  N_11 
REMARK       I    between atoms: N_11  and  C_12 
REMARK    6  A    between atoms: C_12  and  C_13 
REMARK    7  A    between atoms: C_17  and  C_18 
REMARK    8  A    between atoms: C_21  and  O_22 
ROOT
HETATM    1  N   UNL     1      24.947  41.842  49.977  1.00  0.00    -0.242 N 
HETATM    2  C   UNL     1      26.035  41.284  50.643  1.00  0.00     0.289 C 
HETATM    3  O   UNL     1      26.180  40.062  50.633  1.00  0.00    -0.264 OA
HETATM    4  H   UNL     1      24.308  41.176  49.555  1.00  0.00     0.192 HD
ENDROOT
BRANCH   2   5
HETATM    5  C   UNL     1      26.934  42.180  51.332  1.00  0.00     0.121 A 
HETATM    6  N   UNL     1      27.413  43.346  50.814  1.00  0.00    -0.272 N 
HETATM    7  H   UNL     1      27.176  43.727  49.902  1.00  0.00     0.189 HD
HETATM    8  N   UNL     1      28.215  44.038  51.633  1.00  0.00    -0.174 NA
HETATM    9  C   UNL     1      28.258  43.300  52.754  1.00  0.00     0.089 A 
HETATM   10  C   UNL     1      27.499  42.105  52.589  1.00  0.00     0.071 A 
BRANCH   9  11
HETATM   11  C   UNL     1      28.991  43.759  53.936  1.00  0.00    -0.005 A 
HETATM   12  C   UNL     1      30.053  43.016  54.462  1.00  0.00     0.016 A 
HETATM   13  C   UNL     1      30.718  43.450  55.615  1.00  0.00     0.037 A 
HETATM   14  C   UNL     1      30.339  44.631  56.257  1.00  0.00     0.068 A 
HETATM   15  C   UNL     1      29.284  45.379  55.737  1.00  0.00     0.037 A 
HETATM   16  C   UNL     1      28.615  44.943  54.587  1.00  0.00     0.016 A 
BRANCH  14  17
HETATM   17  O   UNL     1      31.068  44.935  57.373  1.00  0.00    -0.356 OA
HETATM   18  C   UNL     1      30.571  45.982  58.197  1.00  0.00     0.210 C 
ENDBRANCH  14  17
ENDBRANCH   9  11
ENDBRANCH   2   5
BRANCH   1  19
HETATM   19  N   UNL     1      24.579  43.146  50.136  1.00  0.00    -0.184 NA
HETATM   20  C   UNL     1      24.434  43.847  49.058  1.00  0.00     0.150 C 
BRANCH  20  21
HETATM   21  C   UNL     1      23.969  45.248  49.139  1.00  0.00    -0.017 A 
HETATM   22  C   UNL     1      22.844  45.659  48.415  1.00  0.00     0.016 A 
HETATM   23  C   UNL     1      22.411  46.985  48.482  1.00  0.00     0.037 A 
HETATM   24  C   UNL     1      23.099  47.908  49.269  1.00  0.00     0.068 A 
HETATM   25  C   UNL     1      24.230  47.492  49.981  1.00  0.00     0.037 A 
HETATM   26  C   UNL     1      24.670  46.166  49.921  1.00  0.00     0.016 A 
BRANCH  24  27
HETATM   27  O   UNL     1      22.776  49.229  49.416  1.00  0.00    -0.351 OA
BRANCH  27  28
HETATM   28  C   UNL     1      21.468  49.619  48.988  1.00  0.00     0.175 C 
BRANCH  28  29
HETATM   29  C   UNL     1      21.299  51.109  49.263  1.00  0.00     0.022 C 
HETATM   30  C   UNL     1      20.097  51.680  48.531  1.00  0.00     0.007 C 
ENDBRANCH  28  29
ENDBRANCH  27  28
ENDBRANCH  24  27
ENDBRANCH  20  21
ENDBRANCH   1  19
TORSDOF 8
ENDMDL
MODEL 6
REMARK VINA RESULT:      -7.7      2.321      7.607
REMARK  8 active torsions:
REMARK  status: ('A' for Active; 'I' for Inactive)
REMARK    1  A    between atoms: C_2  and  C_3 
REMARK    2  A    between atoms: C_3  and  O_4 
REMARK    3  A    between atoms: O_4  and  C_5 
REMARK    4  A    between atoms: C_8  and  C_9 
REMARK    5  A    between atoms: N_10  and  N_11 
REMARK       I    between atoms: N_11  and  C_12 
REMARK    6  A    between atoms: C_12  and  C_13 
REMARK    7  A    between atoms: C_17  and  C_18 
REMARK    8  A    between atoms: C_21  and  O_22 
ROOT
HETATM    1  N   UNL     1      24.415  45.525  49.964  1.00  0.00    -0.242 N 
HETATM    2  C   UNL     1      24.854  46.436  50.921  1.00  0.00     0.289 C 
HETATM    3  O   UNL     1      24.669  47.638  50.731  1.00  0.00    -0.264 OA
HETATM    4  H   UNL     1      24.001  45.934  49.133  1.00  0.00     0.192 HD
ENDROOT
BRANCH   2   5
HETATM    5  C   UNL     1      25.525  45.916  52.088  1.00  0.00     0.121 A 
HETATM    6  N   UNL     1      25.014  44.959  52.914  1.00  0.00    -0.272 N 
HETATM    7  H   UNL     1      24.122  44.489  52.789  1.00  0.00     0.189 HD
HETATM    8  N   UNL     1      25.814  44.602  53.926  1.00  0.00    -0.174 NA
HETATM    9  C   UNL     1      26.916  45.351  53.754  1.00  0.00     0.089 A 
HETATM   10  C   UNL     1      26.756  46.218  52.635  1.00  0.00     0.071 A 
BRANCH   9  11
HETATM   11  C   UNL     1      28.077  45.204  54.635  1.00  0.00    -0.005 A 
HETATM   12  C   UNL     1      28.937  44.105  54.520  1.00  0.00     0.016 A 
HETATM   13  C   UNL     1      30.019  43.960  55.395  1.00  0.00     0.037 A 
HETATM   14  C   UNL     1      30.265  44.905  56.393  1.00  0.00     0.068 A 
HETATM   15  C   UNL     1      29.415  46.004  56.512  1.00  0.00     0.037 A 
HETATM   16  C   UNL     1      28.328  46.148  55.641  1.00  0.00     0.016 A 
BRANCH  14  17
HETATM   17  O   UNL     1      31.351  44.639  57.180  1.00  0.00    -0.356 OA
HETATM   18  C   UNL     1      31.904  43.332  57.085  1.00  0.00     0.210 C 
ENDBRANCH  14  17
ENDBRANCH   9  11
ENDBRANCH   2   5
BRANCH   1  19
HETATM   19  N   UNL     1      24.786  44.213  49.977  1.00  0.00    -0.184 NA
HETATM   20  C   UNL     1      25.989  43.942  49.584  1.00  0.00     0.150 C 
BRANCH  20  21
HETATM   21  C   UNL     1      26.494  42.554  49.633  1.00  0.00    -0.017 A 
HETATM   22  C   UNL     1      26.856  41.979  50.857  1.00  0.00     0.016 A 
HETATM   23  C   UNL     1      27.343  40.671  50.903  1.00  0.00     0.037 A 
HETATM   24  C   UNL     1      27.474  39.930  49.729  1.00  0.00     0.068 A 
HETATM   25  C   UNL     1      27.119  40.515  48.507  1.00  0.00     0.037 A 
HETATM   26  C   UNL     1      26.629  41.824  48.452  1.00  0.00     0.016 A 
BRANCH  24  27
HETATM   27  O   UNL     1      27.937  38.646  49.644  1.00  0.00    -0.351 OA
BRANCH  27  28
HETATM   28  C   UNL     1      29.049  38.423  48.772  1.00  0.00     0.175 C 
BRANCH  28  29
HETATM   29  C   UNL     1      30.277  38.132  49.627  1.00  0.00     0.022 C 
HETATM   30  C   UNL     1      29.893  37.748  51.045  1.00  0.00     0.007 C 
ENDBRANCH  28  29
ENDBRANCH  27  28
ENDBRANCH  24  27
ENDBRANCH  20  21
ENDBRANCH   1  19
TORSDOF 8
ENDMDL
MODEL 7
REMARK VINA RESULT:      -7.7      4.098      5.814
REMARK  8 active torsions:
REMARK  status: ('A' for Active; 'I' for Inactive)
REMARK    1  A    between atoms: C_2  and  C_3 
REMARK    2  A    between atoms: C_3  and  O_4 
REMARK    3  A    between atoms: O_4  and  C_5 
REMARK    4  A    between atoms: C_8  and  C_9 
REMARK    5  A    between atoms: N_10  and  N_11 
REMARK       I    between atoms: N_11  and  C_12 
REMARK    6  A    between atoms: C_12  and  C_13 
REMARK    7  A    between atoms: C_17  and  C_18 
REMARK    8  A    between atoms: C_21  and  O_22 
ROOT
HETATM    1  N   UNL     1      23.563  44.981  48.718  1.00  0.00    -0.242 N 
HETATM    2  C   UNL     1      22.700  45.703  47.899  1.00  0.00     0.289 C 
HETATM    3  O   UNL     1      22.314  45.199  46.845  1.00  0.00    -0.264 OA
HETATM    4  H   UNL     1      23.856  44.080  48.353  1.00  0.00     0.192 HD
ENDROOT
BRANCH   2   5
HETATM    5  C   UNL     1      22.315  47.027  48.328  1.00  0.00     0.121 A 
HETATM    6  N   UNL     1      23.189  48.018  48.664  1.00  0.00    -0.272 N 
HETATM    7  H   UNL     1      24.201  47.947  48.626  1.00  0.00     0.189 HD
HETATM    8  N   UNL     1      22.618  49.178  49.010  1.00  0.00    -0.174 NA
HETATM    9  C   UNL     1      21.300  48.947  48.886  1.00  0.00     0.089 A 
HETATM   10  C   UNL     1      21.068  47.595  48.500  1.00  0.00     0.071 A 
BRANCH   9  11
HETATM   11  C   UNL     1      20.320  50.011  49.115  1.00  0.00    -0.005 A 
HETATM   12  C   UNL     1      19.245  49.828  49.992  1.00  0.00     0.016 A 
HETATM   13  C   UNL     1      18.296  50.842  50.168  1.00  0.00     0.037 A 
HETATM   14  C   UNL     1      18.406  52.053  49.481  1.00  0.00     0.068 A 
HETATM   15  C   UNL     1      19.476  52.245  48.609  1.00  0.00     0.037 A 
HETATM   16  C   UNL     1      20.422  51.229  48.426  1.00  0.00     0.016 A 
BRANCH  14  17
HETATM   17  O   UNL     1      17.410  52.952  49.744  1.00  0.00    -0.356 OA
HETATM   18  C   UNL     1      16.077  52.516  49.512  1.00  0.00     0.210 C 
ENDBRANCH  14  17
ENDBRANCH   9  11
ENDBRANCH   2   5
BRANCH   1  19
HETATM   19  N   UNL     1      24.222  45.547  49.769  1.00  0.00    -0.184 NA
HETATM   20  C   UNL     1      24.238  44.878  50.877  1.00  0.00     0.150 C 
BRANCH  20  21
HETATM   21  C   UNL     1      24.989  45.387  52.044  1.00  0.00    -0.017 A 
HETATM   22  C   UNL     1      25.263  44.545  53.128  1.00  0.00     0.016 A 
HETATM   23  C   UNL     1      25.963  45.029  54.235  1.00  0.00     0.037 A 
HETATM   24  C   UNL     1      26.393  46.355  54.268  1.00  0.00     0.068 A 
HETATM   25  C   UNL     1      26.106  47.194  53.184  1.00  0.00     0.037 A 
HETATM   26  C   UNL     1      25.406  46.717  52.071  1.00  0.00     0.016 A 
BRANCH  24  27
HETATM   27  O   UNL     1      27.083  46.944  55.291  1.00  0.00    -0.351 OA
BRANCH  27  28
HETATM   28  C   UNL     1      28.510  46.908  55.204  1.00  0.00     0.175 C 
BRANCH  28  29
HETATM   29  C   UNL     1      29.020  45.819  56.141  1.00  0.00     0.022 C 
HETATM   30  C   UNL     1      29.602  44.647  55.372  1.00  0.00     0.007 C 
ENDBRANCH  28  29
ENDBRANCH  27  28
ENDBRANCH  24  27
ENDBRANCH  20  21
ENDBRANCH   1  19
TORSDOF 8
ENDMDL
MODEL 8
REMARK VINA RESULT:      -7.4      4.733     10.855
REMARK  8 active torsions:
REMARK  status: ('A' for Active; 'I' for Inactive)
REMARK    1  A    between atoms: C_2  and  C_3 
REMARK    2  A    between atoms: C_3  and  O_4 
REMARK    3  A    between atoms: O_4  and  C_5 
REMARK    4  A    between atoms: C_8  and  C_9 
REMARK    5  A    between atoms: N_10  and  N_11 
REMARK       I    between atoms: N_11  and  C_12 
REMARK    6  A    between atoms: C_12  and  C_13 
REMARK    7  A    between atoms: C_17  and  C_18 
REMARK    8  A    between atoms: C_21  and  O_22 
ROOT
HETATM    1  N   UNL     1      24.576  50.742  48.149  1.00  0.00    -0.242 N 
HETATM    2  C   UNL     1      25.568  49.769  48.230  1.00  0.00     0.289 C 
HETATM    3  O   UNL     1      26.562  49.867  47.510  1.00  0.00    -0.264 OA
HETATM    4  H   UNL     1      24.729  51.461  47.449  1.00  0.00     0.192 HD
ENDROOT
BRANCH   2   5
HETATM    5  C   UNL     1      25.366  48.677  49.152  1.00  0.00     0.121 A 
HETATM    6  N   UNL     1      24.165  48.076  49.389  1.00  0.00    -0.272 N 
HETATM    7  H   UNL     1      23.289  48.309  48.931  1.00  0.00     0.189 HD
HETATM    8  N   UNL     1      24.206  47.064  50.264  1.00  0.00    -0.174 NA
HETATM    9  C   UNL     1      25.501  46.982  50.614  1.00  0.00     0.089 A 
HETATM   10  C   UNL     1      26.254  48.005  49.968  1.00  0.00     0.071 A 
BRANCH   9  11
HETATM   11  C   UNL     1      25.975  45.935  51.522  1.00  0.00    -0.005 A 
HETATM   12  C   UNL     1      25.601  45.923  52.870  1.00  0.00     0.016 A 
HETATM   13  C   UNL     1      26.095  44.938  53.733  1.00  0.00     0.037 A 
HETATM   14  C   UNL     1      26.963  43.947  53.266  1.00  0.00     0.068 A 
HETATM   15  C   UNL     1      27.337  43.950  51.923  1.00  0.00     0.037 A 
HETATM   16  C   UNL     1      26.849  44.939  51.061  1.00  0.00     0.016 A 
BRANCH  14  17
HETATM   17  O   UNL     1      27.372  43.051  54.214  1.00  0.00    -0.356 OA
HETATM   18  C   UNL     1      27.879  41.809  53.743  1.00  0.00     0.210 C 
ENDBRANCH  14  17
ENDBRANCH   9  11
ENDBRANCH   2   5
BRANCH   1  19
HETATM   19  N   UNL     1      23.349  50.589  48.724  1.00  0.00    -0.184 NA
HETATM   20  C   UNL     1      22.400  51.351  48.286  1.00  0.00     0.150 C 
BRANCH  20  21
HETATM   21  C   UNL     1      21.024  51.200  48.806  1.00  0.00    -0.017 A 
HETATM   22  C   UNL     1      20.707  50.138  49.661  1.00  0.00     0.016 A 
HETATM   23  C   UNL     1      19.406  49.989  50.144  1.00  0.00     0.037 A 
HETATM   24  C   UNL     1      18.413  50.895  49.775  1.00  0.00     0.068 A 
HETATM   25  C   UNL     1      18.735  51.949  48.911  1.00  0.00     0.037 A 
HETATM   26  C   UNL     1      20.036  52.107  48.424  1.00  0.00     0.016 A 
BRANCH  24  27
HETATM   27  O   UNL     1      17.106  50.856  50.179  1.00  0.00    -0.351 OA
BRANCH  27  28
HETATM   28  C   UNL     1      16.133  51.336  49.247  1.00  0.00     0.175 C 
BRANCH  28  29
HETATM   29  C   UNL     1      15.277  52.384  49.946  1.00  0.00     0.022 C 
HETATM   30  C   UNL     1      14.934  53.537  49.019  1.00  0.00     0.007 C 
ENDBRANCH  28  29
ENDBRANCH  27  28
ENDBRANCH  24  27
ENDBRANCH  20  21
ENDBRANCH   1  19
TORSDOF 8
ENDMDL
MODEL 9
REMARK VINA RESULT:      -7.4      2.874      6.098
REMARK  8 active torsions:
REMARK  status: ('A' for Active; 'I' for Inactive)
REMARK    1  A    between atoms: C_2  and  C_3 
REMARK    2  A    between atoms: C_3  and  O_4 
REMARK    3  A    between atoms: O_4  and  C_5 
REMARK    4  A    between atoms: C_8  and  C_9 
REMARK    5  A    between atoms: N_10  and  N_11 
REMARK       I    between atoms: N_11  and  C_12 
REMARK    6  A    between atoms: C_12  and  C_13 
REMARK    7  A    between atoms: C_17  and  C_18 
REMARK    8  A    between atoms: C_21  and  O_22 
ROOT
HETATM    1  N   UNL     1      24.147  44.954  51.295  1.00  0.00    -0.242 N 
HETATM    2  C   UNL     1      23.753  43.907  50.467  1.00  0.00     0.289 C 
HETATM    3  O   UNL     1      22.635  43.939  49.953  1.00  0.00    -0.264 OA
HETATM    4  H   UNL     1      23.446  45.670  51.454  1.00  0.00     0.192 HD
ENDROOT
BRANCH   2   5
HETATM    5  C   UNL     1      24.681  42.819  50.270  1.00  0.00     0.121 A 
HETATM    6  N   UNL     1      25.245  42.089  51.274  1.00  0.00    -0.272 N 
HETATM    7  H   UNL     1      25.059  42.209  52.265  1.00  0.00     0.189 HD
HETATM    8  N   UNL     1      26.060  41.108  50.867  1.00  0.00    -0.174 NA
HETATM    9  C   UNL     1      26.024  41.184  49.527  1.00  0.00     0.089 A 
HETATM   10  C   UNL     1      25.202  42.272  49.114  1.00  0.00     0.071 A 
BRANCH   9  11
HETATM   11  C   UNL     1      26.747  40.219  48.694  1.00  0.00    -0.005 A 
HETATM   12  C   UNL     1      26.211  39.765  47.483  1.00  0.00     0.016 A 
HETATM   13  C   UNL     1      26.896  38.814  46.720  1.00  0.00     0.037 A 
HETATM   14  C   UNL     1      28.125  38.304  47.145  1.00  0.00     0.068 A 
HETATM   15  C   UNL     1      28.667  38.754  48.348  1.00  0.00     0.037 A 
HETATM   16  C   UNL     1      27.979  39.701  49.116  1.00  0.00     0.016 A 
BRANCH  14  17
HETATM   17  O   UNL     1      28.683  37.380  46.307  1.00  0.00    -0.356 OA
HETATM   18  C   UNL     1      28.478  37.574  44.913  1.00  0.00     0.210 C 
ENDBRANCH  14  17
ENDBRANCH   9  11
ENDBRANCH   2   5
BRANCH   1  19
HETATM   19  N   UNL     1      25.256  44.887  52.086  1.00  0.00    -0.184 NA
HETATM   20  C   UNL     1      25.607  45.974  52.694  1.00  0.00     0.150 C 
BRANCH  20  21
HETATM   21  C   UNL     1      26.754  45.968  53.626  1.00  0.00    -0.017 A 
HETATM   22  C   UNL     1      27.056  47.109  54.378  1.00  0.00     0.016 A 
HETATM   23  C   UNL     1      28.147  47.108  55.250  1.00  0.00     0.037 A 
HETATM   24  C   UNL     1      28.944  45.971  55.375  1.00  0.00     0.068 A 
HETATM   25  C   UNL     1      28.642  44.837  54.611  1.00  0.00     0.037 A 
HETATM   26  C   UNL     1      27.550  44.829  53.736  1.00  0.00     0.016 A 
BRANCH  24  27
HETATM   27  O   UNL     1      30.035  45.847  56.191  1.00  0.00    -0.351 OA
BRANCH  27  28
HETATM   28  C   UNL     1      29.796  45.938  57.598  1.00  0.00     0.175 C 
BRANCH  28  29
HETATM   29  C   UNL     1      30.822  45.070  58.315  1.00  0.00     0.022 C 
HETATM   30  C   UNL     1      31.379  43.992  57.402  1.00  0.00     0.007 C 
ENDBRANCH  28  29
ENDBRANCH  27  28
ENDBRANCH  24  27
ENDBRANCH  20  21
ENDBRANCH   1  19
TORSDOF 8
ENDMDL
MODEL 10
REMARK VINA RESULT:      -7.4      3.682      4.208
REMARK  8 active torsions:
REMARK  status: ('A' for Active; 'I' for Inactive)
REMARK    1  A    between atoms: C_2  and  C_3 
REMARK    2  A    between atoms: C_3  and  O_4 
REMARK    3  A    between atoms: O_4  and  C_5 
REMARK    4  A    between atoms: C_8  and  C_9 
REMARK    5  A    between atoms: N_10  and  N_11 
REMARK       I    between atoms: N_11  and  C_12 
REMARK    6  A    between atoms: C_12  and  C_13 
REMARK    7  A    between atoms: C_17  and  C_18 
REMARK    8  A    between atoms: C_21  and  O_22 
ROOT
HETATM    1  N   UNL     1      29.211  39.284  51.441  1.00  0.00    -0.242 N 
HETATM    2  C   UNL     1      28.737  38.905  50.189  1.00  0.00     0.289 C 
HETATM    3  O   UNL     1      29.072  37.814  49.727  1.00  0.00    -0.264 OA
HETATM    4  H   UNL     1      29.854  38.632  51.878  1.00  0.00     0.192 HD
ENDROOT
BRANCH   2   5
HETATM    5  C   UNL     1      27.883  39.831  49.484  1.00  0.00     0.121 A 
HETATM    6  N   UNL     1      28.327  40.826  48.664  1.00  0.00    -0.272 N 
HETATM    7  H   UNL     1      29.299  41.012  48.438  1.00  0.00     0.189 HD
HETATM    8  N   UNL     1      27.362  41.555  48.090  1.00  0.00    -0.174 NA
HETATM    9  C   UNL     1      26.221  41.007  48.542  1.00  0.00     0.089 A 
HETATM   10  C   UNL     1      26.507  39.949  49.452  1.00  0.00     0.071 A 
BRANCH   9  11
HETATM   11  C   UNL     1      24.916  41.488  48.083  1.00  0.00    -0.005 A 
HETATM   12  C   UNL     1      24.141  42.343  48.874  1.00  0.00     0.016 A 
HETATM   13  C   UNL     1      22.880  42.761  48.437  1.00  0.00     0.037 A 
HETATM   14  C   UNL     1      22.373  42.342  47.204  1.00  0.00     0.068 A 
HETATM   15  C   UNL     1      23.141  41.493  46.408  1.00  0.00     0.037 A 
HETATM   16  C   UNL     1      24.401  41.069  46.848  1.00  0.00     0.016 A 
BRANCH  14  17
HETATM   17  O   UNL     1      21.129  42.822  46.903  1.00  0.00    -0.356 OA
HETATM   18  C   UNL     1      21.074  44.035  46.163  1.00  0.00     0.210 C 
ENDBRANCH  14  17
ENDBRANCH   9  11
ENDBRANCH   2   5
BRANCH   1  19
HETATM   19  N   UNL     1      29.089  40.556  51.918  1.00  0.00    -0.184 NA
HETATM   20  C   UNL     1      28.677  40.686  53.138  1.00  0.00     0.150 C 
BRANCH  20  21
HETATM   21  C   UNL     1      28.584  42.026  53.754  1.00  0.00    -0.017 A 
HETATM   22  C   UNL     1      29.743  42.690  54.173  1.00  0.00     0.016 A 
HETATM   23  C   UNL     1      29.655  43.952  54.765  1.00  0.00     0.037 A 
HETATM   24  C   UNL     1      28.412  44.557  54.944  1.00  0.00     0.068 A 
HETATM   25  C   UNL     1      27.256  43.882  54.532  1.00  0.00     0.037 A 
HETATM   26  C   UNL     1      27.335  42.619  53.937  1.00  0.00     0.016 A 
BRANCH  24  27
HETATM   27  O   UNL     1      28.196  45.784  55.510  1.00  0.00    -0.351 OA
BRANCH  27  28
HETATM   28  C   UNL     1      29.278  46.342  56.260  1.00  0.00     0.175 C 
BRANCH  28  29
HETATM   29  C   UNL     1      29.057  46.017  57.733  1.00  0.00     0.022 C 
HETATM   30  C   UNL     1      30.318  45.473  58.381  1.00  0.00     0.007 C 
ENDBRANCH  28  29
ENDBRANCH  27  28
ENDBRANCH  24  27
ENDBRANCH  20  21
ENDBRANCH   1  19
TORSDOF 8
ENDMDL
