MODEL 1
REMARK VINA RESULT:      -8.7      0.000      0.000
REMARK  4 active torsions:
REMARK  status: ('A' for Active; 'I' for Inactive)
REMARK    1  A    between atoms: C_5  and  C_6 
REMARK    2  A    between atoms: C_6  and  N_7 
REMARK    3  A    between atoms: C_17  and  C_18 
REMARK    4  A    between atoms: C_27  and  C_28 
ROOT
HETATM    1  N   UNL     1      24.920  45.208  49.275  1.00  0.00    -0.067 N 
HETATM    2  H   UNL     1      25.105  45.306  48.266  1.00  0.00     0.280 HD
HETATM    3  C   UNL     1      26.159  45.652  49.996  1.00  0.00     0.236 C 
HETATM    4  C   UNL     1      26.089  45.336  51.490  1.00  0.00     0.039 C 
HETATM    5  C   UNL     1      25.731  43.868  51.851  1.00  0.00    -0.013 C 
HETATM    6  C   UNL     1      26.910  42.889  51.601  1.00  0.00     0.244 C 
HETATM    7  N   UNL     1      28.004  43.048  52.625  1.00  0.00    -0.073 N 
HETATM    8  H   UNL     1      28.381  44.004  52.578  1.00  0.00     0.279 HD
HETATM    9  C   UNL     1      29.178  42.136  52.338  1.00  0.00     0.269 C 
HETATM   10  C   UNL     1      27.508  42.837  54.050  1.00  0.00     0.243 C 
HETATM   11  C   UNL     1      26.436  43.883  54.396  1.00  0.00     0.045 C 
HETATM   12  C   UNL     1      25.298  43.759  53.347  1.00  0.00     0.022 C 
HETATM   13  C   UNL     1      24.506  43.443  50.984  1.00  0.00     0.039 C 
HETATM   14  C   UNL     1      24.635  43.748  49.492  1.00  0.00     0.236 C 
ENDROOT
BRANCH  11  15
HETATM   15  C   UNL     1      26.930  45.313  54.615  1.00  0.00    -0.052 A 
HETATM   16  C   UNL     1      28.263  45.636  54.929  1.00  0.00     0.007 A 
HETATM   17  C   UNL     1      28.663  46.965  55.109  1.00  0.00     0.001 A 
HETATM   18  C   UNL     1      27.737  47.996  55.009  1.00  0.00     0.000 A 
HETATM   19  C   UNL     1      26.404  47.700  54.755  1.00  0.00     0.001 A 
HETATM   20  C   UNL     1      26.004  46.373  54.573  1.00  0.00     0.007 A 
ENDBRANCH  11  15
BRANCH   1  21
HETATM   21  C   UNL     1      23.687  46.093  49.480  1.00  0.00     0.277 C 
BRANCH  21  22
HETATM   22  C   UNL     1      23.853  47.555  49.270  1.00  0.00     0.011 A 
HETATM   23  C   UNL     1      25.066  48.284  49.193  1.00  0.00     0.149 A 
HETATM   24  N   UNL     1      24.887  49.590  49.058  1.00  0.00    -0.185 NA
HETATM   25  N   UNL     1      23.556  49.733  48.984  1.00  0.00    -0.278 N 
HETATM   26  C   UNL     1      22.995  51.053  48.803  1.00  0.00     0.179 C 
HETATM   27  C   UNL     1      22.882  48.533  49.063  1.00  0.00     0.043 A 
BRANCH  27  28
HETATM   28  C   UNL     1      21.365  48.426  48.904  1.00  0.00     0.038 A 
HETATM   29  C   UNL     1      20.775  48.314  47.514  1.00  0.00     0.011 A 
HETATM   30  C   UNL     1      20.682  47.159  48.452  1.00  0.00     0.011 A 
ENDBRANCH  27  28
ENDBRANCH  21  22
ENDBRANCH   1  21
TORSDOF 4
ENDMDL
MODEL 2
REMARK VINA RESULT:      -8.6      3.169      6.418
REMARK  4 active torsions:
REMARK  status: ('A' for Active; 'I' for Inactive)
REMARK    1  A    between atoms: C_5  and  C_6 
REMARK    2  A    between atoms: C_6  and  N_7 
REMARK    3  A    between atoms: C_17  and  C_18 
REMARK    4  A    between atoms: C_27  and  C_28 
ROOT
HETATM    1  N   UNL     1      28.912  41.477  52.249  1.00  0.00    -0.067 N 
HETATM    2  H   UNL     1      29.844  41.092  52.034  1.00  0.00     0.280 HD
HETATM    3  C   UNL     1      28.895  42.894  51.753  1.00  0.00     0.236 C 
HETATM    4  C   UNL     1      27.648  43.643  52.220  1.00  0.00     0.039 C 
HETATM    5  C   UNL     1      27.360  43.584  53.746  1.00  0.00    -0.013 C 
HETATM    6  C   UNL     1      28.325  44.483  54.568  1.00  0.00     0.244 C 
HETATM    7  N   UNL     1      28.017  45.947  54.398  1.00  0.00    -0.073 N 
HETATM    8  H   UNL     1      28.121  46.208  53.408  1.00  0.00     0.279 HD
HETATM    9  C   UNL     1      29.001  46.819  55.150  1.00  0.00     0.269 C 
HETATM   10  C   UNL     1      26.589  46.296  54.799  1.00  0.00     0.243 C 
HETATM   11  C   UNL     1      25.590  45.538  53.909  1.00  0.00     0.045 C 
HETATM   12  C   UNL     1      25.892  44.021  54.046  1.00  0.00     0.022 C 
HETATM   13  C   UNL     1      27.505  42.102  54.208  1.00  0.00     0.039 C 
HETATM   14  C   UNL     1      28.783  41.404  53.745  1.00  0.00     0.236 C 
ENDROOT
BRANCH  11  15
HETATM   15  C   UNL     1      25.467  46.022  52.464  1.00  0.00    -0.052 A 
HETATM   16  C   UNL     1      26.111  47.171  51.971  1.00  0.00     0.007 A 
HETATM   17  C   UNL     1      25.971  47.562  50.635  1.00  0.00     0.001 A 
HETATM   18  C   UNL     1      25.163  46.834  49.771  1.00  0.00     0.000 A 
HETATM   19  C   UNL     1      24.472  45.726  50.247  1.00  0.00     0.001 A 
HETATM   20  C   UNL     1      24.613  45.334  51.580  1.00  0.00     0.007 A 
ENDBRANCH  11  15
BRANCH   1  21
HETATM   21  C   UNL     1      27.971  40.513  51.522  1.00  0.00     0.277 C 
BRANCH  21  22
HETATM   22  C   UNL     1      28.134  40.380  50.050  1.00  0.00     0.011 A 
HETATM   23  C   UNL     1      29.010  39.512  49.353  1.00  0.00     0.149 A 
HETATM   24  N   UNL     1      28.969  39.666  48.038  1.00  0.00    -0.185 NA
HETATM   25  N   UNL     1      28.021  40.594  47.847  1.00  0.00    -0.278 N 
HETATM   26  C   UNL     1      27.685  40.996  46.499  1.00  0.00     0.179 C 
HETATM   27  C   UNL     1      27.452  41.031  49.025  1.00  0.00     0.043 A 
BRANCH  27  28
HETATM   28  C   UNL     1      26.281  42.015  49.060  1.00  0.00     0.038 A 
HETATM   29  C   UNL     1      24.885  41.510  48.766  1.00  0.00     0.011 A 
HETATM   30  C   UNL     1      25.226  41.984  50.138  1.00  0.00     0.011 A 
ENDBRANCH  27  28
ENDBRANCH  21  22
ENDBRANCH   1  21
TORSDOF 4
ENDMDL
MODEL 3
REMARK VINA RESULT:      -8.2      3.141      8.026
REMARK  4 active torsions:
REMARK  status: ('A' for Active; 'I' for Inactive)
REMARK    1  A    between atoms: C_5  and  C_6 
REMARK    2  A    between atoms: C_6  and  N_7 
REMARK    3  A    between atoms: C_17  and  C_18 
REMARK    4  A    between atoms: C_27  and  C_28 
ROOT
HETATM    1  N   UNL     1      26.402  45.078  51.278  1.00  0.00    -0.067 N 
HETATM    2  H   UNL     1      26.765  46.030  51.436  1.00  0.00     0.280 HD
HETATM    3  C   UNL     1      26.791  44.683  49.882  1.00  0.00     0.236 C 
HETATM    4  C   UNL     1      26.111  43.384  49.451  1.00  0.00     0.039 C 
HETATM    5  C   UNL     1      24.569  43.340  49.633  1.00  0.00    -0.013 C 
HETATM    6  C   UNL     1      23.820  44.196  48.575  1.00  0.00     0.244 C 
HETATM    7  N   UNL     1      23.843  43.557  47.211  1.00  0.00    -0.073 N 
HETATM    8  H   UNL     1      24.817  43.458  46.895  1.00  0.00     0.279 HD
HETATM    9  C   UNL     1      23.168  44.427  46.172  1.00  0.00     0.269 C 
HETATM   10  C   UNL     1      23.233  42.160  47.207  1.00  0.00     0.243 C 
HETATM   11  C   UNL     1      24.035  41.232  48.134  1.00  0.00     0.045 C 
HETATM   12  C   UNL     1      24.047  41.871  49.548  1.00  0.00     0.022 C 
HETATM   13  C   UNL     1      24.235  43.867  51.063  1.00  0.00     0.039 C 
HETATM   14  C   UNL     1      24.911  45.185  51.437  1.00  0.00     0.236 C 
ENDROOT
BRANCH  11  15
HETATM   15  C   UNL     1      25.413  40.800  47.633  1.00  0.00    -0.052 A 
HETATM   16  C   UNL     1      25.872  41.030  46.323  1.00  0.00     0.007 A 
HETATM   17  C   UNL     1      27.148  40.621  45.921  1.00  0.00     0.001 A 
HETATM   18  C   UNL     1      27.982  39.948  46.806  1.00  0.00     0.000 A 
HETATM   19  C   UNL     1      27.531  39.659  48.088  1.00  0.00     0.001 A 
HETATM   20  C   UNL     1      26.258  40.069  48.491  1.00  0.00     0.007 A 
ENDBRANCH  11  15
BRANCH   1  21
HETATM   21  C   UNL     1      27.065  44.273  52.398  1.00  0.00     0.277 C 
BRANCH  21  22
HETATM   22  C   UNL     1      27.534  45.022  53.593  1.00  0.00     0.011 A 
HETATM   23  C   UNL     1      27.081  46.283  54.055  1.00  0.00     0.149 A 
HETATM   24  N   UNL     1      27.736  46.721  55.120  1.00  0.00    -0.185 NA
HETATM   25  N   UNL     1      28.588  45.727  55.411  1.00  0.00    -0.278 N 
HETATM   26  C   UNL     1      29.460  45.857  56.557  1.00  0.00     0.179 C 
HETATM   27  C   UNL     1      28.481  44.658  54.548  1.00  0.00     0.043 A 
BRANCH  27  28
HETATM   28  C   UNL     1      29.277  43.365  54.733  1.00  0.00     0.038 A 
HETATM   29  C   UNL     1      30.272  42.953  53.669  1.00  0.00     0.011 A 
HETATM   30  C   UNL     1      30.759  43.356  55.019  1.00  0.00     0.011 A 
ENDBRANCH  27  28
ENDBRANCH  21  22
ENDBRANCH   1  21
TORSDOF 4
ENDMDL
MODEL 4
REMARK VINA RESULT:      -8.1      1.374      2.244
REMARK  4 active torsions:
REMARK  status: ('A' for Active; 'I' for Inactive)
REMARK    1  A    between atoms: C_5  and  C_6 
REMARK    2  A    between atoms: C_6  and  N_7 
REMARK    3  A    between atoms: C_17  and  C_18 
REMARK    4  A    between atoms: C_27  and  C_28 
ROOT
HETATM    1  N   UNL     1      24.756  46.293  49.217  1.00  0.00    -0.067 N 
HETATM    2  H   UNL     1      24.950  46.486  48.223  1.00  0.00     0.280 HD
HETATM    3  C   UNL     1      26.054  46.438  49.956  1.00  0.00     0.236 C 
HETATM    4  C   UNL     1      25.940  45.952  51.401  1.00  0.00     0.039 C 
HETATM    5  C   UNL     1      25.350  44.527  51.586  1.00  0.00    -0.013 C 
HETATM    6  C   UNL     1      26.354  43.410  51.188  1.00  0.00     0.244 C 
HETATM    7  N   UNL     1      27.463  43.261  52.197  1.00  0.00    -0.073 N 
HETATM    8  H   UNL     1      27.991  44.143  52.259  1.00  0.00     0.279 HD
HETATM    9  C   UNL     1      28.473  42.217  51.770  1.00  0.00     0.269 C 
HETATM   10  C   UNL     1      26.946  42.955  53.597  1.00  0.00     0.243 C 
HETATM   11  C   UNL     1      26.059  44.108  54.096  1.00  0.00     0.045 C 
HETATM   12  C   UNL     1      24.912  44.301  53.068  1.00  0.00     0.022 C 
HETATM   13  C   UNL     1      24.068  44.416  50.703  1.00  0.00     0.039 C 
HETATM   14  C   UNL     1      24.239  44.883  49.258  1.00  0.00     0.236 C 
ENDROOT
BRANCH  11  15
HETATM   15  C   UNL     1      26.780  45.400  54.477  1.00  0.00    -0.052 A 
HETATM   16  C   UNL     1      26.155  46.660  54.508  1.00  0.00     0.007 A 
HETATM   17  C   UNL     1      26.862  47.810  54.875  1.00  0.00     0.001 A 
HETATM   18  C   UNL     1      28.213  47.733  55.191  1.00  0.00     0.000 A 
HETATM   19  C   UNL     1      28.867  46.509  55.115  1.00  0.00     0.001 A 
HETATM   20  C   UNL     1      28.161  45.360  54.750  1.00  0.00     0.007 A 
ENDBRANCH  11  15
BRANCH   1  21
HETATM   21  C   UNL     1      23.684  47.331  49.559  1.00  0.00     0.277 C 
BRANCH  21  22
HETATM   22  C   UNL     1      22.537  47.464  48.622  1.00  0.00     0.011 A 
HETATM   23  C   UNL     1      22.072  46.508  47.685  1.00  0.00     0.149 A 
HETATM   24  N   UNL     1      21.061  46.942  46.948  1.00  0.00    -0.185 NA
HETATM   25  N   UNL     1      20.806  48.167  47.430  1.00  0.00    -0.278 N 
HETATM   26  C   UNL     1      19.722  48.939  46.864  1.00  0.00     0.179 C 
HETATM   27  C   UNL     1      21.639  48.518  48.471  1.00  0.00     0.043 A 
BRANCH  27  28
HETATM   28  C   UNL     1      21.480  49.824  49.250  1.00  0.00     0.038 A 
HETATM   29  C   UNL     1      22.601  50.841  49.222  1.00  0.00     0.011 A 
HETATM   30  C   UNL     1      21.299  51.159  48.571  1.00  0.00     0.011 A 
ENDBRANCH  27  28
ENDBRANCH  21  22
ENDBRANCH   1  21
TORSDOF 4
ENDMDL
MODEL 5
REMARK VINA RESULT:      -8.1     11.639     13.882
REMARK  4 active torsions:
REMARK  status: ('A' for Active; 'I' for Inactive)
REMARK    1  A    between atoms: C_5  and  C_6 
REMARK    2  A    between atoms: C_6  and  N_7 
REMARK    3  A    between atoms: C_17  and  C_18 
REMARK    4  A    between atoms: C_27  and  C_28 
ROOT
HETATM    1  N   UNL     1      29.150  52.695  39.414  1.00  0.00    -0.067 N 
HETATM    2  H   UNL     1      28.599  53.469  39.014  1.00  0.00     0.280 HD
HETATM    3  C   UNL     1      30.151  53.305  40.353  1.00  0.00     0.236 C 
HETATM    4  C   UNL     1      31.176  52.279  40.832  1.00  0.00     0.039 C 
HETATM    5  C   UNL     1      31.885  51.463  39.715  1.00  0.00    -0.013 C 
HETATM    6  C   UNL     1      32.942  52.302  38.946  1.00  0.00     0.244 C 
HETATM    7  N   UNL     1      34.175  52.554  39.773  1.00  0.00    -0.073 N 
HETATM    8  H   UNL     1      33.919  53.081  40.619  1.00  0.00     0.279 HD
HETATM    9  C   UNL     1      35.173  53.426  39.040  1.00  0.00     0.269 C 
HETATM   10  C   UNL     1      34.842  51.266  40.239  1.00  0.00     0.243 C 
HETATM   11  C   UNL     1      33.879  50.466  41.132  1.00  0.00     0.045 C 
HETATM   12  C   UNL     1      32.586  50.203  40.314  1.00  0.00     0.022 C 
HETATM   13  C   UNL     1      30.795  50.957  38.721  1.00  0.00     0.039 C 
HETATM   14  C   UNL     1      29.812  52.025  38.243  1.00  0.00     0.236 C 
ENDROOT
BRANCH  11  15
HETATM   15  C   UNL     1      33.630  51.026  42.532  1.00  0.00    -0.052 A 
HETATM   16  C   UNL     1      32.399  50.922  43.204  1.00  0.00     0.007 A 
HETATM   17  C   UNL     1      32.230  51.446  44.490  1.00  0.00     0.001 A 
HETATM   18  C   UNL     1      33.275  52.108  45.122  1.00  0.00     0.000 A 
HETATM   19  C   UNL     1      34.484  52.273  44.457  1.00  0.00     0.001 A 
HETATM   20  C   UNL     1      34.654  51.749  43.173  1.00  0.00     0.007 A 
ENDBRANCH  11  15
BRANCH   1  21
HETATM   21  C   UNL     1      28.078  51.823  40.073  1.00  0.00     0.277 C 
BRANCH  21  22
HETATM   22  C   UNL     1      27.550  50.678  39.285  1.00  0.00     0.011 A 
HETATM   23  C   UNL     1      26.951  50.716  38.001  1.00  0.00     0.149 A 
HETATM   24  N   UNL     1      26.525  49.533  37.584  1.00  0.00    -0.185 NA
HETATM   25  N   UNL     1      26.892  48.690  38.559  1.00  0.00    -0.278 N 
HETATM   26  C   UNL     1      26.605  47.279  38.420  1.00  0.00     0.179 C 
HETATM   27  C   UNL     1      27.553  49.319  39.592  1.00  0.00     0.043 A 
BRANCH  27  28
HETATM   28  C   UNL     1      28.156  48.556  40.773  1.00  0.00     0.038 A 
HETATM   29  C   UNL     1      29.566  48.017  40.659  1.00  0.00     0.011 A 
HETATM   30  C   UNL     1      29.271  49.117  41.620  1.00  0.00     0.011 A 
ENDBRANCH  27  28
ENDBRANCH  21  22
ENDBRANCH   1  21
TORSDOF 4
ENDMDL
MODEL 6
REMARK VINA RESULT:      -8.0     18.074     20.864
REMARK  4 active torsions:
REMARK  status: ('A' for Active; 'I' for Inactive)
REMARK    1  A    between atoms: C_5  and  C_6 
REMARK    2  A    between atoms: C_6  and  N_7 
REMARK    3  A    between atoms: C_17  and  C_18 
REMARK    4  A    between atoms: C_27  and  C_28 
ROOT
HETATM    1  N   UNL     1      42.500  45.209  66.043  1.00  0.00    -0.067 N 
HETATM    2  H   UNL     1      43.230  44.972  66.732  1.00  0.00     0.280 HD
HETATM    3  C   UNL     1      41.190  44.743  66.610  1.00  0.00     0.236 C 
HETATM    4  C   UNL     1      40.064  44.831  65.581  1.00  0.00     0.039 C 
HETATM    5  C   UNL     1      40.351  44.156  64.211  1.00  0.00    -0.013 C 
HETATM    6  C   UNL     1      40.289  42.606  64.288  1.00  0.00     0.244 C 
HETATM    7  N   UNL     1      38.876  42.102  64.428  1.00  0.00    -0.073 N 
HETATM    8  H   UNL     1      38.464  42.470  65.296  1.00  0.00     0.279 HD
HETATM    9  C   UNL     1      38.829  40.595  64.567  1.00  0.00     0.269 C 
HETATM   10  C   UNL     1      37.976  42.555  63.285  1.00  0.00     0.243 C 
HETATM   11  C   UNL     1      37.888  44.090  63.259  1.00  0.00     0.045 C 
HETATM   12  C   UNL     1      39.332  44.644  63.133  1.00  0.00     0.022 C 
HETATM   13  C   UNL     1      41.770  44.599  63.741  1.00  0.00     0.039 C 
HETATM   14  C   UNL     1      42.870  44.462  64.793  1.00  0.00     0.236 C 
ENDROOT
BRANCH  11  15
HETATM   15  C   UNL     1      37.064  44.740  64.371  1.00  0.00    -0.052 A 
HETATM   16  C   UNL     1      36.352  44.010  65.339  1.00  0.00     0.007 A 
HETATM   17  C   UNL     1      35.621  44.658  66.341  1.00  0.00     0.001 A 
HETATM   18  C   UNL     1      35.562  46.046  66.382  1.00  0.00     0.000 A 
HETATM   19  C   UNL     1      36.211  46.789  65.404  1.00  0.00     0.001 A 
HETATM   20  C   UNL     1      36.942  46.143  64.404  1.00  0.00     0.007 A 
ENDBRANCH  11  15
BRANCH   1  21
HETATM   21  C   UNL     1      42.652  46.726  65.899  1.00  0.00     0.277 C 
BRANCH  21  22
HETATM   22  C   UNL     1      42.105  47.574  66.991  1.00  0.00     0.011 A 
HETATM   23  C   UNL     1      42.740  47.933  68.206  1.00  0.00     0.149 A 
HETATM   24  N   UNL     1      41.971  48.655  69.008  1.00  0.00    -0.185 NA
HETATM   25  N   UNL     1      40.842  48.833  68.307  1.00  0.00    -0.278 N 
HETATM   26  C   UNL     1      39.770  49.616  68.880  1.00  0.00     0.179 C 
HETATM   27  C   UNL     1      40.883  48.238  67.064  1.00  0.00     0.043 A 
BRANCH  27  28
HETATM   28  C   UNL     1      39.754  48.385  66.042  1.00  0.00     0.038 A 
HETATM   29  C   UNL     1      39.621  49.680  65.271  1.00  0.00     0.011 A 
HETATM   30  C   UNL     1      40.004  48.430  64.555  1.00  0.00     0.011 A 
ENDBRANCH  27  28
ENDBRANCH  21  22
ENDBRANCH   1  21
TORSDOF 4
ENDMDL
MODEL 7
REMARK VINA RESULT:      -8.0      4.034     10.637
REMARK  4 active torsions:
REMARK  status: ('A' for Active; 'I' for Inactive)
REMARK    1  A    between atoms: C_5  and  C_6 
REMARK    2  A    between atoms: C_6  and  N_7 
REMARK    3  A    between atoms: C_17  and  C_18 
REMARK    4  A    between atoms: C_27  and  C_28 
ROOT
HETATM    1  N   UNL     1      21.451  50.599  49.390  1.00  0.00    -0.067 N 
HETATM    2  H   UNL     1      22.233  51.089  49.849  1.00  0.00     0.280 HD
HETATM    3  C   UNL     1      20.759  51.599  48.509  1.00  0.00     0.236 C 
HETATM    4  C   UNL     1      19.446  51.050  47.953  1.00  0.00     0.039 C 
HETATM    5  C   UNL     1      18.465  50.460  49.003  1.00  0.00    -0.013 C 
HETATM    6  C   UNL     1      17.761  51.560  49.843  1.00  0.00     0.244 C 
HETATM    7  N   UNL     1      16.721  52.303  49.045  1.00  0.00    -0.073 N 
HETATM    8  H   UNL     1      17.170  52.766  48.244  1.00  0.00     0.279 HD
HETATM    9  C   UNL     1      16.085  53.416  49.851  1.00  0.00     0.269 C 
HETATM   10  C   UNL     1      15.648  51.381  48.479  1.00  0.00     0.243 C 
HETATM   11  C   UNL     1      16.282  50.360  47.520  1.00  0.00     0.045 C 
HETATM   12  C   UNL     1      17.374  49.587  48.307  1.00  0.00     0.022 C 
HETATM   13  C   UNL     1      19.276  49.520  49.948  1.00  0.00     0.039 C 
HETATM   14  C   UNL     1      20.564  50.123  50.506  1.00  0.00     0.236 C 
ENDROOT
BRANCH  11  15
HETATM   15  C   UNL     1      16.750  50.899  46.169  1.00  0.00    -0.052 A 
HETATM   16  C   UNL     1      16.563  52.231  45.756  1.00  0.00     0.007 A 
HETATM   17  C   UNL     1      17.022  52.673  44.510  1.00  0.00     0.001 A 
HETATM   18  C   UNL     1      17.649  51.791  43.639  1.00  0.00     0.000 A 
HETATM   19  C   UNL     1      17.796  50.458  44.000  1.00  0.00     0.001 A 
HETATM   20  C   UNL     1      17.340  50.016  45.244  1.00  0.00     0.007 A 
ENDBRANCH  11  15
BRANCH   1  21
HETATM   21  C   UNL     1      22.155  49.453  48.658  1.00  0.00     0.277 C 
BRANCH  21  22
HETATM   22  C   UNL     1      23.627  49.559  48.477  1.00  0.00     0.011 A 
HETATM   23  C   UNL     1      24.332  50.469  47.652  1.00  0.00     0.149 A 
HETATM   24  N   UNL     1      25.643  50.277  47.658  1.00  0.00    -0.185 NA
HETATM   25  N   UNL     1      25.824  49.278  48.533  1.00  0.00    -0.278 N 
HETATM   26  C   UNL     1      27.167  48.817  48.813  1.00  0.00     0.179 C 
HETATM   27  C   UNL     1      24.645  48.833  49.091  1.00  0.00     0.043 A 
BRANCH  27  28
HETATM   28  C   UNL     1      24.602  47.769  50.189  1.00  0.00     0.038 A 
HETATM   29  C   UNL     1      24.166  46.363  49.837  1.00  0.00     0.011 A 
HETATM   30  C   UNL     1      25.576  46.619  50.246  1.00  0.00     0.011 A 
ENDBRANCH  27  28
ENDBRANCH  21  22
ENDBRANCH   1  21
TORSDOF 4
ENDMDL
MODEL 8
REMARK VINA RESULT:      -7.8      6.841     12.180
REMARK  4 active torsions:
REMARK  status: ('A' for Active; 'I' for Inactive)
REMARK    1  A    between atoms: C_5  and  C_6 
REMARK    2  A    between atoms: C_6  and  N_7 
REMARK    3  A    between atoms: C_17  and  C_18 
REMARK    4  A    between atoms: C_27  and  C_28 
ROOT
HETATM    1  N   UNL     1      18.176  52.123  49.628  1.00  0.00    -0.067 N 
HETATM    2  H   UNL     1      18.651  52.789  50.255  1.00  0.00     0.280 HD
HETATM    3  C   UNL     1      18.386  52.612  48.224  1.00  0.00     0.236 C 
HETATM    4  C   UNL     1      17.536  51.834  47.221  1.00  0.00     0.039 C 
HETATM    5  C   UNL     1      16.022  51.737  47.556  1.00  0.00    -0.013 C 
HETATM    6  C   UNL     1      15.270  53.072  47.304  1.00  0.00     0.244 C 
HETATM    7  N   UNL     1      15.095  53.356  45.835  1.00  0.00    -0.073 N 
HETATM    8  H   UNL     1      16.019  53.433  45.388  1.00  0.00     0.279 HD
HETATM    9  C   UNL     1      14.419  54.690  45.597  1.00  0.00     0.269 C 
HETATM   10  C   UNL     1      14.345  52.247  45.109  1.00  0.00     0.243 C 
HETATM   11  C   UNL     1      15.129  50.927  45.205  1.00  0.00     0.045 C 
HETATM   12  C   UNL     1      15.343  50.613  46.710  1.00  0.00     0.022 C 
HETATM   13  C   UNL     1      15.883  51.333  49.056  1.00  0.00     0.039 C 
HETATM   14  C   UNL     1      16.727  52.160  50.026  1.00  0.00     0.236 C 
ENDROOT
BRANCH  11  15
HETATM   15  C   UNL     1      16.400  50.832  44.361  1.00  0.00    -0.052 A 
HETATM   16  C   UNL     1      16.824  51.840  43.476  1.00  0.00     0.007 A 
HETATM   17  C   UNL     1      18.002  51.703  42.735  1.00  0.00     0.001 A 
HETATM   18  C   UNL     1      18.767  50.547  42.837  1.00  0.00     0.000 A 
HETATM   19  C   UNL     1      18.341  49.513  43.662  1.00  0.00     0.001 A 
HETATM   20  C   UNL     1      17.165  49.650  44.404  1.00  0.00     0.007 A 
ENDBRANCH  11  15
BRANCH   1  21
HETATM   21  C   UNL     1      18.855  50.794  49.971  1.00  0.00     0.277 C 
BRANCH  21  22
HETATM   22  C   UNL     1      20.307  50.673  49.677  1.00  0.00     0.011 A 
HETATM   23  C   UNL     1      21.391  51.052  50.508  1.00  0.00     0.149 A 
HETATM   24  N   UNL     1      22.576  50.873  49.942  1.00  0.00    -0.185 NA
HETATM   25  N   UNL     1      22.291  50.317  48.756  1.00  0.00    -0.278 N 
HETATM   26  C   UNL     1      23.373  49.955  47.867  1.00  0.00     0.179 C 
HETATM   27  C   UNL     1      20.939  50.134  48.559  1.00  0.00     0.043 A 
BRANCH  27  28
HETATM   28  C   UNL     1      20.373  49.428  47.326  1.00  0.00     0.038 A 
HETATM   29  C   UNL     1      20.435  47.917  47.247  1.00  0.00     0.011 A 
HETATM   30  C   UNL     1      19.115  48.597  47.370  1.00  0.00     0.011 A 
ENDBRANCH  27  28
ENDBRANCH  21  22
ENDBRANCH   1  21
TORSDOF 4
ENDMDL
MODEL 9
REMARK VINA RESULT:      -7.8      6.277     10.853
REMARK  4 active torsions:
REMARK  status: ('A' for Active; 'I' for Inactive)
REMARK    1  A    between atoms: C_5  and  C_6 
REMARK    2  A    between atoms: C_6  and  N_7 
REMARK    3  A    between atoms: C_17  and  C_18 
REMARK    4  A    between atoms: C_27  and  C_28 
ROOT
HETATM    1  N   UNL     1      17.794  46.540  47.752  1.00  0.00    -0.067 N 
HETATM    2  H   UNL     1      17.392  45.600  47.885  1.00  0.00     0.280 HD
HETATM    3  C   UNL     1      16.702  47.531  48.033  1.00  0.00     0.236 C 
HETATM    4  C   UNL     1      17.112  48.951  47.646  1.00  0.00     0.039 C 
HETATM    5  C   UNL     1      17.661  49.123  46.203  1.00  0.00    -0.013 C 
HETATM    6  C   UNL     1      16.542  49.050  45.128  1.00  0.00     0.244 C 
HETATM    7  N   UNL     1      15.679  50.285  45.124  1.00  0.00    -0.073 N 
HETATM    8  H   UNL     1      15.222  50.387  46.040  1.00  0.00     0.279 HD
HETATM    9  C   UNL     1      14.552  50.180  44.119  1.00  0.00     0.269 C 
HETATM   10  C   UNL     1      16.481  51.559  44.886  1.00  0.00     0.243 C 
HETATM   11  C   UNL     1      17.511  51.753  46.012  1.00  0.00     0.045 C 
HETATM   12  C   UNL     1      18.407  50.486  46.056  1.00  0.00     0.022 C 
HETATM   13  C   UNL     1      18.706  47.994  45.946  1.00  0.00     0.039 C 
HETATM   14  C   UNL     1      18.240  46.587  46.317  1.00  0.00     0.236 C 
ENDROOT
BRANCH  11  15
HETATM   15  C   UNL     1      16.955  52.172  47.373  1.00  0.00    -0.052 A 
HETATM   16  C   UNL     1      15.607  52.507  47.594  1.00  0.00     0.007 A 
HETATM   17  C   UNL     1      15.151  52.874  48.864  1.00  0.00     0.001 A 
HETATM   18  C   UNL     1      16.034  52.945  49.934  1.00  0.00     0.000 A 
HETATM   19  C   UNL     1      17.382  52.674  49.731  1.00  0.00     0.001 A 
HETATM   20  C   UNL     1      17.837  52.304  48.463  1.00  0.00     0.007 A 
ENDBRANCH  11  15
BRANCH   1  21
HETATM   21  C   UNL     1      18.963  46.551  48.740  1.00  0.00     0.277 C 
BRANCH  21  22
HETATM   22  C   UNL     1      19.218  47.813  49.483  1.00  0.00     0.011 A 
HETATM   23  C   UNL     1      18.532  48.296  50.625  1.00  0.00     0.149 A 
HETATM   24  N   UNL     1      18.952  49.486  51.028  1.00  0.00    -0.185 NA
HETATM   25  N   UNL     1      19.961  49.776  50.194  1.00  0.00    -0.278 N 
HETATM   26  C   UNL     1      20.685  51.017  50.363  1.00  0.00     0.179 C 
HETATM   27  C   UNL     1      20.194  48.783  49.267  1.00  0.00     0.043 A 
BRANCH  27  28
HETATM   28  C   UNL     1      21.355  48.838  48.272  1.00  0.00     0.038 A 
HETATM   29  C   UNL     1      22.729  48.383  48.716  1.00  0.00     0.011 A 
HETATM   30  C   UNL     1      21.986  47.597  47.690  1.00  0.00     0.011 A 
ENDBRANCH  27  28
ENDBRANCH  21  22
ENDBRANCH   1  21
TORSDOF 4
ENDMDL
MODEL 10
REMARK VINA RESULT:      -7.5     11.586     14.212
REMARK  4 active torsions:
REMARK  status: ('A' for Active; 'I' for Inactive)
REMARK    1  A    between atoms: C_5  and  C_6 
REMARK    2  A    between atoms: C_6  and  N_7 
REMARK    3  A    between atoms: C_17  and  C_18 
REMARK    4  A    between atoms: C_27  and  C_28 
ROOT
HETATM    1  N   UNL     1      30.071  53.274  39.750  1.00  0.00    -0.067 N 
HETATM    2  H   UNL     1      30.246  54.043  39.086  1.00  0.00     0.280 HD
HETATM    3  C   UNL     1      30.026  52.004  38.951  1.00  0.00     0.236 C 
HETATM    4  C   UNL     1      29.544  50.823  39.793  1.00  0.00     0.039 C 
HETATM    5  C   UNL     1      28.213  51.044  40.564  1.00  0.00    -0.013 C 
HETATM    6  C   UNL     1      26.972  51.008  39.630  1.00  0.00     0.244 C 
HETATM    7  N   UNL     1      26.659  49.612  39.159  1.00  0.00    -0.073 N 
HETATM    8  H   UNL     1      27.458  49.243  38.625  1.00  0.00     0.279 HD
HETATM    9  C   UNL     1      25.489  49.593  38.198  1.00  0.00     0.269 C 
HETATM   10  C   UNL     1      26.413  48.646  40.310  1.00  0.00     0.243 C 
HETATM   11  C   UNL     1      27.672  48.535  41.186  1.00  0.00     0.045 C 
HETATM   12  C   UNL     1      28.035  49.962  41.676  1.00  0.00     0.022 C 
HETATM   13  C   UNL     1      28.292  52.430  41.276  1.00  0.00     0.039 C 
HETATM   14  C   UNL     1      28.746  53.586  40.387  1.00  0.00     0.236 C 
ENDROOT
BRANCH  11  15
HETATM   15  C   UNL     1      28.848  47.763  40.586  1.00  0.00    -0.052 A 
HETATM   16  C   UNL     1      28.698  46.686  39.694  1.00  0.00     0.007 A 
HETATM   17  C   UNL     1      29.811  46.022  39.167  1.00  0.00     0.001 A 
HETATM   18  C   UNL     1      31.095  46.397  39.542  1.00  0.00     0.000 A 
HETATM   19  C   UNL     1      31.269  47.421  40.464  1.00  0.00     0.001 A 
HETATM   20  C   UNL     1      30.158  48.086  40.989  1.00  0.00     0.007 A 
ENDBRANCH  11  15
BRANCH   1  21
HETATM   21  C   UNL     1      31.245  53.396  40.726  1.00  0.00     0.277 C 
BRANCH  21  22
HETATM   22  C   UNL     1      32.497  52.671  40.383  1.00  0.00     0.011 A 
HETATM   23  C   UNL     1      33.392  52.948  39.320  1.00  0.00     0.149 A 
HETATM   24  N   UNL     1      34.393  52.085  39.237  1.00  0.00    -0.185 NA
HETATM   25  N   UNL     1      34.205  51.264  40.280  1.00  0.00    -0.278 N 
HETATM   26  C   UNL     1      35.149  50.194  40.516  1.00  0.00     0.179 C 
HETATM   27  C   UNL     1      33.099  51.596  41.032  1.00  0.00     0.043 A 
BRANCH  27  28
HETATM   28  C   UNL     1      32.733  50.869  42.327  1.00  0.00     0.038 A 
HETATM   29  C   UNL     1      33.092  51.501  43.654  1.00  0.00     0.011 A 
HETATM   30  C   UNL     1      31.660  51.366  43.264  1.00  0.00     0.011 A 
ENDBRANCH  27  28
ENDBRANCH  21  22
ENDBRANCH   1  21
TORSDOF 4
ENDMDL
