MODEL 1
REMARK VINA RESULT:     -11.5      0.000      0.000
REMARK  6 active torsions:
REMARK  status: ('A' for Active; 'I' for Inactive)
REMARK    1  A    between atoms: C_2  and  N_3 
REMARK    2  A    between atoms: C_2  and  C_32 
REMARK       I    between atoms: N_3  and  C_4 
REMARK    3  A    between atoms: C_4  and  C_5 
REMARK    4  A    between atoms: C_6  and  N_7 
REMARK       I    between atoms: N_7  and  C_8 
REMARK    5  A    between atoms: C_8  and  C_9 
REMARK    6  A    between atoms: C_9  and  N_10 
ROOT
HETATM    1  N   UNL     1      23.655  47.140  50.025  1.00  0.00    -0.325 N 
HETATM    2  C   UNL     1      23.882  45.847  49.587  1.00  0.00     0.240 C 
HETATM    3  O   UNL     1      24.021  45.503  48.415  1.00  0.00    -0.271 OA
HETATM    4  H   UNL     1      23.429  47.271  51.018  1.00  0.00     0.169 HD
ENDROOT
BRANCH   1   5
HETATM    5  C   UNL     1      23.675  48.330  49.250  1.00  0.00     0.050 A 
HETATM    6  C   UNL     1      22.459  48.916  48.835  1.00  0.00     0.058 A 
HETATM    7  C   UNL     1      22.452  50.117  48.105  1.00  0.00     0.019 A 
HETATM    8  C   UNL     1      23.652  50.734  47.760  1.00  0.00     0.001 A 
HETATM    9  C   UNL     1      24.857  50.157  48.147  1.00  0.00     0.002 A 
HETATM   10  C   UNL     1      24.869  48.969  48.887  1.00  0.00     0.030 A 
BRANCH   6  11
HETATM   11  C   UNL     1      21.162  48.270  49.164  1.00  0.00     0.254 C 
HETATM   12  N   UNL     1      20.297  49.020  49.932  1.00  0.00    -0.349 N 
HETATM   13  H   UNL     1      20.494  50.004  50.041  1.00  0.00     0.163 HD
HETATM   14  O   UNL     1      20.908  47.157  48.718  1.00  0.00    -0.268 OA
BRANCH  12  15
HETATM   15  C   UNL     1      18.921  48.601  50.155  1.00  0.00     0.114 C 
HETATM   16  C   UNL     1      18.655  48.459  51.655  1.00  0.00     0.037 C 
BRANCH  15  17
HETATM   17  C   UNL     1      17.962  49.573  49.491  1.00  0.00    -0.036 A 
HETATM   18  C   UNL     1      17.088  49.113  48.492  1.00  0.00     0.009 A 
HETATM   19  C   UNL     1      16.177  49.979  47.886  1.00  0.00     0.001 A 
HETATM   20  C   UNL     1      16.139  51.322  48.250  1.00  0.00     0.000 A 
HETATM   21  C   UNL     1      17.016  51.801  49.220  1.00  0.00     0.001 A 
HETATM   22  C   UNL     1      17.921  50.934  49.838  1.00  0.00     0.009 A 
ENDBRANCH  15  17
ENDBRANCH  12  15
ENDBRANCH   6  11
ENDBRANCH   1   5
BRANCH   2  23
HETATM   23  C   UNL     1      23.868  44.808  50.705  1.00  0.00     0.240 C 
BRANCH  23  24
HETATM   24  N   UNL     1      25.065  44.957  51.500  1.00  0.00    -0.259 N 
HETATM   25  C   UNL     1      26.231  45.470  51.032  1.00  0.00     0.326 A 
HETATM   26  O   UNL     1      26.454  45.880  49.907  1.00  0.00    -0.247 OA
HETATM   27  N   UNL     1      27.161  45.431  52.040  1.00  0.00    -0.324 N 
HETATM   28  C   UNL     1      26.611  44.935  53.285  1.00  0.00     0.120 A 
HETATM   29  H   UNL     1      28.100  45.780  51.905  1.00  0.00     0.165 HD
HETATM   30  C   UNL     1      27.344  43.704  53.821  1.00  0.00     0.080 C 
HETATM   31  C   UNL     1      26.523  46.038  54.339  1.00  0.00     0.046 C 
HETATM   32  C   UNL     1      25.204  44.549  52.797  1.00  0.00     0.257 A 
HETATM   33  C   UNL     1      28.612  44.045  54.571  1.00  0.00    -0.049 A 
HETATM   34  C   UNL     1      28.859  45.343  55.051  1.00  0.00    -0.052 A 
HETATM   35  C   UNL     1      29.530  43.020  54.847  1.00  0.00     0.007 A 
HETATM   36  C   UNL     1      27.914  46.489  54.779  1.00  0.00     0.042 C 
HETATM   37  C   UNL     1      30.044  45.598  55.761  1.00  0.00     0.007 A 
HETATM   38  C   UNL     1      30.954  44.574  56.018  1.00  0.00     0.001 A 
HETATM   39  C   UNL     1      30.695  43.284  55.565  1.00  0.00     0.001 A 
HETATM   40  O   UNL     1      24.358  43.980  53.472  1.00  0.00    -0.270 OA
ENDBRANCH  23  24
ENDBRANCH   2  23
TORSDOF 6
ENDMDL
MODEL 2
REMARK VINA RESULT:     -11.5      1.778      2.850
REMARK  6 active torsions:
REMARK  status: ('A' for Active; 'I' for Inactive)
REMARK    1  A    between atoms: C_2  and  N_3 
REMARK    2  A    between atoms: C_2  and  C_32 
REMARK       I    between atoms: N_3  and  C_4 
REMARK    3  A    between atoms: C_4  and  C_5 
REMARK    4  A    between atoms: C_6  and  N_7 
REMARK       I    between atoms: N_7  and  C_8 
REMARK    5  A    between atoms: C_8  and  C_9 
REMARK    6  A    between atoms: C_9  and  N_10 
ROOT
HETATM    1  N   UNL     1      25.030  46.777  50.154  1.00  0.00    -0.325 N 
HETATM    2  C   UNL     1      24.935  46.641  51.529  1.00  0.00     0.240 C 
HETATM    3  O   UNL     1      25.118  47.536  52.350  1.00  0.00    -0.271 OA
HETATM    4  H   UNL     1      24.979  45.921  49.589  1.00  0.00     0.169 HD
ENDROOT
BRANCH   1   5
HETATM    5  C   UNL     1      25.215  47.976  49.416  1.00  0.00     0.050 A 
HETATM    6  C   UNL     1      24.094  48.645  48.877  1.00  0.00     0.058 A 
HETATM    7  C   UNL     1      24.247  49.857  48.180  1.00  0.00     0.019 A 
HETATM    8  C   UNL     1      25.514  50.402  47.992  1.00  0.00     0.001 A 
HETATM    9  C   UNL     1      26.628  49.742  48.502  1.00  0.00     0.002 A 
HETATM   10  C   UNL     1      26.480  48.544  49.209  1.00  0.00     0.030 A 
BRANCH   6  11
HETATM   11  C   UNL     1      22.730  48.078  49.037  1.00  0.00     0.254 C 
HETATM   12  N   UNL     1      21.739  48.982  49.359  1.00  0.00    -0.349 N 
HETATM   13  H   UNL     1      21.946  49.965  49.259  1.00  0.00     0.163 HD
HETATM   14  O   UNL     1      22.542  46.883  48.839  1.00  0.00    -0.268 OA
BRANCH  12  15
HETATM   15  C   UNL     1      20.334  48.605  49.343  1.00  0.00     0.114 C 
HETATM   16  C   UNL     1      19.582  49.344  50.451  1.00  0.00     0.037 C 
BRANCH  15  17
HETATM   17  C   UNL     1      19.736  48.865  47.971  1.00  0.00    -0.036 A 
HETATM   18  C   UNL     1      19.543  50.186  47.537  1.00  0.00     0.009 A 
HETATM   19  C   UNL     1      19.023  50.453  46.270  1.00  0.00     0.001 A 
HETATM   20  C   UNL     1      18.664  49.405  45.426  1.00  0.00     0.000 A 
HETATM   21  C   UNL     1      18.824  48.089  45.850  1.00  0.00     0.001 A 
HETATM   22  C   UNL     1      19.357  47.818  47.114  1.00  0.00     0.009 A 
ENDBRANCH  15  17
ENDBRANCH  12  15
ENDBRANCH   6  11
ENDBRANCH   1   5
BRANCH   2  23
HETATM   23  C   UNL     1      24.650  45.213  51.986  1.00  0.00     0.240 C 
BRANCH  23  24
HETATM   24  N   UNL     1      25.693  44.793  52.894  1.00  0.00    -0.259 N 
HETATM   25  C   UNL     1      25.464  44.249  54.116  1.00  0.00     0.326 A 
HETATM   26  O   UNL     1      24.383  44.028  54.631  1.00  0.00    -0.247 OA
HETATM   27  N   UNL     1      26.673  44.004  54.717  1.00  0.00    -0.324 N 
HETATM   28  C   UNL     1      27.796  44.323  53.859  1.00  0.00     0.120 A 
HETATM   29  H   UNL     1      26.730  43.584  55.635  1.00  0.00     0.165 HD
HETATM   30  C   UNL     1      28.751  45.349  54.471  1.00  0.00     0.080 C 
HETATM   31  C   UNL     1      28.537  43.063  53.413  1.00  0.00     0.046 C 
HETATM   32  C   UNL     1      27.034  44.941  52.675  1.00  0.00     0.257 A 
HETATM   33  C   UNL     1      29.731  44.742  55.450  1.00  0.00    -0.049 A 
HETATM   34  C   UNL     1      29.984  43.359  55.479  1.00  0.00    -0.052 A 
HETATM   35  C   UNL     1      30.450  45.594  56.302  1.00  0.00     0.007 A 
HETATM   36  C   UNL     1      29.236  42.392  54.593  1.00  0.00     0.042 C 
HETATM   37  C   UNL     1      30.921  42.852  56.394  1.00  0.00     0.007 A 
HETATM   38  C   UNL     1      31.619  43.708  57.245  1.00  0.00     0.001 A 
HETATM   39  C   UNL     1      31.387  45.078  57.196  1.00  0.00     0.001 A 
HETATM   40  O   UNL     1      27.555  45.468  51.702  1.00  0.00    -0.270 OA
ENDBRANCH  23  24
ENDBRANCH   2  23
TORSDOF 6
ENDMDL
MODEL 3
REMARK VINA RESULT:     -11.3      2.488      4.386
REMARK  6 active torsions:
REMARK  status: ('A' for Active; 'I' for Inactive)
REMARK    1  A    between atoms: C_2  and  N_3 
REMARK    2  A    between atoms: C_2  and  C_32 
REMARK       I    between atoms: N_3  and  C_4 
REMARK    3  A    between atoms: C_4  and  C_5 
REMARK    4  A    between atoms: C_6  and  N_7 
REMARK       I    between atoms: N_7  and  C_8 
REMARK    5  A    between atoms: C_8  and  C_9 
REMARK    6  A    between atoms: C_9  and  N_10 
ROOT
HETATM    1  N   UNL     1      24.894  42.997  48.125  1.00  0.00    -0.325 N 
HETATM    2  C   UNL     1      25.321  42.119  49.106  1.00  0.00     0.240 C 
HETATM    3  O   UNL     1      24.593  41.424  49.810  1.00  0.00    -0.271 OA
HETATM    4  H   UNL     1      25.597  43.611  47.699  1.00  0.00     0.169 HD
ENDROOT
BRANCH   1   5
HETATM    5  C   UNL     1      23.570  43.170  47.639  1.00  0.00     0.050 A 
HETATM    6  C   UNL     1      22.806  44.277  48.071  1.00  0.00     0.058 A 
HETATM    7  C   UNL     1      21.510  44.494  47.572  1.00  0.00     0.019 A 
HETATM    8  C   UNL     1      20.952  43.603  46.659  1.00  0.00     0.001 A 
HETATM    9  C   UNL     1      21.688  42.499  46.241  1.00  0.00     0.002 A 
HETATM   10  C   UNL     1      22.984  42.286  46.723  1.00  0.00     0.030 A 
BRANCH   6  11
HETATM   11  C   UNL     1      23.361  45.234  49.064  1.00  0.00     0.254 C 
HETATM   12  N   UNL     1      23.467  46.542  48.641  1.00  0.00    -0.349 N 
HETATM   13  H   UNL     1      22.981  46.806  47.796  1.00  0.00     0.163 HD
HETATM   14  O   UNL     1      23.649  44.842  50.188  1.00  0.00    -0.268 OA
BRANCH  12  15
HETATM   15  C   UNL     1      23.796  47.614  49.567  1.00  0.00     0.114 C 
HETATM   16  C   UNL     1      25.308  47.845  49.583  1.00  0.00     0.037 C 
BRANCH  15  17
HETATM   17  C   UNL     1      23.027  48.874  49.207  1.00  0.00    -0.036 A 
HETATM   18  C   UNL     1      21.624  48.856  49.212  1.00  0.00     0.009 A 
HETATM   19  C   UNL     1      20.893  50.007  48.914  1.00  0.00     0.001 A 
HETATM   20  C   UNL     1      21.552  51.187  48.581  1.00  0.00     0.000 A 
HETATM   21  C   UNL     1      22.943  51.217  48.546  1.00  0.00     0.001 A 
HETATM   22  C   UNL     1      23.678  50.069  48.857  1.00  0.00     0.009 A 
ENDBRANCH  15  17
ENDBRANCH  12  15
ENDBRANCH   6  11
ENDBRANCH   1   5
BRANCH   2  23
HETATM   23  C   UNL     1      26.832  42.130  49.323  1.00  0.00     0.240 C 
BRANCH  23  24
HETATM   24  N   UNL     1      27.133  42.915  50.498  1.00  0.00    -0.259 N 
HETATM   25  C   UNL     1      27.346  44.255  50.484  1.00  0.00     0.326 A 
HETATM   26  O   UNL     1      27.316  44.993  49.516  1.00  0.00    -0.247 OA
HETATM   27  N   UNL     1      27.639  44.664  51.761  1.00  0.00    -0.324 N 
HETATM   28  C   UNL     1      27.561  43.583  52.722  1.00  0.00     0.120 A 
HETATM   29  H   UNL     1      27.819  45.635  51.975  1.00  0.00     0.165 HD
HETATM   30  C   UNL     1      28.866  43.362  53.490  1.00  0.00     0.080 C 
HETATM   31  C   UNL     1      26.376  43.760  53.671  1.00  0.00     0.046 C 
HETATM   32  C   UNL     1      27.303  42.413  51.758  1.00  0.00     0.257 A 
HETATM   33  C   UNL     1      29.045  44.318  54.648  1.00  0.00    -0.049 A 
HETATM   34  C   UNL     1      27.964  45.040  55.183  1.00  0.00    -0.052 A 
HETATM   35  C   UNL     1      30.313  44.432  55.239  1.00  0.00     0.007 A 
HETATM   36  C   UNL     1      26.580  44.966  54.585  1.00  0.00     0.042 C 
HETATM   37  C   UNL     1      28.185  45.897  56.273  1.00  0.00     0.007 A 
HETATM   38  C   UNL     1      29.452  46.011  56.844  1.00  0.00     0.001 A 
HETATM   39  C   UNL     1      30.515  45.275  56.330  1.00  0.00     0.001 A 
HETATM   40  O   UNL     1      27.253  41.235  52.081  1.00  0.00    -0.270 OA
ENDBRANCH  23  24
ENDBRANCH   2  23
TORSDOF 6
ENDMDL
MODEL 4
REMARK VINA RESULT:     -10.9      5.579     10.682
REMARK  6 active torsions:
REMARK  status: ('A' for Active; 'I' for Inactive)
REMARK    1  A    between atoms: C_2  and  N_3 
REMARK    2  A    between atoms: C_2  and  C_32 
REMARK       I    between atoms: N_3  and  C_4 
REMARK    3  A    between atoms: C_4  and  C_5 
REMARK    4  A    between atoms: C_6  and  N_7 
REMARK       I    between atoms: N_7  and  C_8 
REMARK    5  A    between atoms: C_8  and  C_9 
REMARK    6  A    between atoms: C_9  and  N_10 
ROOT
HETATM    1  N   UNL     1      25.564  43.192  51.378  1.00  0.00    -0.325 N 
HETATM    2  C   UNL     1      26.211  42.603  50.305  1.00  0.00     0.240 C 
HETATM    3  O   UNL     1      26.881  43.195  49.462  1.00  0.00    -0.271 OA
HETATM    4  H   UNL     1      24.933  42.602  51.932  1.00  0.00     0.169 HD
ENDROOT
BRANCH   1   5
HETATM    5  C   UNL     1      25.651  44.545  51.802  1.00  0.00     0.050 A 
HETATM    6  C   UNL     1      26.504  44.889  52.873  1.00  0.00     0.058 A 
HETATM    7  C   UNL     1      26.639  46.227  53.283  1.00  0.00     0.019 A 
HETATM    8  C   UNL     1      25.913  47.231  52.649  1.00  0.00     0.001 A 
HETATM    9  C   UNL     1      25.055  46.902  51.604  1.00  0.00     0.002 A 
HETATM   10  C   UNL     1      24.928  45.574  51.183  1.00  0.00     0.030 A 
BRANCH   6  11
HETATM   11  C   UNL     1      27.274  43.839  53.589  1.00  0.00     0.254 C 
HETATM   12  N   UNL     1      28.642  43.879  53.420  1.00  0.00    -0.349 N 
HETATM   13  H   UNL     1      29.043  44.712  53.014  1.00  0.00     0.163 HD
HETATM   14  O   UNL     1      26.687  43.039  54.308  1.00  0.00    -0.268 OA
BRANCH  12  15
HETATM   15  C   UNL     1      29.530  43.048  54.219  1.00  0.00     0.114 C 
HETATM   16  C   UNL     1      30.691  42.547  53.358  1.00  0.00     0.037 C 
BRANCH  15  17
HETATM   17  C   UNL     1      30.010  43.815  55.440  1.00  0.00    -0.036 A 
HETATM   18  C   UNL     1      31.011  43.264  56.255  1.00  0.00     0.009 A 
HETATM   19  C   UNL     1      31.490  43.960  57.366  1.00  0.00     0.001 A 
HETATM   20  C   UNL     1      30.960  45.205  57.694  1.00  0.00     0.000 A 
HETATM   21  C   UNL     1      29.948  45.754  56.911  1.00  0.00     0.001 A 
HETATM   22  C   UNL     1      29.476  45.066  55.790  1.00  0.00     0.009 A 
ENDBRANCH  15  17
ENDBRANCH  12  15
ENDBRANCH   6  11
ENDBRANCH   1   5
BRANCH   2  23
HETATM   23  C   UNL     1      25.960  41.103  50.185  1.00  0.00     0.240 C 
BRANCH  23  24
HETATM   24  N   UNL     1      26.694  40.592  49.049  1.00  0.00    -0.259 N 
HETATM   25  C   UNL     1      27.968  40.131  49.112  1.00  0.00     0.326 A 
HETATM   26  O   UNL     1      28.679  40.068  50.099  1.00  0.00    -0.247 OA
HETATM   27  N   UNL     1      28.360  39.760  47.850  1.00  0.00    -0.324 N 
HETATM   28  C   UNL     1      27.299  39.901  46.874  1.00  0.00     0.120 A 
HETATM   29  H   UNL     1      29.278  39.374  47.675  1.00  0.00     0.165 HD
HETATM   30  C   UNL     1      27.668  40.823  45.710  1.00  0.00     0.080 C 
HETATM   31  C   UNL     1      26.808  38.541  46.378  1.00  0.00     0.046 C 
HETATM   32  C   UNL     1      26.232  40.562  47.763  1.00  0.00     0.257 A 
HETATM   33  C   UNL     1      28.493  40.138  44.645  1.00  0.00    -0.049 A 
HETATM   34  C   UNL     1      28.563  38.736  44.553  1.00  0.00    -0.052 A 
HETATM   35  C   UNL     1      29.150  40.926  43.689  1.00  0.00     0.007 A 
HETATM   36  C   UNL     1      27.885  37.836  45.557  1.00  0.00     0.042 C 
HETATM   37  C   UNL     1      29.328  38.154  43.530  1.00  0.00     0.007 A 
HETATM   38  C   UNL     1      29.987  38.948  42.593  1.00  0.00     0.001 A 
HETATM   39  C   UNL     1      29.895  40.334  42.669  1.00  0.00     0.001 A 
HETATM   40  O   UNL     1      25.152  40.980  47.372  1.00  0.00    -0.270 OA
ENDBRANCH  23  24
ENDBRANCH   2  23
TORSDOF 6
ENDMDL
MODEL 5
REMARK VINA RESULT:     -10.8      3.053      9.811
REMARK  6 active torsions:
REMARK  status: ('A' for Active; 'I' for Inactive)
REMARK    1  A    between atoms: C_2  and  N_3 
REMARK    2  A    between atoms: C_2  and  C_32 
REMARK       I    between atoms: N_3  and  C_4 
REMARK    3  A    between atoms: C_4  and  C_5 
REMARK    4  A    between atoms: C_6  and  N_7 
REMARK       I    between atoms: N_7  and  C_8 
REMARK    5  A    between atoms: C_8  and  C_9 
REMARK    6  A    between atoms: C_9  and  N_10 
ROOT
HETATM    1  N   UNL     1      24.946  40.958  49.724  1.00  0.00    -0.325 N 
HETATM    2  C   UNL     1      24.459  41.349  48.489  1.00  0.00     0.240 C 
HETATM    3  O   UNL     1      25.125  41.470  47.463  1.00  0.00    -0.271 OA
HETATM    4  H   UNL     1      24.309  41.022  50.527  1.00  0.00     0.169 HD
ENDROOT
BRANCH   1   5
HETATM    5  C   UNL     1      26.253  40.490  50.029  1.00  0.00     0.050 A 
HETATM    6  C   UNL     1      27.083  41.243  50.887  1.00  0.00     0.058 A 
HETATM    7  C   UNL     1      28.364  40.779  51.237  1.00  0.00     0.019 A 
HETATM    8  C   UNL     1      28.839  39.577  50.720  1.00  0.00     0.001 A 
HETATM    9  C   UNL     1      28.037  38.836  49.859  1.00  0.00     0.002 A 
HETATM   10  C   UNL     1      26.756  39.285  49.518  1.00  0.00     0.030 A 
BRANCH   6  11
HETATM   11  C   UNL     1      26.617  42.543  51.436  1.00  0.00     0.254 C 
HETATM   12  N   UNL     1      26.863  42.750  52.777  1.00  0.00    -0.349 N 
HETATM   13  H   UNL     1      27.509  42.128  53.240  1.00  0.00     0.163 HD
HETATM   14  O   UNL     1      26.094  43.364  50.691  1.00  0.00    -0.268 OA
BRANCH  12  15
HETATM   15  C   UNL     1      26.650  44.049  53.396  1.00  0.00     0.114 C 
HETATM   16  C   UNL     1      25.341  44.042  54.188  1.00  0.00     0.037 C 
BRANCH  15  17
HETATM   17  C   UNL     1      27.842  44.420  54.262  1.00  0.00    -0.036 A 
HETATM   18  C   UNL     1      27.843  45.641  54.954  1.00  0.00     0.009 A 
HETATM   19  C   UNL     1      28.913  45.994  55.779  1.00  0.00     0.001 A 
HETATM   20  C   UNL     1      30.008  45.143  55.906  1.00  0.00     0.000 A 
HETATM   21  C   UNL     1      30.034  43.940  55.207  1.00  0.00     0.001 A 
HETATM   22  C   UNL     1      28.960  43.579  54.390  1.00  0.00     0.009 A 
ENDBRANCH  15  17
ENDBRANCH  12  15
ENDBRANCH   6  11
ENDBRANCH   1   5
BRANCH   2  23
HETATM   23  C   UNL     1      22.978  41.717  48.502  1.00  0.00     0.240 C 
BRANCH  23  24
HETATM   24  N   UNL     1      22.844  43.139  48.281  1.00  0.00    -0.259 N 
HETATM   25  C   UNL     1      22.901  43.729  47.061  1.00  0.00     0.326 A 
HETATM   26  O   UNL     1      23.064  43.179  45.986  1.00  0.00    -0.247 OA
HETATM   27  N   UNL     1      22.773  45.085  47.225  1.00  0.00    -0.324 N 
HETATM   28  C   UNL     1      22.549  45.459  48.606  1.00  0.00     0.120 A 
HETATM   29  H   UNL     1      22.776  45.715  46.434  1.00  0.00     0.165 HD
HETATM   30  C   UNL     1      23.599  46.430  49.147  1.00  0.00     0.080 C 
HETATM   31  C   UNL     1      21.131  45.990  48.821  1.00  0.00     0.046 C 
HETATM   32  C   UNL     1      22.706  44.078  49.265  1.00  0.00     0.257 A 
HETATM   33  C   UNL     1      23.336  47.868  48.763  1.00  0.00    -0.049 A 
HETATM   34  C   UNL     1      22.074  48.293  48.311  1.00  0.00    -0.052 A 
HETATM   35  C   UNL     1      24.363  48.810  48.927  1.00  0.00     0.007 A 
HETATM   36  C   UNL     1      20.933  47.326  48.107  1.00  0.00     0.042 C 
HETATM   37  C   UNL     1      21.879  49.645  47.989  1.00  0.00     0.007 A 
HETATM   38  C   UNL     1      22.912  50.569  48.144  1.00  0.00     0.001 A 
HETATM   39  C   UNL     1      24.152  50.153  48.617  1.00  0.00     0.001 A 
HETATM   40  O   UNL     1      22.700  43.869  50.469  1.00  0.00    -0.270 OA
ENDBRANCH  23  24
ENDBRANCH   2  23
TORSDOF 6
ENDMDL
MODEL 6
REMARK VINA RESULT:     -10.8      1.918     10.975
REMARK  6 active torsions:
REMARK  status: ('A' for Active; 'I' for Inactive)
REMARK    1  A    between atoms: C_2  and  N_3 
REMARK    2  A    between atoms: C_2  and  C_32 
REMARK       I    between atoms: N_3  and  C_4 
REMARK    3  A    between atoms: C_4  and  C_5 
REMARK    4  A    between atoms: C_6  and  N_7 
REMARK       I    between atoms: N_7  and  C_8 
REMARK    5  A    between atoms: C_8  and  C_9 
REMARK    6  A    between atoms: C_9  and  N_10 
ROOT
HETATM    1  N   UNL     1      23.384  48.389  48.816  1.00  0.00    -0.325 N 
HETATM    2  C   UNL     1      22.265  49.052  49.290  1.00  0.00     0.240 C 
HETATM    3  O   UNL     1      22.272  50.112  49.912  1.00  0.00    -0.271 OA
HETATM    4  H   UNL     1      23.247  47.449  48.425  1.00  0.00     0.169 HD
ENDROOT
BRANCH   1   5
HETATM    5  C   UNL     1      24.728  48.849  48.822  1.00  0.00     0.050 A 
HETATM    6  C   UNL     1      25.692  48.179  49.606  1.00  0.00     0.058 A 
HETATM    7  C   UNL     1      27.037  48.589  49.595  1.00  0.00     0.019 A 
HETATM    8  C   UNL     1      27.431  49.681  48.826  1.00  0.00     0.001 A 
HETATM    9  C   UNL     1      26.486  50.360  48.065  1.00  0.00     0.002 A 
HETATM   10  C   UNL     1      25.149  49.947  48.060  1.00  0.00     0.030 A 
BRANCH   6  11
HETATM   11  C   UNL     1      25.302  47.026  50.458  1.00  0.00     0.254 C 
HETATM   12  N   UNL     1      26.256  46.592  51.354  1.00  0.00    -0.349 N 
HETATM   13  H   UNL     1      27.051  47.191  51.524  1.00  0.00     0.163 HD
HETATM   14  O   UNL     1      24.174  46.556  50.364  1.00  0.00    -0.268 OA
BRANCH  12  15
HETATM   15  C   UNL     1      25.942  45.615  52.385  1.00  0.00     0.114 C 
HETATM   16  C   UNL     1      26.117  44.199  51.833  1.00  0.00     0.037 C 
BRANCH  15  17
HETATM   17  C   UNL     1      26.794  45.861  53.618  1.00  0.00    -0.036 A 
HETATM   18  C   UNL     1      27.648  44.849  54.084  1.00  0.00     0.009 A 
HETATM   19  C   UNL     1      28.463  45.059  55.198  1.00  0.00     0.001 A 
HETATM   20  C   UNL     1      28.419  46.273  55.878  1.00  0.00     0.000 A 
HETATM   21  C   UNL     1      27.558  47.278  55.445  1.00  0.00     0.001 A 
HETATM   22  C   UNL     1      26.751  47.075  54.323  1.00  0.00     0.009 A 
ENDBRANCH  15  17
ENDBRANCH  12  15
ENDBRANCH   6  11
ENDBRANCH   1   5
BRANCH   2  23
HETATM   23  C   UNL     1      20.958  48.302  49.047  1.00  0.00     0.240 C 
BRANCH  23  24
HETATM   24  N   UNL     1      19.905  49.260  48.802  1.00  0.00    -0.259 N 
HETATM   25  C   UNL     1      19.937  50.191  47.815  1.00  0.00     0.326 A 
HETATM   26  O   UNL     1      20.825  50.366  46.999  1.00  0.00    -0.247 OA
HETATM   27  N   UNL     1      18.797  50.951  47.894  1.00  0.00    -0.324 N 
HETATM   28  C   UNL     1      17.895  50.494  48.932  1.00  0.00     0.120 A 
HETATM   29  H   UNL     1      18.615  51.699  47.238  1.00  0.00     0.165 HD
HETATM   30  C   UNL     1      17.571  51.572  49.967  1.00  0.00     0.080 C 
HETATM   31  C   UNL     1      16.625  49.882  48.342  1.00  0.00     0.046 C 
HETATM   32  C   UNL     1      18.774  49.398  49.558  1.00  0.00     0.257 A 
HETATM   33  C   UNL     1      16.490  52.528  49.514  1.00  0.00    -0.049 A 
HETATM   34  C   UNL     1      15.627  52.215  48.449  1.00  0.00    -0.052 A 
HETATM   35  C   UNL     1      16.310  53.727  50.220  1.00  0.00     0.007 A 
HETATM   36  C   UNL     1      15.777  50.945  47.647  1.00  0.00     0.042 C 
HETATM   37  C   UNL     1      14.627  53.131  48.085  1.00  0.00     0.007 A 
HETATM   38  C   UNL     1      14.466  54.325  48.787  1.00  0.00     0.001 A 
HETATM   39  C   UNL     1      15.304  54.621  49.857  1.00  0.00     0.001 A 
HETATM   40  O   UNL     1      18.493  48.759  50.562  1.00  0.00    -0.270 OA
ENDBRANCH  23  24
ENDBRANCH   2  23
TORSDOF 6
ENDMDL
MODEL 7
REMARK VINA RESULT:     -10.7      1.982     11.024
REMARK  6 active torsions:
REMARK  status: ('A' for Active; 'I' for Inactive)
REMARK    1  A    between atoms: C_2  and  N_3 
REMARK    2  A    between atoms: C_2  and  C_32 
REMARK       I    between atoms: N_3  and  C_4 
REMARK    3  A    between atoms: C_4  and  C_5 
REMARK    4  A    between atoms: C_6  and  N_7 
REMARK       I    between atoms: N_7  and  C_8 
REMARK    5  A    between atoms: C_8  and  C_9 
REMARK    6  A    between atoms: C_9  and  N_10 
ROOT
HETATM    1  N   UNL     1      23.011  48.229  49.355  1.00  0.00    -0.325 N 
HETATM    2  C   UNL     1      22.088  47.784  48.425  1.00  0.00     0.240 C 
HETATM    3  O   UNL     1      22.240  47.793  47.206  1.00  0.00    -0.271 OA
HETATM    4  H   UNL     1      22.708  48.285  50.334  1.00  0.00     0.169 HD
ENDROOT
BRANCH   1   5
HETATM    5  C   UNL     1      24.348  48.646  49.114  1.00  0.00     0.050 A 
HETATM    6  C   UNL     1      25.419  47.921  49.680  1.00  0.00     0.058 A 
HETATM    7  C   UNL     1      26.752  48.288  49.420  1.00  0.00     0.019 A 
HETATM    8  C   UNL     1      27.031  49.391  48.617  1.00  0.00     0.001 A 
HETATM    9  C   UNL     1      25.983  50.124  48.070  1.00  0.00     0.002 A 
HETATM   10  C   UNL     1      24.656  49.754  48.313  1.00  0.00     0.030 A 
BRANCH   6  11
HETATM   11  C   UNL     1      25.157  46.755  50.563  1.00  0.00     0.254 C 
HETATM   12  N   UNL     1      26.152  46.452  51.468  1.00  0.00    -0.349 N 
HETATM   13  H   UNL     1      26.876  47.139  51.621  1.00  0.00     0.163 HD
HETATM   14  O   UNL     1      24.088  46.161  50.482  1.00  0.00    -0.268 OA
BRANCH  12  15
HETATM   15  C   UNL     1      25.946  45.473  52.524  1.00  0.00     0.114 C 
HETATM   16  C   UNL     1      26.135  44.060  51.971  1.00  0.00     0.037 C 
BRANCH  15  17
HETATM   17  C   UNL     1      26.871  45.761  53.694  1.00  0.00    -0.036 A 
HETATM   18  C   UNL     1      26.823  47.015  54.324  1.00  0.00     0.009 A 
HETATM   19  C   UNL     1      27.641  47.295  55.420  1.00  0.00     0.001 A 
HETATM   20  C   UNL     1      28.536  46.337  55.888  1.00  0.00     0.000 A 
HETATM   21  C   UNL     1      28.615  45.098  55.259  1.00  0.00     0.001 A 
HETATM   22  C   UNL     1      27.788  44.810  54.170  1.00  0.00     0.009 A 
ENDBRANCH  15  17
ENDBRANCH  12  15
ENDBRANCH   6  11
ENDBRANCH   1   5
BRANCH   2  23
HETATM   23  C   UNL     1      20.766  47.331  49.040  1.00  0.00     0.240 C 
BRANCH  23  24
HETATM   24  N   UNL     1      19.700  48.161  48.527  1.00  0.00    -0.259 N 
HETATM   25  C   UNL     1      18.642  47.689  47.820  1.00  0.00     0.326 A 
HETATM   26  O   UNL     1      18.419  46.531  47.516  1.00  0.00    -0.247 OA
HETATM   27  N   UNL     1      17.848  48.749  47.463  1.00  0.00    -0.324 N 
HETATM   28  C   UNL     1      18.328  50.008  47.997  1.00  0.00     0.120 A 
HETATM   29  H   UNL     1      16.993  48.616  46.939  1.00  0.00     0.165 HD
HETATM   30  C   UNL     1      18.610  51.053  46.916  1.00  0.00     0.080 C 
HETATM   31  C   UNL     1      17.393  50.554  49.075  1.00  0.00     0.046 C 
HETATM   32  C   UNL     1      19.644  49.523  48.628  1.00  0.00     0.257 A 
HETATM   33  C   UNL     1      17.368  51.778  46.450  1.00  0.00    -0.049 A 
HETATM   34  C   UNL     1      16.180  51.768  47.202  1.00  0.00    -0.052 A 
HETATM   35  C   UNL     1      17.430  52.532  45.267  1.00  0.00     0.007 A 
HETATM   36  C   UNL     1      16.050  50.969  48.477  1.00  0.00     0.042 C 
HETATM   37  C   UNL     1      15.064  52.477  46.732  1.00  0.00     0.007 A 
HETATM   38  C   UNL     1      15.134  53.212  45.549  1.00  0.00     0.001 A 
HETATM   39  C   UNL     1      16.317  53.243  44.819  1.00  0.00     0.001 A 
HETATM   40  O   UNL     1      20.488  50.246  49.138  1.00  0.00    -0.270 OA
ENDBRANCH  23  24
ENDBRANCH   2  23
TORSDOF 6
ENDMDL
MODEL 8
REMARK VINA RESULT:     -10.7      2.960      8.954
REMARK  6 active torsions:
REMARK  status: ('A' for Active; 'I' for Inactive)
REMARK    1  A    between atoms: C_2  and  N_3 
REMARK    2  A    between atoms: C_2  and  C_32 
REMARK       I    between atoms: N_3  and  C_4 
REMARK    3  A    between atoms: C_4  and  C_5 
REMARK    4  A    between atoms: C_6  and  N_7 
REMARK       I    between atoms: N_7  and  C_8 
REMARK    5  A    between atoms: C_8  and  C_9 
REMARK    6  A    between atoms: C_9  and  N_10 
ROOT
HETATM    1  N   UNL     1      23.561  45.481  49.049  1.00  0.00    -0.325 N 
HETATM    2  C   UNL     1      22.516  44.617  48.770  1.00  0.00     0.240 C 
HETATM    3  O   UNL     1      22.081  43.752  49.526  1.00  0.00    -0.271 OA
HETATM    4  H   UNL     1      23.909  46.068  48.283  1.00  0.00     0.169 HD
ENDROOT
BRANCH   1   5
HETATM    5  C   UNL     1      24.240  45.642  50.287  1.00  0.00     0.050 A 
HETATM    6  C   UNL     1      24.763  46.906  50.638  1.00  0.00     0.058 A 
HETATM    7  C   UNL     1      25.401  47.101  51.876  1.00  0.00     0.019 A 
HETATM    8  C   UNL     1      25.546  46.039  52.764  1.00  0.00     0.001 A 
HETATM    9  C   UNL     1      25.052  44.785  52.421  1.00  0.00     0.002 A 
HETATM   10  C   UNL     1      24.403  44.589  51.197  1.00  0.00     0.030 A 
BRANCH   6  11
HETATM   11  C   UNL     1      24.649  48.055  49.702  1.00  0.00     0.254 C 
HETATM   12  N   UNL     1      23.531  48.847  49.860  1.00  0.00    -0.349 N 
HETATM   13  H   UNL     1      22.988  48.735  50.704  1.00  0.00     0.163 HD
HETATM   14  O   UNL     1      25.542  48.267  48.890  1.00  0.00    -0.268 OA
BRANCH  12  15
HETATM   15  C   UNL     1      23.393  50.113  49.157  1.00  0.00     0.114 C 
HETATM   16  C   UNL     1      23.785  49.941  47.689  1.00  0.00     0.037 C 
BRANCH  15  17
HETATM   17  C   UNL     1      21.981  50.650  49.315  1.00  0.00    -0.036 A 
HETATM   18  C   UNL     1      21.340  51.250  48.220  1.00  0.00     0.009 A 
HETATM   19  C   UNL     1      20.032  51.725  48.330  1.00  0.00     0.001 A 
HETATM   20  C   UNL     1      19.353  51.631  49.542  1.00  0.00     0.000 A 
HETATM   21  C   UNL     1      19.983  51.062  50.645  1.00  0.00     0.001 A 
HETATM   22  C   UNL     1      21.288  50.574  50.535  1.00  0.00     0.009 A 
ENDBRANCH  15  17
ENDBRANCH  12  15
ENDBRANCH   6  11
ENDBRANCH   1   5
BRANCH   2  23
HETATM   23  C   UNL     1      21.961  44.763  47.356  1.00  0.00     0.240 C 
BRANCH  23  24
HETATM   24  N   UNL     1      20.785  45.601  47.395  1.00  0.00    -0.259 N 
HETATM   25  C   UNL     1      19.513  45.131  47.335  1.00  0.00     0.326 A 
HETATM   26  O   UNL     1      19.164  43.968  47.246  1.00  0.00    -0.247 OA
HETATM   27  N   UNL     1      18.652  46.199  47.362  1.00  0.00    -0.324 N 
HETATM   28  C   UNL     1      19.340  47.464  47.516  1.00  0.00     0.120 A 
HETATM   29  H   UNL     1      17.650  46.069  47.340  1.00  0.00     0.165 HD
HETATM   30  C   UNL     1      19.052  48.451  46.383  1.00  0.00     0.080 C 
HETATM   31  C   UNL     1      19.069  48.088  48.885  1.00  0.00     0.046 C 
HETATM   32  C   UNL     1      20.794  46.967  47.436  1.00  0.00     0.257 A 
HETATM   33  C   UNL     1      17.746  49.192  46.556  1.00  0.00    -0.049 A 
HETATM   34  C   UNL     1      17.090  49.253  47.799  1.00  0.00    -0.052 A 
HETATM   35  C   UNL     1      17.214  49.889  45.460  1.00  0.00     0.007 A 
HETATM   36  C   UNL     1      17.608  48.518  49.011  1.00  0.00     0.042 C 
HETATM   37  C   UNL     1      15.891  49.975  47.907  1.00  0.00     0.007 A 
HETATM   38  C   UNL     1      15.366  50.653  46.807  1.00  0.00     0.001 A 
HETATM   39  C   UNL     1      16.030  50.614  45.585  1.00  0.00     0.001 A 
HETATM   40  O   UNL     1      21.782  47.686  47.419  1.00  0.00    -0.270 OA
ENDBRANCH  23  24
ENDBRANCH   2  23
TORSDOF 6
ENDMDL
MODEL 9
REMARK VINA RESULT:     -10.7      4.768      8.612
REMARK  6 active torsions:
REMARK  status: ('A' for Active; 'I' for Inactive)
REMARK    1  A    between atoms: C_2  and  N_3 
REMARK    2  A    between atoms: C_2  and  C_32 
REMARK       I    between atoms: N_3  and  C_4 
REMARK    3  A    between atoms: C_4  and  C_5 
REMARK    4  A    between atoms: C_6  and  N_7 
REMARK       I    between atoms: N_7  and  C_8 
REMARK    5  A    between atoms: C_8  and  C_9 
REMARK    6  A    between atoms: C_9  and  N_10 
ROOT
HETATM    1  N   UNL     1      24.113  43.840  48.938  1.00  0.00    -0.325 N 
HETATM    2  C   UNL     1      23.877  43.856  50.302  1.00  0.00     0.240 C 
HETATM    3  O   UNL     1      23.525  42.893  50.979  1.00  0.00    -0.271 OA
HETATM    4  H   UNL     1      24.277  44.741  48.475  1.00  0.00     0.169 HD
ENDROOT
BRANCH   1   5
HETATM    5  C   UNL     1      24.136  42.708  48.080  1.00  0.00     0.050 A 
HETATM    6  C   UNL     1      25.217  41.802  48.145  1.00  0.00     0.058 A 
HETATM    7  C   UNL     1      25.242  40.652  47.337  1.00  0.00     0.019 A 
HETATM    8  C   UNL     1      24.206  40.403  46.441  1.00  0.00     0.001 A 
HETATM    9  C   UNL     1      23.145  41.299  46.353  1.00  0.00     0.002 A 
HETATM   10  C   UNL     1      23.108  42.437  47.166  1.00  0.00     0.030 A 
BRANCH   6  11
HETATM   11  C   UNL     1      26.352  42.050  49.073  1.00  0.00     0.254 C 
HETATM   12  N   UNL     1      26.616  41.045  49.979  1.00  0.00    -0.349 N 
HETATM   13  H   UNL     1      26.183  40.146  49.826  1.00  0.00     0.163 HD
HETATM   14  O   UNL     1      27.009  43.080  48.967  1.00  0.00    -0.268 OA
BRANCH  12  15
HETATM   15  C   UNL     1      27.816  41.061  50.802  1.00  0.00     0.114 C 
HETATM   16  C   UNL     1      27.433  41.135  52.281  1.00  0.00     0.037 C 
BRANCH  15  17
HETATM   17  C   UNL     1      28.681  39.852  50.493  1.00  0.00    -0.036 A 
HETATM   18  C   UNL     1      28.859  39.448  49.160  1.00  0.00     0.009 A 
HETATM   19  C   UNL     1      29.673  38.358  48.846  1.00  0.00     0.001 A 
HETATM   20  C   UNL     1      30.302  37.640  49.860  1.00  0.00     0.000 A 
HETATM   21  C   UNL     1      30.116  38.010  51.189  1.00  0.00     0.001 A 
HETATM   22  C   UNL     1      29.312  39.109  51.505  1.00  0.00     0.009 A 
ENDBRANCH  15  17
ENDBRANCH  12  15
ENDBRANCH   6  11
ENDBRANCH   1   5
BRANCH   2  23
HETATM   23  C   UNL     1      24.012  45.240  50.932  1.00  0.00     0.240 C 
BRANCH  23  24
HETATM   24  N   UNL     1      25.228  45.286  51.711  1.00  0.00    -0.259 N 
HETATM   25  C   UNL     1      26.419  45.730  51.237  1.00  0.00     0.326 A 
HETATM   26  O   UNL     1      26.653  46.153  50.119  1.00  0.00    -0.247 OA
HETATM   27  N   UNL     1      27.359  45.601  52.229  1.00  0.00    -0.324 N 
HETATM   28  C   UNL     1      26.794  45.112  53.470  1.00  0.00     0.120 A 
HETATM   29  H   UNL     1      28.318  45.889  52.088  1.00  0.00     0.165 HD
HETATM   30  C   UNL     1      27.448  43.820  53.964  1.00  0.00     0.080 C 
HETATM   31  C   UNL     1      26.797  46.191  54.552  1.00  0.00     0.046 C 
HETATM   32  C   UNL     1      25.357  44.836  52.995  1.00  0.00     0.257 A 
HETATM   33  C   UNL     1      28.747  44.054  54.701  1.00  0.00    -0.049 A 
HETATM   34  C   UNL     1      29.090  45.319  55.209  1.00  0.00    -0.052 A 
HETATM   35  C   UNL     1      29.596  42.961  54.937  1.00  0.00     0.007 A 
HETATM   36  C   UNL     1      28.222  46.533  54.980  1.00  0.00     0.042 C 
HETATM   37  C   UNL     1      30.299  45.474  55.906  1.00  0.00     0.007 A 
HETATM   38  C   UNL     1      31.140  44.383  56.122  1.00  0.00     0.001 A 
HETATM   39  C   UNL     1      30.787  43.126  55.642  1.00  0.00     0.001 A 
HETATM   40  O   UNL     1      24.483  44.309  53.669  1.00  0.00    -0.270 OA
ENDBRANCH  23  24
ENDBRANCH   2  23
TORSDOF 6
ENDMDL
MODEL 10
REMARK VINA RESULT:     -10.6      5.530     10.667
REMARK  6 active torsions:
REMARK  status: ('A' for Active; 'I' for Inactive)
REMARK    1  A    between atoms: C_2  and  N_3 
REMARK    2  A    between atoms: C_2  and  C_32 
REMARK       I    between atoms: N_3  and  C_4 
REMARK    3  A    between atoms: C_4  and  C_5 
REMARK    4  A    between atoms: C_6  and  N_7 
REMARK       I    between atoms: N_7  and  C_8 
REMARK    5  A    between atoms: C_8  and  C_9 
REMARK    6  A    between atoms: C_9  and  N_10 
ROOT
HETATM    1  N   UNL     1      25.514  43.130  51.671  1.00  0.00    -0.325 N 
HETATM    2  C   UNL     1      26.486  42.407  51.002  1.00  0.00     0.240 C 
HETATM    3  O   UNL     1      27.534  42.863  50.552  1.00  0.00    -0.271 OA
HETATM    4  H   UNL     1      24.629  42.654  51.881  1.00  0.00     0.169 HD
ENDROOT
BRANCH   1   5
HETATM    5  C   UNL     1      25.583  44.486  52.091  1.00  0.00     0.050 A 
HETATM    6  C   UNL     1      26.458  44.850  53.138  1.00  0.00     0.058 A 
HETATM    7  C   UNL     1      26.576  46.191  53.542  1.00  0.00     0.019 A 
HETATM    8  C   UNL     1      25.810  47.178  52.928  1.00  0.00     0.001 A 
HETATM    9  C   UNL     1      24.930  46.829  51.909  1.00  0.00     0.002 A 
HETATM   10  C   UNL     1      24.820  45.498  51.492  1.00  0.00     0.030 A 
BRANCH   6  11
HETATM   11  C   UNL     1      27.271  43.818  53.832  1.00  0.00     0.254 C 
HETATM   12  N   UNL     1      28.622  43.832  53.554  1.00  0.00    -0.349 N 
HETATM   13  H   UNL     1      28.999  44.641  53.084  1.00  0.00     0.163 HD
HETATM   14  O   UNL     1      26.734  43.056  54.628  1.00  0.00    -0.268 OA
BRANCH  12  15
HETATM   15  C   UNL     1      29.561  43.020  54.312  1.00  0.00     0.114 C 
HETATM   16  C   UNL     1      30.701  42.555  53.405  1.00  0.00     0.037 C 
BRANCH  15  17
HETATM   17  C   UNL     1      30.067  43.792  55.519  1.00  0.00    -0.036 A 
HETATM   18  C   UNL     1      29.603  45.096  55.753  1.00  0.00     0.009 A 
HETATM   19  C   UNL     1      30.028  45.817  56.870  1.00  0.00     0.001 A 
HETATM   20  C   UNL     1      30.942  45.255  57.758  1.00  0.00     0.000 A 
HETATM   21  C   UNL     1      31.432  43.973  57.528  1.00  0.00     0.001 A 
HETATM   22  C   UNL     1      30.998  43.244  56.417  1.00  0.00     0.009 A 
ENDBRANCH  15  17
ENDBRANCH  12  15
ENDBRANCH   6  11
ENDBRANCH   1   5
BRANCH   2  23
HETATM   23  C   UNL     1      26.116  40.943  50.779  1.00  0.00     0.240 C 
BRANCH  23  24
HETATM   24  N   UNL     1      26.380  40.595  49.402  1.00  0.00    -0.259 N 
HETATM   25  C   UNL     1      25.454  40.650  48.412  1.00  0.00     0.326 A 
HETATM   26  O   UNL     1      24.289  40.992  48.514  1.00  0.00    -0.247 OA
HETATM   27  N   UNL     1      26.035  40.220  47.246  1.00  0.00    -0.324 N 
HETATM   28  C   UNL     1      27.443  39.917  47.405  1.00  0.00     0.120 A 
HETATM   29  H   UNL     1      25.518  40.195  46.377  1.00  0.00     0.165 HD
HETATM   30  C   UNL     1      27.798  38.479  47.022  1.00  0.00     0.080 C 
HETATM   31  C   UNL     1      28.321  40.927  46.668  1.00  0.00     0.046 C 
HETATM   32  C   UNL     1      27.567  40.112  48.926  1.00  0.00     0.257 A 
HETATM   33  C   UNL     1      27.972  38.285  45.533  1.00  0.00    -0.049 A 
HETATM   34  C   UNL     1      28.175  39.372  44.665  1.00  0.00    -0.052 A 
HETATM   35  C   UNL     1      27.995  36.978  45.020  1.00  0.00     0.007 A 
HETATM   36  C   UNL     1      28.151  40.800  45.155  1.00  0.00     0.042 C 
HETATM   37  C   UNL     1      28.353  39.131  43.293  1.00  0.00     0.007 A 
HETATM   38  C   UNL     1      28.361  37.829  42.794  1.00  0.00     0.001 A 
HETATM   39  C   UNL     1      28.187  36.753  43.658  1.00  0.00     0.001 A 
HETATM   40  O   UNL     1      28.569  39.876  49.585  1.00  0.00    -0.270 OA
ENDBRANCH  23  24
ENDBRANCH   2  23
TORSDOF 6
ENDMDL
