MODEL 1
REMARK VINA RESULT:      -9.3      0.000      0.000
REMARK  5 active torsions:
REMARK  status: ('A' for Active; 'I' for Inactive)
REMARK    1  A    between atoms: C_5  and  O_6 
REMARK    2  A    between atoms: O_6  and  C_7 
REMARK    3  A    between atoms: C_7  and  C_8 
REMARK       I    between atoms: C_8  and  N_9 
REMARK    4  A    between atoms: N_9  and  N_10 
REMARK    5  A    between atoms: C_11  and  C_12 
ROOT
HETATM    1  C   UNL     1      26.015  46.511  53.706  1.00  0.00     0.261 C 
HETATM    2  N   UNL     1      26.053  46.351  52.328  1.00  0.00    -0.246 N 
HETATM    3  O   UNL     1      25.664  47.533  54.293  1.00  0.00    -0.269 OA
HETATM    4  H   UNL     1      26.318  45.454  51.931  1.00  0.00     0.192 HD
ENDROOT
BRANCH   2   5
HETATM    5  N   UNL     1      25.679  47.387  51.523  1.00  0.00    -0.184 NA
HETATM    6  C   UNL     1      26.065  47.336  50.290  1.00  0.00     0.152 C 
BRANCH   6   7
HETATM    7  C   UNL     1      25.704  48.419  49.398  1.00  0.00     0.011 A 
HETATM    8  C   UNL     1      24.391  48.850  49.019  1.00  0.00     0.004 A 
HETATM    9  C   UNL     1      24.542  49.916  48.128  1.00  0.00     0.043 A 
HETATM   10  C   UNL     1      23.083  48.425  49.335  1.00  0.00     0.014 A 
HETATM   11  C   UNL     1      23.457  50.577  47.541  1.00  0.00     0.030 A 
HETATM   12  N   UNL     1      25.892  50.131  47.977  1.00  0.00    -0.364 N 
HETATM   13  C   UNL     1      22.173  50.134  47.870  1.00  0.00     0.002 A 
HETATM   14  C   UNL     1      21.985  49.075  48.753  1.00  0.00     0.001 A 
HETATM   15  H   UNL     1      26.299  50.842  47.386  1.00  0.00     0.165 HD
HETATM   16  C   UNL     1      26.598  49.235  48.728  1.00  0.00     0.102 A 
ENDBRANCH   6   7
ENDBRANCH   2   5
BRANCH   1  17
HETATM   17  C   UNL     1      26.572  45.312  54.466  1.00  0.00     0.280 C 
BRANCH  17  18
HETATM   18  O   UNL     1      27.640  44.685  53.752  1.00  0.00    -0.342 OA
BRANCH  18  19
HETATM   19  C   UNL     1      28.706  44.443  54.579  1.00  0.00     0.069 A 
HETATM   20  C   UNL     1      29.401  43.249  54.402  1.00  0.00     0.037 A 
HETATM   21  C   UNL     1      30.488  42.947  55.227  1.00  0.00     0.009 A 
HETATM   22  C   UNL     1      30.894  43.844  56.224  1.00  0.00    -0.062 A 
HETATM   23  C   UNL     1      32.066  43.535  57.109  1.00  0.00     0.048 C 
HETATM   24  C   UNL     1      30.215  45.061  56.361  1.00  0.00     0.009 A 
HETATM   25  C   UNL     1      29.126  45.363  55.539  1.00  0.00     0.037 A 
ENDBRANCH  18  19
ENDBRANCH  17  18
ENDBRANCH   1  17
TORSDOF 5
ENDMDL
MODEL 2
REMARK VINA RESULT:      -8.8      2.100      9.739
REMARK  5 active torsions:
REMARK  status: ('A' for Active; 'I' for Inactive)
REMARK    1  A    between atoms: C_5  and  O_6 
REMARK    2  A    between atoms: O_6  and  C_7 
REMARK    3  A    between atoms: C_7  and  C_8 
REMARK       I    between atoms: C_8  and  N_9 
REMARK    4  A    between atoms: N_9  and  N_10 
REMARK    5  A    between atoms: C_11  and  C_12 
ROOT
HETATM    1  C   UNL     1      25.629  47.323  50.776  1.00  0.00     0.261 C 
HETATM    2  N   UNL     1      25.367  46.998  52.099  1.00  0.00    -0.246 N 
HETATM    3  O   UNL     1      26.735  47.609  50.320  1.00  0.00    -0.269 OA
HETATM    4  H   UNL     1      24.426  46.735  52.376  1.00  0.00     0.192 HD
ENDROOT
BRANCH   2   5
HETATM    5  N   UNL     1      26.391  46.982  53.000  1.00  0.00    -0.184 NA
HETATM    6  C   UNL     1      26.592  45.873  53.633  1.00  0.00     0.152 C 
BRANCH   6   7
HETATM    7  C   UNL     1      27.660  45.807  54.611  1.00  0.00     0.011 A 
HETATM    8  C   UNL     1      28.720  44.848  54.696  1.00  0.00     0.004 A 
HETATM    9  C   UNL     1      29.495  45.180  55.810  1.00  0.00     0.043 A 
HETATM   10  C   UNL     1      29.091  43.715  53.940  1.00  0.00     0.014 A 
HETATM   11  C   UNL     1      30.617  44.441  56.206  1.00  0.00     0.030 A 
HETATM   12  N   UNL     1      28.934  46.300  56.377  1.00  0.00    -0.364 N 
HETATM   13  C   UNL     1      30.958  43.322  55.441  1.00  0.00     0.002 A 
HETATM   14  C   UNL     1      30.209  42.962  54.325  1.00  0.00     0.001 A 
HETATM   15  H   UNL     1      29.284  46.765  57.203  1.00  0.00     0.165 HD
HETATM   16  C   UNL     1      27.829  46.681  55.669  1.00  0.00     0.102 A 
ENDBRANCH   6   7
ENDBRANCH   2   5
BRANCH   1  17
HETATM   17  C   UNL     1      24.372  47.414  49.918  1.00  0.00     0.280 C 
BRANCH  17  18
HETATM   18  O   UNL     1      24.499  48.412  48.901  1.00  0.00    -0.342 OA
BRANCH  18  19
HETATM   19  C   UNL     1      23.373  49.191  48.838  1.00  0.00     0.069 A 
HETATM   20  C   UNL     1      23.526  50.511  48.422  1.00  0.00     0.037 A 
HETATM   21  C   UNL     1      22.413  51.354  48.352  1.00  0.00     0.009 A 
HETATM   22  C   UNL     1      21.139  50.876  48.685  1.00  0.00    -0.062 A 
HETATM   23  C   UNL     1      19.935  51.767  48.604  1.00  0.00     0.048 C 
HETATM   24  C   UNL     1      20.992  49.534  49.058  1.00  0.00     0.009 A 
HETATM   25  C   UNL     1      22.104  48.692  49.131  1.00  0.00     0.037 A 
ENDBRANCH  18  19
ENDBRANCH  17  18
ENDBRANCH   1  17
TORSDOF 5
ENDMDL
MODEL 3
REMARK VINA RESULT:      -8.6      2.223      9.777
REMARK  5 active torsions:
REMARK  status: ('A' for Active; 'I' for Inactive)
REMARK    1  A    between atoms: C_5  and  O_6 
REMARK    2  A    between atoms: O_6  and  C_7 
REMARK    3  A    between atoms: C_7  and  C_8 
REMARK       I    between atoms: C_8  and  N_9 
REMARK    4  A    between atoms: N_9  and  N_10 
REMARK    5  A    between atoms: C_11  and  C_12 
ROOT
HETATM    1  C   UNL     1      25.599  46.344  50.219  1.00  0.00     0.261 C 
HETATM    2  N   UNL     1      25.539  45.697  51.445  1.00  0.00    -0.246 N 
HETATM    3  O   UNL     1      26.554  46.313  49.445  1.00  0.00    -0.269 OA
HETATM    4  H   UNL     1      24.690  45.745  52.000  1.00  0.00     0.192 HD
ENDROOT
BRANCH   2   5
HETATM    5  N   UNL     1      26.605  44.955  51.863  1.00  0.00    -0.184 NA
HETATM    6  C   UNL     1      26.632  44.628  53.113  1.00  0.00     0.152 C 
BRANCH   6   7
HETATM    7  C   UNL     1      27.751  43.851  53.610  1.00  0.00     0.011 A 
HETATM    8  C   UNL     1      28.745  44.246  54.562  1.00  0.00     0.004 A 
HETATM    9  C   UNL     1      29.627  43.173  54.714  1.00  0.00     0.043 A 
HETATM   10  C   UNL     1      28.993  45.423  55.301  1.00  0.00     0.014 A 
HETATM   11  C   UNL     1      30.738  43.216  55.565  1.00  0.00     0.030 A 
HETATM   12  N   UNL     1      29.184  42.163  53.894  1.00  0.00    -0.364 N 
HETATM   13  C   UNL     1      30.960  44.394  56.282  1.00  0.00     0.002 A 
HETATM   14  C   UNL     1      30.103  45.483  56.155  1.00  0.00     0.001 A 
HETATM   15  H   UNL     1      29.631  41.262  53.797  1.00  0.00     0.165 HD
HETATM   16  C   UNL     1      28.062  42.560  53.222  1.00  0.00     0.102 A 
ENDBRANCH   6   7
ENDBRANCH   2   5
BRANCH   1  17
HETATM   17  C   UNL     1      24.386  47.225  49.944  1.00  0.00     0.280 C 
BRANCH  17  18
HETATM   18  O   UNL     1      24.697  48.282  49.033  1.00  0.00    -0.342 OA
BRANCH  18  19
HETATM   19  C   UNL     1      23.633  49.135  48.892  1.00  0.00     0.069 A 
HETATM   20  C   UNL     1      22.363  48.631  49.160  1.00  0.00     0.037 A 
HETATM   21  C   UNL     1      21.242  49.454  49.020  1.00  0.00     0.009 A 
HETATM   22  C   UNL     1      21.388  50.790  48.625  1.00  0.00    -0.062 A 
HETATM   23  C   UNL     1      20.193  51.687  48.481  1.00  0.00     0.048 C 
HETATM   24  C   UNL     1      22.674  51.297  48.403  1.00  0.00     0.009 A 
HETATM   25  C   UNL     1      23.794  50.474  48.540  1.00  0.00     0.037 A 
ENDBRANCH  18  19
ENDBRANCH  17  18
ENDBRANCH   1  17
TORSDOF 5
ENDMDL
MODEL 4
REMARK VINA RESULT:      -8.4      1.997      2.439
REMARK  5 active torsions:
REMARK  status: ('A' for Active; 'I' for Inactive)
REMARK    1  A    between atoms: C_5  and  O_6 
REMARK    2  A    between atoms: O_6  and  C_7 
REMARK    3  A    between atoms: C_7  and  C_8 
REMARK       I    between atoms: C_8  and  N_9 
REMARK    4  A    between atoms: N_9  and  N_10 
REMARK    5  A    between atoms: C_11  and  C_12 
ROOT
HETATM    1  C   UNL     1      26.463  43.763  50.454  1.00  0.00     0.261 C 
HETATM    2  N   UNL     1      25.588  44.778  50.816  1.00  0.00    -0.246 N 
HETATM    3  O   UNL     1      27.135  43.739  49.424  1.00  0.00    -0.269 OA
HETATM    4  H   UNL     1      25.105  44.731  51.710  1.00  0.00     0.192 HD
ENDROOT
BRANCH   2   5
HETATM    5  N   UNL     1      25.431  45.853  49.993  1.00  0.00    -0.184 NA
HETATM    6  C   UNL     1      25.955  46.968  50.385  1.00  0.00     0.152 C 
BRANCH   6   7
HETATM    7  C   UNL     1      25.805  48.144  49.551  1.00  0.00     0.011 A 
HETATM    8  C   UNL     1      24.590  48.760  49.106  1.00  0.00     0.004 A 
HETATM    9  C   UNL     1      24.943  49.855  48.313  1.00  0.00     0.043 A 
HETATM   10  C   UNL     1      23.218  48.484  49.289  1.00  0.00     0.014 A 
HETATM   11  C   UNL     1      23.999  50.685  47.696  1.00  0.00     0.030 A 
HETATM   12  N   UNL     1      26.317  49.908  48.282  1.00  0.00    -0.364 N 
HETATM   13  C   UNL     1      22.649  50.386  47.891  1.00  0.00     0.002 A 
HETATM   14  C   UNL     1      22.260  49.303  48.674  1.00  0.00     0.001 A 
HETATM   15  H   UNL     1      26.856  50.600  47.779  1.00  0.00     0.165 HD
HETATM   16  C   UNL     1      26.844  48.883  49.016  1.00  0.00     0.102 A 
ENDBRANCH   6   7
ENDBRANCH   2   5
BRANCH   1  17
HETATM   17  C   UNL     1      26.442  42.579  51.413  1.00  0.00     0.280 C 
BRANCH  17  18
HETATM   18  O   UNL     1      27.743  42.009  51.576  1.00  0.00    -0.342 OA
BRANCH  18  19
HETATM   19  C   UNL     1      28.393  42.571  52.645  1.00  0.00     0.069 A 
HETATM   20  C   UNL     1      29.778  42.436  52.699  1.00  0.00     0.037 A 
HETATM   21  C   UNL     1      30.489  42.978  53.774  1.00  0.00     0.009 A 
HETATM   22  C   UNL     1      29.819  43.669  54.791  1.00  0.00    -0.062 A 
HETATM   23  C   UNL     1      30.572  44.265  55.945  1.00  0.00     0.048 C 
HETATM   24  C   UNL     1      28.432  43.837  54.701  1.00  0.00     0.009 A 
HETATM   25  C   UNL     1      27.720  43.293  53.629  1.00  0.00     0.037 A 
ENDBRANCH  18  19
ENDBRANCH  17  18
ENDBRANCH   1  17
TORSDOF 5
ENDMDL
MODEL 5
REMARK VINA RESULT:      -8.2      2.127      9.287
REMARK  5 active torsions:
REMARK  status: ('A' for Active; 'I' for Inactive)
REMARK    1  A    between atoms: C_5  and  O_6 
REMARK    2  A    between atoms: O_6  and  C_7 
REMARK    3  A    between atoms: C_7  and  C_8 
REMARK       I    between atoms: C_8  and  N_9 
REMARK    4  A    between atoms: N_9  and  N_10 
REMARK    5  A    between atoms: C_11  and  C_12 
ROOT
HETATM    1  C   UNL     1      25.251  44.949  52.670  1.00  0.00     0.261 C 
HETATM    2  N   UNL     1      26.056  45.911  53.263  1.00  0.00    -0.246 N 
HETATM    3  O   UNL     1      25.112  43.794  53.071  1.00  0.00    -0.269 OA
HETATM    4  H   UNL     1      26.075  46.854  52.884  1.00  0.00     0.192 HD
ENDROOT
BRANCH   2   5
HETATM    5  N   UNL     1      26.767  45.594  54.381  1.00  0.00    -0.184 NA
HETATM    6  C   UNL     1      27.736  46.387  54.701  1.00  0.00     0.152 C 
BRANCH   6   7
HETATM    7  C   UNL     1      28.531  46.086  55.875  1.00  0.00     0.011 A 
HETATM    8  C   UNL     1      29.567  45.105  56.010  1.00  0.00     0.004 A 
HETATM    9  C   UNL     1      30.033  45.168  57.326  1.00  0.00     0.043 A 
HETATM   10  C   UNL     1      30.148  44.155  55.142  1.00  0.00     0.014 A 
HETATM   11  C   UNL     1      31.045  44.335  57.816  1.00  0.00     0.030 A 
HETATM   12  N   UNL     1      29.315  46.152  57.965  1.00  0.00    -0.364 N 
HETATM   13  C   UNL     1      31.599  43.402  56.936  1.00  0.00     0.002 A 
HETATM   14  C   UNL     1      31.159  43.310  55.619  1.00  0.00     0.001 A 
HETATM   15  H   UNL     1      29.436  46.418  58.932  1.00  0.00     0.165 HD
HETATM   16  C   UNL     1      28.407  46.704  57.106  1.00  0.00     0.102 A 
ENDBRANCH   6   7
ENDBRANCH   2   5
BRANCH   1  17
HETATM   17  C   UNL     1      24.614  45.416  51.367  1.00  0.00     0.280 C 
BRANCH  17  18
HETATM   18  O   UNL     1      25.588  45.940  50.461  1.00  0.00    -0.342 OA
BRANCH  18  19
HETATM   19  C   UNL     1      25.124  47.075  49.847  1.00  0.00     0.069 A 
HETATM   20  C   UNL     1      26.051  48.072  49.551  1.00  0.00     0.037 A 
HETATM   21  C   UNL     1      25.630  49.255  48.937  1.00  0.00     0.009 A 
HETATM   22  C   UNL     1      24.282  49.440  48.602  1.00  0.00    -0.062 A 
HETATM   23  C   UNL     1      23.819  50.700  47.933  1.00  0.00     0.048 C 
HETATM   24  C   UNL     1      23.368  48.411  48.864  1.00  0.00     0.009 A 
HETATM   25  C   UNL     1      23.788  47.230  49.481  1.00  0.00     0.037 A 
ENDBRANCH  18  19
ENDBRANCH  17  18
ENDBRANCH   1  17
TORSDOF 5
ENDMDL
MODEL 6
REMARK VINA RESULT:      -8.2      1.947      2.451
REMARK  5 active torsions:
REMARK  status: ('A' for Active; 'I' for Inactive)
REMARK    1  A    between atoms: C_5  and  O_6 
REMARK    2  A    between atoms: O_6  and  C_7 
REMARK    3  A    between atoms: C_7  and  C_8 
REMARK       I    between atoms: C_8  and  N_9 
REMARK    4  A    between atoms: N_9  and  N_10 
REMARK    5  A    between atoms: C_11  and  C_12 
ROOT
HETATM    1  C   UNL     1      25.438  44.004  51.935  1.00  0.00     0.261 C 
HETATM    2  N   UNL     1      25.418  45.315  51.482  1.00  0.00    -0.246 N 
HETATM    3  O   UNL     1      24.537  43.182  51.771  1.00  0.00    -0.269 OA
HETATM    4  H   UNL     1      26.228  45.911  51.628  1.00  0.00     0.192 HD
ENDROOT
BRANCH   2   5
HETATM    5  N   UNL     1      24.332  45.770  50.795  1.00  0.00    -0.184 NA
HETATM    6  C   UNL     1      24.546  46.676  49.898  1.00  0.00     0.152 C 
BRANCH   6   7
HETATM    7  C   UNL     1      23.422  47.202  49.150  1.00  0.00     0.011 A 
HETATM    8  C   UNL     1      23.084  48.575  48.915  1.00  0.00     0.004 A 
HETATM    9  C   UNL     1      21.909  48.591  48.158  1.00  0.00     0.043 A 
HETATM   10  C   UNL     1      23.656  49.810  49.285  1.00  0.00     0.014 A 
HETATM   11  C   UNL     1      21.281  49.776  47.754  1.00  0.00     0.030 A 
HETATM   12  N   UNL     1      21.550  47.283  47.935  1.00  0.00    -0.364 N 
HETATM   13  C   UNL     1      21.867  50.984  48.138  1.00  0.00     0.002 A 
HETATM   14  C   UNL     1      23.036  51.005  48.892  1.00  0.00     0.001 A 
HETATM   15  H   UNL     1      20.735  46.990  47.415  1.00  0.00     0.165 HD
HETATM   16  C   UNL     1      22.447  46.441  48.531  1.00  0.00     0.102 A 
ENDBRANCH   6   7
ENDBRANCH   2   5
BRANCH   1  17
HETATM   17  C   UNL     1      26.661  43.678  52.783  1.00  0.00     0.280 C 
BRANCH  17  18
HETATM   18  O   UNL     1      27.459  44.840  53.026  1.00  0.00    -0.342 OA
BRANCH  18  19
HETATM   19  C   UNL     1      28.448  44.572  53.937  1.00  0.00     0.069 A 
HETATM   20  C   UNL     1      29.187  43.404  53.760  1.00  0.00     0.037 A 
HETATM   21  C   UNL     1      30.199  43.076  54.667  1.00  0.00     0.009 A 
HETATM   22  C   UNL     1      30.486  43.922  55.747  1.00  0.00    -0.062 A 
HETATM   23  C   UNL     1      31.577  43.586  56.721  1.00  0.00     0.048 C 
HETATM   24  C   UNL     1      29.766  45.115  55.887  1.00  0.00     0.009 A 
HETATM   25  C   UNL     1      28.753  45.442  54.983  1.00  0.00     0.037 A 
ENDBRANCH  18  19
ENDBRANCH  17  18
ENDBRANCH   1  17
TORSDOF 5
ENDMDL
MODEL 7
REMARK VINA RESULT:      -8.1      5.693      7.653
REMARK  5 active torsions:
REMARK  status: ('A' for Active; 'I' for Inactive)
REMARK    1  A    between atoms: C_5  and  O_6 
REMARK    2  A    between atoms: O_6  and  C_7 
REMARK    3  A    between atoms: C_7  and  C_8 
REMARK       I    between atoms: C_8  and  N_9 
REMARK    4  A    between atoms: N_9  and  N_10 
REMARK    5  A    between atoms: C_11  and  C_12 
ROOT
HETATM    1  C   UNL     1      26.695  42.798  51.908  1.00  0.00     0.261 C 
HETATM    2  N   UNL     1      27.119  41.483  52.028  1.00  0.00    -0.246 N 
HETATM    3  O   UNL     1      26.318  43.332  50.866  1.00  0.00    -0.269 OA
HETATM    4  H   UNL     1      27.373  41.116  52.941  1.00  0.00     0.192 HD
ENDROOT
BRANCH   2   5
HETATM    5  N   UNL     1      27.134  40.681  50.925  1.00  0.00    -0.184 NA
HETATM    6  C   UNL     1      28.243  40.070  50.663  1.00  0.00     0.152 C 
BRANCH   6   7
HETATM    7  C   UNL     1      28.314  39.217  49.494  1.00  0.00     0.011 A 
HETATM    8  C   UNL     1      28.219  39.599  48.116  1.00  0.00     0.004 A 
HETATM    9  C   UNL     1      28.327  38.434  47.352  1.00  0.00     0.043 A 
HETATM   10  C   UNL     1      28.035  40.825  47.441  1.00  0.00     0.014 A 
HETATM   11  C   UNL     1      28.262  38.433  45.953  1.00  0.00     0.030 A 
HETATM   12  N   UNL     1      28.488  37.386  48.227  1.00  0.00    -0.364 N 
HETATM   13  C   UNL     1      28.076  39.660  45.312  1.00  0.00     0.002 A 
HETATM   14  C   UNL     1      27.964  40.840  46.042  1.00  0.00     0.001 A 
HETATM   15  H   UNL     1      28.591  36.419  47.955  1.00  0.00     0.165 HD
HETATM   16  C   UNL     1      28.476  37.843  49.515  1.00  0.00     0.102 A 
ENDBRANCH   6   7
ENDBRANCH   2   5
BRANCH   1  17
HETATM   17  C   UNL     1      26.845  43.599  53.197  1.00  0.00     0.280 C 
BRANCH  17  18
HETATM   18  O   UNL     1      27.899  44.560  53.101  1.00  0.00    -0.342 OA
BRANCH  18  19
HETATM   19  C   UNL     1      28.833  44.362  54.084  1.00  0.00     0.069 A 
HETATM   20  C   UNL     1      29.658  43.245  53.972  1.00  0.00     0.037 A 
HETATM   21  C   UNL     1      30.620  42.987  54.953  1.00  0.00     0.009 A 
HETATM   22  C   UNL     1      30.770  43.854  56.044  1.00  0.00    -0.062 A 
HETATM   23  C   UNL     1      31.806  43.594  57.098  1.00  0.00     0.048 C 
HETATM   24  C   UNL     1      29.966  44.997  56.120  1.00  0.00     0.009 A 
HETATM   25  C   UNL     1      29.002  45.254  55.141  1.00  0.00     0.037 A 
ENDBRANCH  18  19
ENDBRANCH  17  18
ENDBRANCH   1  17
TORSDOF 5
ENDMDL
MODEL 8
REMARK VINA RESULT:      -8.0      3.128      9.857
REMARK  5 active torsions:
REMARK  status: ('A' for Active; 'I' for Inactive)
REMARK    1  A    between atoms: C_5  and  O_6 
REMARK    2  A    between atoms: O_6  and  C_7 
REMARK    3  A    between atoms: C_7  and  C_8 
REMARK       I    between atoms: C_8  and  N_9 
REMARK    4  A    between atoms: N_9  and  N_10 
REMARK    5  A    between atoms: C_11  and  C_12 
ROOT
HETATM    1  C   UNL     1      24.553  47.037  50.296  1.00  0.00     0.261 C 
HETATM    2  N   UNL     1      24.344  45.732  49.873  1.00  0.00    -0.246 N 
HETATM    3  O   UNL     1      25.155  47.365  51.317  1.00  0.00    -0.269 OA
HETATM    4  H   UNL     1      23.870  45.558  48.991  1.00  0.00     0.192 HD
ENDROOT
BRANCH   2   5
HETATM    5  N   UNL     1      24.829  44.700  50.620  1.00  0.00    -0.184 NA
HETATM    6  C   UNL     1      25.740  43.963  50.074  1.00  0.00     0.152 C 
BRANCH   6   7
HETATM    7  C   UNL     1      26.278  42.844  50.822  1.00  0.00     0.011 A 
HETATM    8  C   UNL     1      27.354  42.853  51.769  1.00  0.00     0.004 A 
HETATM    9  C   UNL     1      27.525  41.540  52.217  1.00  0.00     0.043 A 
HETATM   10  C   UNL     1      28.214  43.849  52.278  1.00  0.00     0.014 A 
HETATM   11  C   UNL     1      28.507  41.175  53.147  1.00  0.00     0.030 A 
HETATM   12  N   UNL     1      26.587  40.766  51.577  1.00  0.00    -0.364 N 
HETATM   13  C   UNL     1      29.346  42.182  53.632  1.00  0.00     0.002 A 
HETATM   14  C   UNL     1      29.204  43.499  53.206  1.00  0.00     0.001 A 
HETATM   15  H   UNL     1      26.478  39.769  51.705  1.00  0.00     0.165 HD
HETATM   16  C   UNL     1      25.838  41.536  50.733  1.00  0.00     0.102 A 
ENDBRANCH   6   7
ENDBRANCH   2   5
BRANCH   1  17
HETATM   17  C   UNL     1      23.854  48.072  49.423  1.00  0.00     0.280 C 
BRANCH  17  18
HETATM   18  O   UNL     1      22.510  47.687  49.123  1.00  0.00    -0.342 OA
BRANCH  18  19
HETATM   19  C   UNL     1      21.713  48.790  48.948  1.00  0.00     0.069 A 
HETATM   20  C   UNL     1      22.333  50.037  48.934  1.00  0.00     0.037 A 
HETATM   21  C   UNL     1      21.567  51.194  48.773  1.00  0.00     0.009 A 
HETATM   22  C   UNL     1      20.178  51.109  48.611  1.00  0.00    -0.062 A 
HETATM   23  C   UNL     1      19.345  52.343  48.426  1.00  0.00     0.048 C 
HETATM   24  C   UNL     1      19.572  49.846  48.581  1.00  0.00     0.009 A 
HETATM   25  C   UNL     1      20.338  48.689  48.745  1.00  0.00     0.037 A 
ENDBRANCH  18  19
ENDBRANCH  17  18
ENDBRANCH   1  17
TORSDOF 5
ENDMDL
MODEL 9
REMARK VINA RESULT:      -8.0      2.973      9.674
REMARK  5 active torsions:
REMARK  status: ('A' for Active; 'I' for Inactive)
REMARK    1  A    between atoms: C_5  and  O_6 
REMARK    2  A    between atoms: O_6  and  C_7 
REMARK    3  A    between atoms: C_7  and  C_8 
REMARK       I    between atoms: C_8  and  N_9 
REMARK    4  A    between atoms: N_9  and  N_10 
REMARK    5  A    between atoms: C_11  and  C_12 
ROOT
HETATM    1  C   UNL     1      23.509  46.070  49.097  1.00  0.00     0.261 C 
HETATM    2  N   UNL     1      24.037  46.754  50.182  1.00  0.00    -0.246 N 
HETATM    3  O   UNL     1      23.927  44.998  48.661  1.00  0.00    -0.269 OA
HETATM    4  H   UNL     1      23.598  47.615  50.497  1.00  0.00     0.192 HD
ENDROOT
BRANCH   2   5
HETATM    5  N   UNL     1      25.105  46.230  50.849  1.00  0.00    -0.184 NA
HETATM    6  C   UNL     1      24.854  45.604  51.951  1.00  0.00     0.152 C 
BRANCH   6   7
HETATM    7  C   UNL     1      25.957  45.041  52.704  1.00  0.00     0.011 A 
HETATM    8  C   UNL     1      26.827  45.708  53.627  1.00  0.00     0.004 A 
HETATM    9  C   UNL     1      27.746  44.764  54.091  1.00  0.00     0.043 A 
HETATM   10  C   UNL     1      26.934  47.032  54.102  1.00  0.00     0.014 A 
HETATM   11  C   UNL     1      28.762  45.074  55.004  1.00  0.00     0.030 A 
HETATM   12  N   UNL     1      27.444  43.568  53.483  1.00  0.00    -0.364 N 
HETATM   13  C   UNL     1      28.845  46.394  55.455  1.00  0.00     0.002 A 
HETATM   14  C   UNL     1      27.947  47.360  55.014  1.00  0.00     0.001 A 
HETATM   15  H   UNL     1      27.947  42.704  53.629  1.00  0.00     0.165 HD
HETATM   16  C   UNL     1      26.377  43.724  52.644  1.00  0.00     0.102 A 
ENDBRANCH   6   7
ENDBRANCH   2   5
BRANCH   1  17
HETATM   17  C   UNL     1      22.398  46.834  48.386  1.00  0.00     0.280 C 
BRANCH  17  18
HETATM   18  O   UNL     1      22.884  48.042  47.795  1.00  0.00    -0.342 OA
BRANCH  18  19
HETATM   19  C   UNL     1      21.979  49.060  47.951  1.00  0.00     0.069 A 
HETATM   20  C   UNL     1      22.454  50.274  48.444  1.00  0.00     0.037 A 
HETATM   21  C   UNL     1      21.572  51.342  48.634  1.00  0.00     0.009 A 
HETATM   22  C   UNL     1      20.214  51.205  48.318  1.00  0.00    -0.062 A 
HETATM   23  C   UNL     1      19.259  52.347  48.508  1.00  0.00     0.048 C 
HETATM   24  C   UNL     1      19.758  49.995  47.781  1.00  0.00     0.009 A 
HETATM   25  C   UNL     1      20.638  48.926  47.593  1.00  0.00     0.037 A 
ENDBRANCH  18  19
ENDBRANCH  17  18
ENDBRANCH   1  17
TORSDOF 5
ENDMDL
MODEL 10
REMARK VINA RESULT:      -7.6      2.215      9.186
REMARK  5 active torsions:
REMARK  status: ('A' for Active; 'I' for Inactive)
REMARK    1  A    between atoms: C_5  and  O_6 
REMARK    2  A    between atoms: O_6  and  C_7 
REMARK    3  A    between atoms: C_7  and  C_8 
REMARK       I    between atoms: C_8  and  N_9 
REMARK    4  A    between atoms: N_9  and  N_10 
REMARK    5  A    between atoms: C_11  and  C_12 
ROOT
HETATM    1  C   UNL     1      24.894  44.813  51.088  1.00  0.00     0.261 C 
HETATM    2  N   UNL     1      25.152  45.827  52.000  1.00  0.00    -0.246 N 
HETATM    3  O   UNL     1      25.648  43.874  50.838  1.00  0.00    -0.269 OA
HETATM    4  H   UNL     1      24.449  46.541  52.171  1.00  0.00     0.192 HD
ENDROOT
BRANCH   2   5
HETATM    5  N   UNL     1      26.323  45.819  52.697  1.00  0.00    -0.184 NA
HETATM    6  C   UNL     1      26.234  45.776  53.986  1.00  0.00     0.152 C 
BRANCH   6   7
HETATM    7  C   UNL     1      27.451  45.779  54.773  1.00  0.00     0.011 A 
HETATM    8  C   UNL     1      28.483  44.785  54.806  1.00  0.00     0.004 A 
HETATM    9  C   UNL     1      29.446  45.214  55.723  1.00  0.00     0.043 A 
HETATM   10  C   UNL     1      28.686  43.550  54.155  1.00  0.00     0.014 A 
HETATM   11  C   UNL     1      30.597  44.474  56.021  1.00  0.00     0.030 A 
HETATM   12  N   UNL     1      29.023  46.423  56.223  1.00  0.00    -0.364 N 
HETATM   13  C   UNL     1      30.770  43.253  55.363  1.00  0.00     0.002 A 
HETATM   14  C   UNL     1      29.831  42.795  54.444  1.00  0.00     0.001 A 
HETATM   15  H   UNL     1      29.522  46.969  56.911  1.00  0.00     0.165 HD
HETATM   16  C   UNL     1      27.824  46.769  55.665  1.00  0.00     0.102 A 
ENDBRANCH   6   7
ENDBRANCH   2   5
BRANCH   1  17
HETATM   17  C   UNL     1      23.603  45.022  50.304  1.00  0.00     0.280 C 
BRANCH  17  18
HETATM   18  O   UNL     1      23.853  45.605  49.023  1.00  0.00    -0.342 OA
BRANCH  18  19
HETATM   19  C   UNL     1      23.313  46.863  48.946  1.00  0.00     0.069 A 
HETATM   20  C   UNL     1      22.017  46.979  48.450  1.00  0.00     0.037 A 
HETATM   21  C   UNL     1      21.423  48.239  48.338  1.00  0.00     0.009 A 
HETATM   22  C   UNL     1      22.120  49.389  48.733  1.00  0.00    -0.062 A 
HETATM   23  C   UNL     1      21.490  50.747  48.627  1.00  0.00     0.048 C 
HETATM   24  C   UNL     1      23.405  49.255  49.272  1.00  0.00     0.009 A 
HETATM   25  C   UNL     1      24.000  47.995  49.382  1.00  0.00     0.037 A 
ENDBRANCH  18  19
ENDBRANCH  17  18
ENDBRANCH   1  17
TORSDOF 5
ENDMDL
