MODEL 1
REMARK VINA RESULT:      -7.8      0.000      0.000
REMARK  9 active torsions:
REMARK  status: ('A' for Active; 'I' for Inactive)
REMARK    1  A    between atoms: C_2  and  C_3 
REMARK    2  A    between atoms: C_3  and  C_4 
REMARK    3  A    between atoms: C_3  and  C_23 
REMARK    4  A    between atoms: C_4  and  C_5 
REMARK    5  A    between atoms: C_4  and  C_17 
REMARK    6  A    between atoms: C_15  and  O_16 
REMARK    7  A    between atoms: C_23  and  N_24 
REMARK    8  A    between atoms: N_31  and  N_32 
REMARK       I    between atoms: N_32  and  C_33 
REMARK    9  A    between atoms: C_33  and  C_34 
ROOT
HETATM    1  C   UNL     1      28.774  53.191  40.283  1.00  0.00     0.213 C 
HETATM    2  C   UNL     1      30.284  53.106  40.443  1.00  0.00    -0.011 C 
HETATM    3  N   UNL     1      31.536  53.035  40.576  1.00  0.00    -0.101 N 
ENDROOT
BRANCH   1   4
HETATM    4  C   UNL     1      28.127  51.919  40.793  1.00  0.00     0.249 C 
HETATM    5  N   UNL     1      27.194  51.327  39.949  1.00  0.00    -0.246 N 
HETATM    6  H   UNL     1      26.890  51.771  39.085  1.00  0.00     0.192 HD
HETATM    7  O   UNL     1      28.358  51.483  41.924  1.00  0.00    -0.271 OA
BRANCH   5   8
HETATM    8  N   UNL     1      26.766  50.073  40.240  1.00  0.00    -0.181 NA
HETATM    9  C   UNL     1      26.615  49.212  39.282  1.00  0.00     0.035 C 
HETATM   10  C   UNL     1      26.863  49.504  37.819  1.00  0.00     0.068 C 
BRANCH   9  11
HETATM   11  C   UNL     1      26.252  47.781  39.675  1.00  0.00     0.074 C 
BRANCH  11  12
HETATM   12  C   UNL     1      27.463  46.837  39.968  1.00  0.00     0.072 C 
BRANCH  12  13
HETATM   13  C   UNL     1      28.822  47.476  40.273  1.00  0.00     0.061 C 
HETATM   14  C   UNL     1      29.832  47.330  39.186  1.00  0.00     0.298 C 
HETATM   15  O   UNL     1      29.484  46.918  38.077  1.00  0.00    -0.259 OA
HETATM   16  O   UNL     1      31.126  47.752  39.406  1.00  0.00    -0.274 OA
HETATM   17  C   UNL     1      31.473  48.431  40.582  1.00  0.00     0.092 A 
HETATM   18  C   UNL     1      30.528  48.672  41.573  1.00  0.00     0.032 A 
HETATM   19  C   UNL     1      32.797  48.855  40.701  1.00  0.00     0.038 A 
HETATM   20  C   UNL     1      30.943  49.351  42.726  1.00  0.00     0.017 A 
HETATM   21  C   UNL     1      29.170  48.161  41.375  1.00  0.00     0.091 C 
HETATM   22  C   UNL     1      32.266  49.785  42.860  1.00  0.00     0.001 A 
HETATM   23  C   UNL     1      33.192  49.539  41.848  1.00  0.00     0.003 A 
BRANCH  21  24
HETATM   24  O   UNL     1      28.268  48.443  42.371  1.00  0.00    -0.359 OA
HETATM   25  H   UNL     1      27.398  48.600  41.933  1.00  0.00     0.218 HD
ENDBRANCH  21  24
ENDBRANCH  12  13
BRANCH  12  26
HETATM   26  C   UNL     1      27.145  45.590  40.803  1.00  0.00    -0.049 A 
HETATM   27  C   UNL     1      26.235  45.701  41.874  1.00  0.00     0.008 A 
HETATM   28  C   UNL     1      25.915  44.599  42.671  1.00  0.00     0.001 A 
HETATM   29  C   UNL     1      26.491  43.362  42.409  1.00  0.00     0.000 A 
HETATM   30  C   UNL     1      27.374  43.224  41.343  1.00  0.00     0.001 A 
HETATM   31  C   UNL     1      27.692  44.326  40.544  1.00  0.00     0.008 A 
ENDBRANCH  12  26
ENDBRANCH  11  12
BRANCH  11  32
HETATM   32  C   UNL     1      25.292  47.286  38.570  1.00  0.00     0.246 C 
BRANCH  32  33
HETATM   33  N   UNL     1      23.812  47.457  38.880  1.00  0.00    -0.070 N 
HETATM   34  H   UNL     1      23.323  46.585  38.580  1.00  0.00     0.279 HD
HETATM   35  C   UNL     1      23.518  47.713  40.337  1.00  0.00     0.235 C 
HETATM   36  C   UNL     1      22.020  47.843  40.568  1.00  0.00     0.028 C 
HETATM   37  C   UNL     1      21.397  48.907  39.677  1.00  0.00     0.003 C 
HETATM   38  C   UNL     1      21.716  48.634  38.214  1.00  0.00     0.028 C 
HETATM   39  C   UNL     1      23.216  48.531  37.984  1.00  0.00     0.235 C 
ENDBRANCH  32  33
ENDBRANCH  11  32
ENDBRANCH   9  11
ENDBRANCH   5   8
ENDBRANCH   1   4
TORSDOF 9
ENDMDL
MODEL 2
REMARK VINA RESULT:      -7.4     25.666     28.339
REMARK  9 active torsions:
REMARK  status: ('A' for Active; 'I' for Inactive)
REMARK    1  A    between atoms: C_2  and  C_3 
REMARK    2  A    between atoms: C_3  and  C_4 
REMARK    3  A    between atoms: C_3  and  C_23 
REMARK    4  A    between atoms: C_4  and  C_5 
REMARK    5  A    between atoms: C_4  and  C_17 
REMARK    6  A    between atoms: C_15  and  O_16 
REMARK    7  A    between atoms: C_23  and  N_24 
REMARK    8  A    between atoms: N_31  and  N_32 
REMARK       I    between atoms: N_32  and  C_33 
REMARK    9  A    between atoms: C_33  and  C_34 
ROOT
HETATM    1  C   UNL     1      33.614  42.991  65.734  1.00  0.00     0.213 C 
HETATM    2  C   UNL     1      33.218  42.636  67.158  1.00  0.00    -0.011 C 
HETATM    3  N   UNL     1      32.889  42.340  68.340  1.00  0.00    -0.101 N 
ENDROOT
BRANCH   1   4
HETATM    4  C   UNL     1      35.075  42.657  65.505  1.00  0.00     0.249 C 
HETATM    5  N   UNL     1      35.879  43.703  65.068  1.00  0.00    -0.246 N 
HETATM    6  H   UNL     1      35.495  44.613  64.821  1.00  0.00     0.192 HD
HETATM    7  O   UNL     1      35.503  41.505  65.623  1.00  0.00    -0.271 OA
BRANCH   5   8
HETATM    8  N   UNL     1      37.225  43.529  65.078  1.00  0.00    -0.181 NA
HETATM    9  C   UNL     1      37.965  44.224  64.270  1.00  0.00     0.035 C 
HETATM   10  C   UNL     1      37.435  45.229  63.272  1.00  0.00     0.068 C 
BRANCH   9  11
HETATM   11  C   UNL     1      39.480  44.083  64.408  1.00  0.00     0.074 C 
BRANCH  11  12
HETATM   12  C   UNL     1      40.263  45.418  64.622  1.00  0.00     0.072 C 
BRANCH  12  13
HETATM   13  C   UNL     1      39.592  46.528  65.439  1.00  0.00     0.061 C 
HETATM   14  C   UNL     1      39.082  46.094  66.770  1.00  0.00     0.298 C 
HETATM   15  O   UNL     1      39.395  44.987  67.216  1.00  0.00    -0.259 OA
HETATM   16  O   UNL     1      38.347  46.977  67.532  1.00  0.00    -0.274 OA
HETATM   17  C   UNL     1      38.183  48.311  67.133  1.00  0.00     0.092 A 
HETATM   18  C   UNL     1      38.734  48.773  65.943  1.00  0.00     0.032 A 
HETATM   19  C   UNL     1      37.457  49.143  67.987  1.00  0.00     0.038 A 
HETATM   20  C   UNL     1      38.528  50.116  65.601  1.00  0.00     0.017 A 
HETATM   21  C   UNL     1      39.453  47.820  65.096  1.00  0.00     0.091 C 
HETATM   22  C   UNL     1      37.804  50.963  66.447  1.00  0.00     0.001 A 
HETATM   23  C   UNL     1      37.270  50.478  67.639  1.00  0.00     0.003 A 
BRANCH  21  24
HETATM   24  O   UNL     1      39.997  48.329  63.941  1.00  0.00    -0.359 OA
HETATM   25  H   UNL     1      39.304  48.257  63.244  1.00  0.00     0.218 HD
ENDBRANCH  21  24
ENDBRANCH  12  13
BRANCH  12  26
HETATM   26  C   UNL     1      41.770  45.271  64.866  1.00  0.00    -0.049 A 
HETATM   27  C   UNL     1      42.663  46.052  64.106  1.00  0.00     0.008 A 
HETATM   28  C   UNL     1      44.046  45.952  64.282  1.00  0.00     0.001 A 
HETATM   29  C   UNL     1      44.564  45.077  65.227  1.00  0.00     0.000 A 
HETATM   30  C   UNL     1      43.701  44.312  66.005  1.00  0.00     0.001 A 
HETATM   31  C   UNL     1      42.317  44.414  65.831  1.00  0.00     0.008 A 
ENDBRANCH  12  26
ENDBRANCH  11  12
BRANCH  11  32
HETATM   32  C   UNL     1      39.925  43.255  63.182  1.00  0.00     0.246 C 
BRANCH  32  33
HETATM   33  N   UNL     1      40.234  41.793  63.469  1.00  0.00    -0.070 N 
HETATM   34  H   UNL     1      41.149  41.569  63.020  1.00  0.00     0.279 HD
HETATM   35  C   UNL     1      40.311  41.463  64.939  1.00  0.00     0.235 C 
HETATM   36  C   UNL     1      40.651  39.994  65.143  1.00  0.00     0.028 C 
HETATM   37  C   UNL     1      39.679  39.078  64.414  1.00  0.00     0.003 C 
HETATM   38  C   UNL     1      39.611  39.437  62.937  1.00  0.00     0.028 C 
HETATM   39  C   UNL     1      39.244  40.900  62.739  1.00  0.00     0.235 C 
ENDBRANCH  32  33
ENDBRANCH  11  32
ENDBRANCH   9  11
ENDBRANCH   5   8
ENDBRANCH   1   4
TORSDOF 9
ENDMDL
MODEL 3
REMARK VINA RESULT:      -7.4      2.580      7.909
REMARK  9 active torsions:
REMARK  status: ('A' for Active; 'I' for Inactive)
REMARK    1  A    between atoms: C_2  and  C_3 
REMARK    2  A    between atoms: C_3  and  C_4 
REMARK    3  A    between atoms: C_3  and  C_23 
REMARK    4  A    between atoms: C_4  and  C_5 
REMARK    5  A    between atoms: C_4  and  C_17 
REMARK    6  A    between atoms: C_15  and  O_16 
REMARK    7  A    between atoms: C_23  and  N_24 
REMARK    8  A    between atoms: N_31  and  N_32 
REMARK       I    between atoms: N_32  and  C_33 
REMARK    9  A    between atoms: C_33  and  C_34 
ROOT
HETATM    1  C   UNL     1      26.641  42.684  39.237  1.00  0.00     0.213 C 
HETATM    2  C   UNL     1      27.298  42.608  37.869  1.00  0.00    -0.011 C 
HETATM    3  N   UNL     1      27.844  42.546  36.733  1.00  0.00    -0.101 N 
ENDROOT
BRANCH   1   4
HETATM    4  C   UNL     1      27.020  43.981  39.922  1.00  0.00     0.249 C 
HETATM    5  N   UNL     1      28.321  44.425  39.714  1.00  0.00    -0.246 N 
HETATM    6  H   UNL     1      29.008  43.865  39.213  1.00  0.00     0.192 HD
HETATM    7  O   UNL     1      26.243  44.563  40.685  1.00  0.00    -0.271 OA
BRANCH   5   8
HETATM    8  N   UNL     1      28.641  45.687  40.097  1.00  0.00    -0.181 NA
HETATM    9  C   UNL     1      28.860  46.592  39.194  1.00  0.00     0.035 C 
HETATM   10  C   UNL     1      28.809  46.346  37.702  1.00  0.00     0.068 C 
BRANCH   9  11
HETATM   11  C   UNL     1      29.093  48.023  39.676  1.00  0.00     0.074 C 
BRANCH  11  12
HETATM   12  C   UNL     1      28.034  49.071  39.205  1.00  0.00     0.072 C 
BRANCH  12  13
HETATM   13  C   UNL     1      26.560  48.654  39.188  1.00  0.00     0.061 C 
HETATM   14  C   UNL     1      25.848  48.952  37.913  1.00  0.00     0.298 C 
HETATM   15  O   UNL     1      26.489  49.300  36.919  1.00  0.00    -0.259 OA
HETATM   16  O   UNL     1      24.487  48.739  37.834  1.00  0.00    -0.274 OA
HETATM   17  C   UNL     1      23.791  48.127  38.885  1.00  0.00     0.092 A 
HETATM   18  C   UNL     1      24.447  47.745  40.049  1.00  0.00     0.032 A 
HETATM   19  C   UNL     1      22.424  47.916  38.701  1.00  0.00     0.038 A 
HETATM   20  C   UNL     1      23.690  47.144  41.063  1.00  0.00     0.017 A 
HETATM   21  C   UNL     1      25.878  48.036  40.167  1.00  0.00     0.091 C 
HETATM   22  C   UNL     1      22.319  46.922  40.893  1.00  0.00     0.001 A 
HETATM   23  C   UNL     1      21.687  47.307  39.713  1.00  0.00     0.003 A 
BRANCH  21  24
HETATM   24  O   UNL     1      26.486  47.620  41.326  1.00  0.00    -0.359 OA
HETATM   25  H   UNL     1      26.692  46.662  41.213  1.00  0.00     0.218 HD
ENDBRANCH  21  24
ENDBRANCH  12  13
BRANCH  12  26
HETATM   26  C   UNL     1      28.282  50.514  39.662  1.00  0.00    -0.049 A 
HETATM   27  C   UNL     1      28.652  51.479  38.704  1.00  0.00     0.008 A 
HETATM   28  C   UNL     1      28.897  52.806  39.067  1.00  0.00     0.001 A 
HETATM   29  C   UNL     1      28.768  53.199  40.393  1.00  0.00     0.000 A 
HETATM   30  C   UNL     1      28.381  52.269  41.352  1.00  0.00     0.001 A 
HETATM   31  C   UNL     1      28.134  50.942  40.989  1.00  0.00     0.008 A 
ENDBRANCH  12  26
ENDBRANCH  11  12
BRANCH  11  32
HETATM   32  C   UNL     1      30.552  48.351  39.289  1.00  0.00     0.246 C 
BRANCH  32  33
HETATM   33  N   UNL     1      31.415  48.887  40.423  1.00  0.00    -0.070 N 
HETATM   34  H   UNL     1      32.281  48.307  40.463  1.00  0.00     0.279 HD
HETATM   35  C   UNL     1      31.797  50.337  40.265  1.00  0.00     0.235 C 
HETATM   36  C   UNL     1      32.679  50.789  41.420  1.00  0.00     0.028 C 
HETATM   37  C   UNL     1      32.029  50.525  42.770  1.00  0.00     0.003 C 
HETATM   38  C   UNL     1      31.643  49.059  42.900  1.00  0.00     0.028 C 
HETATM   39  C   UNL     1      30.740  48.619  41.758  1.00  0.00     0.235 C 
ENDBRANCH  32  33
ENDBRANCH  11  32
ENDBRANCH   9  11
ENDBRANCH   5   8
ENDBRANCH   1   4
TORSDOF 9
ENDMDL
MODEL 4
REMARK VINA RESULT:      -7.1     26.241     28.695
REMARK  9 active torsions:
REMARK  status: ('A' for Active; 'I' for Inactive)
REMARK    1  A    between atoms: C_2  and  C_3 
REMARK    2  A    between atoms: C_3  and  C_4 
REMARK    3  A    between atoms: C_3  and  C_23 
REMARK    4  A    between atoms: C_4  and  C_5 
REMARK    5  A    between atoms: C_4  and  C_17 
REMARK    6  A    between atoms: C_15  and  O_16 
REMARK    7  A    between atoms: C_23  and  N_24 
REMARK    8  A    between atoms: N_31  and  N_32 
REMARK       I    between atoms: N_32  and  C_33 
REMARK    9  A    between atoms: C_33  and  C_34 
ROOT
HETATM    1  C   UNL     1      33.523  43.024  66.038  1.00  0.00     0.213 C 
HETATM    2  C   UNL     1      33.081  42.602  67.430  1.00  0.00    -0.011 C 
HETATM    3  N   UNL     1      32.714  42.252  68.585  1.00  0.00    -0.101 N 
ENDROOT
BRANCH   1   4
HETATM    4  C   UNL     1      34.967  42.625  65.811  1.00  0.00     0.249 C 
HETATM    5  N   UNL     1      35.905  43.646  65.902  1.00  0.00    -0.246 N 
HETATM    6  H   UNL     1      35.633  44.620  66.016  1.00  0.00     0.192 HD
HETATM    7  O   UNL     1      35.278  41.475  65.484  1.00  0.00    -0.271 OA
BRANCH   5   8
HETATM    8  N   UNL     1      37.220  43.312  65.948  1.00  0.00    -0.181 NA
HETATM    9  C   UNL     1      37.997  43.643  64.964  1.00  0.00     0.035 C 
HETATM   10  C   UNL     1      37.543  44.374  63.720  1.00  0.00     0.068 C 
BRANCH   9  11
HETATM   11  C   UNL     1      39.490  43.355  65.121  1.00  0.00     0.074 C 
BRANCH  11  12
HETATM   12  C   UNL     1      40.309  44.449  65.879  1.00  0.00     0.072 C 
BRANCH  12  13
HETATM   13  C   UNL     1      39.825  45.901  65.800  1.00  0.00     0.061 C 
HETATM   14  C   UNL     1      40.526  46.731  64.779  1.00  0.00     0.298 C 
HETATM   15  O   UNL     1      41.264  46.191  63.951  1.00  0.00    -0.259 OA
HETATM   16  O   UNL     1      40.263  48.083  64.712  1.00  0.00    -0.274 OA
HETATM   17  C   UNL     1      39.256  48.662  65.497  1.00  0.00     0.092 A 
HETATM   18  C   UNL     1      38.515  47.893  66.387  1.00  0.00     0.032 A 
HETATM   19  C   UNL     1      39.033  50.029  65.333  1.00  0.00     0.038 A 
HETATM   20  C   UNL     1      37.527  48.536  67.145  1.00  0.00     0.017 A 
HETATM   21  C   UNL     1      38.841  46.472  66.514  1.00  0.00     0.091 C 
HETATM   22  C   UNL     1      37.290  49.906  66.991  1.00  0.00     0.001 A 
HETATM   23  C   UNL     1      38.041  50.652  66.085  1.00  0.00     0.003 A 
BRANCH  21  24
HETATM   24  O   UNL     1      38.066  45.751  67.391  1.00  0.00    -0.359 OA
HETATM   25  H   UNL     1      37.334  45.354  66.864  1.00  0.00     0.218 HD
ENDBRANCH  21  24
ENDBRANCH  12  13
BRANCH  12  26
HETATM   26  C   UNL     1      40.855  44.035  67.251  1.00  0.00    -0.049 A 
HETATM   27  C   UNL     1      41.969  44.722  67.777  1.00  0.00     0.008 A 
HETATM   28  C   UNL     1      42.512  44.381  69.018  1.00  0.00     0.001 A 
HETATM   29  C   UNL     1      41.949  43.353  69.764  1.00  0.00     0.000 A 
HETATM   30  C   UNL     1      40.835  42.677  69.276  1.00  0.00     0.001 A 
HETATM   31  C   UNL     1      40.290  43.020  68.035  1.00  0.00     0.008 A 
ENDBRANCH  12  26
ENDBRANCH  11  12
BRANCH  11  32
HETATM   32  C   UNL     1      39.994  43.034  63.697  1.00  0.00     0.246 C 
BRANCH  32  33
HETATM   33  N   UNL     1      40.327  41.570  63.447  1.00  0.00    -0.070 N 
HETATM   34  H   UNL     1      41.082  41.535  62.728  1.00  0.00     0.279 HD
HETATM   35  C   UNL     1      40.783  40.828  64.679  1.00  0.00     0.235 C 
HETATM   36  C   UNL     1      41.123  39.384  64.342  1.00  0.00     0.028 C 
HETATM   37  C   UNL     1      39.966  38.672  63.657  1.00  0.00     0.003 C 
HETATM   38  C   UNL     1      39.517  39.444  62.425  1.00  0.00     0.028 C 
HETATM   39  C   UNL     1      39.153  40.879  62.771  1.00  0.00     0.235 C 
ENDBRANCH  32  33
ENDBRANCH  11  32
ENDBRANCH   9  11
ENDBRANCH   5   8
ENDBRANCH   1   4
TORSDOF 9
ENDMDL
MODEL 5
REMARK VINA RESULT:      -7.1     10.129     13.935
REMARK  9 active torsions:
REMARK  status: ('A' for Active; 'I' for Inactive)
REMARK    1  A    between atoms: C_2  and  C_3 
REMARK    2  A    between atoms: C_3  and  C_4 
REMARK    3  A    between atoms: C_3  and  C_23 
REMARK    4  A    between atoms: C_4  and  C_5 
REMARK    5  A    between atoms: C_4  and  C_17 
REMARK    6  A    between atoms: C_15  and  O_16 
REMARK    7  A    between atoms: C_23  and  N_24 
REMARK    8  A    between atoms: N_31  and  N_32 
REMARK       I    between atoms: N_32  and  C_33 
REMARK    9  A    between atoms: C_33  and  C_34 
ROOT
HETATM    1  C   UNL     1      14.845  53.462  50.224  1.00  0.00     0.213 C 
HETATM    2  C   UNL     1      14.248  54.353  49.146  1.00  0.00    -0.011 C 
HETATM    3  N   UNL     1      13.752  55.092  48.252  1.00  0.00    -0.101 N 
ENDROOT
BRANCH   1   4
HETATM    4  C   UNL     1      15.676  52.366  49.588  1.00  0.00     0.249 C 
HETATM    5  N   UNL     1      16.917  52.127  50.166  1.00  0.00    -0.246 N 
HETATM    6  H   UNL     1      17.289  52.715  50.909  1.00  0.00     0.192 HD
HETATM    7  O   UNL     1      15.303  51.780  48.568  1.00  0.00    -0.271 OA
BRANCH   5   8
HETATM    8  N   UNL     1      17.595  51.010  49.799  1.00  0.00    -0.181 NA
HETATM    9  C   UNL     1      18.550  51.102  48.926  1.00  0.00     0.035 C 
HETATM   10  C   UNL     1      18.970  52.386  48.246  1.00  0.00     0.068 C 
BRANCH   9  11
HETATM   11  C   UNL     1      19.363  49.841  48.640  1.00  0.00     0.074 C 
BRANCH  11  12
HETATM   12  C   UNL     1      18.534  48.593  48.196  1.00  0.00     0.072 C 
BRANCH  12  13
HETATM   13  C   UNL     1      17.253  48.825  47.388  1.00  0.00     0.061 C 
HETATM   14  C   UNL     1      16.027  48.226  47.988  1.00  0.00     0.298 C 
HETATM   15  O   UNL     1      16.059  47.787  49.140  1.00  0.00    -0.259 OA
HETATM   16  O   UNL     1      14.843  48.261  47.281  1.00  0.00    -0.274 OA
HETATM   17  C   UNL     1      14.746  48.962  46.071  1.00  0.00     0.092 A 
HETATM   18  C   UNL     1      15.849  49.617  45.535  1.00  0.00     0.032 A 
HETATM   19  C   UNL     1      13.499  48.976  45.446  1.00  0.00     0.038 A 
HETATM   20  C   UNL     1      15.685  50.294  44.319  1.00  0.00     0.017 A 
HETATM   21  C   UNL     1      17.126  49.521  46.245  1.00  0.00     0.091 C 
HETATM   22  C   UNL     1      14.440  50.319  43.680  1.00  0.00     0.001 A 
HETATM   23  C   UNL     1      13.348  49.663  44.244  1.00  0.00     0.003 A 
BRANCH  21  24
HETATM   24  O   UNL     1      18.180  50.202  45.687  1.00  0.00    -0.359 OA
HETATM   25  H   UNL     1      18.793  50.432  46.424  1.00  0.00     0.218 HD
ENDBRANCH  21  24
ENDBRANCH  12  13
BRANCH  12  26
HETATM   26  C   UNL     1      19.355  47.376  47.751  1.00  0.00    -0.049 A 
HETATM   27  C   UNL     1      20.101  47.456  46.558  1.00  0.00     0.008 A 
HETATM   28  C   UNL     1      20.860  46.375  46.102  1.00  0.00     0.001 A 
HETATM   29  C   UNL     1      20.896  45.194  46.833  1.00  0.00     0.000 A 
HETATM   30  C   UNL     1      20.185  45.100  48.025  1.00  0.00     0.001 A 
HETATM   31  C   UNL     1      19.428  46.183  48.483  1.00  0.00     0.008 A 
ENDBRANCH  12  26
ENDBRANCH  11  12
BRANCH  11  32
HETATM   32  C   UNL     1      20.240  49.628  49.894  1.00  0.00     0.246 C 
BRANCH  32  33
HETATM   33  N   UNL     1      21.740  49.734  49.658  1.00  0.00    -0.070 N 
HETATM   34  H   UNL     1      22.181  50.035  50.553  1.00  0.00     0.279 HD
HETATM   35  C   UNL     1      22.377  48.446  49.199  1.00  0.00     0.235 C 
HETATM   36  C   UNL     1      23.877  48.626  49.013  1.00  0.00     0.028 C 
HETATM   37  C   UNL     1      24.200  49.776  48.071  1.00  0.00     0.003 C 
HETATM   38  C   UNL     1      23.537  51.060  48.547  1.00  0.00     0.028 C 
HETATM   39  C   UNL     1      22.034  50.883  48.706  1.00  0.00     0.235 C 
ENDBRANCH  32  33
ENDBRANCH  11  32
ENDBRANCH   9  11
ENDBRANCH   5   8
ENDBRANCH   1   4
TORSDOF 9
ENDMDL
MODEL 6
REMARK VINA RESULT:      -7.0     26.065     28.613
REMARK  9 active torsions:
REMARK  status: ('A' for Active; 'I' for Inactive)
REMARK    1  A    between atoms: C_2  and  C_3 
REMARK    2  A    between atoms: C_3  and  C_4 
REMARK    3  A    between atoms: C_3  and  C_23 
REMARK    4  A    between atoms: C_4  and  C_5 
REMARK    5  A    between atoms: C_4  and  C_17 
REMARK    6  A    between atoms: C_15  and  O_16 
REMARK    7  A    between atoms: C_23  and  N_24 
REMARK    8  A    between atoms: N_31  and  N_32 
REMARK       I    between atoms: N_32  and  C_33 
REMARK    9  A    between atoms: C_33  and  C_34 
ROOT
HETATM    1  C   UNL     1      33.709  42.859  65.954  1.00  0.00     0.213 C 
HETATM    2  C   UNL     1      33.169  42.591  67.349  1.00  0.00    -0.011 C 
HETATM    3  N   UNL     1      32.721  42.368  68.507  1.00  0.00    -0.101 N 
ENDROOT
BRANCH   1   4
HETATM    4  C   UNL     1      35.121  43.404  66.041  1.00  0.00     0.249 C 
HETATM    5  N   UNL     1      35.236  44.775  66.242  1.00  0.00    -0.246 N 
HETATM    6  H   UNL     1      34.426  45.391  66.232  1.00  0.00     0.192 HD
HETATM    7  O   UNL     1      36.106  42.682  65.864  1.00  0.00    -0.271 OA
BRANCH   5   8
HETATM    8  N   UNL     1      36.453  45.279  66.567  1.00  0.00    -0.181 NA
HETATM    9  C   UNL     1      37.068  46.054  65.728  1.00  0.00     0.035 C 
HETATM   10  C   UNL     1      36.534  46.438  64.366  1.00  0.00     0.068 C 
BRANCH   9  11
HETATM   11  C   UNL     1      38.374  46.695  66.192  1.00  0.00     0.074 C 
BRANCH  11  12
HETATM   12  C   UNL     1      39.577  45.714  66.373  1.00  0.00     0.072 C 
BRANCH  12  13
HETATM   13  C   UNL     1      39.447  44.296  65.804  1.00  0.00     0.061 C 
HETATM   14  C   UNL     1      39.409  43.219  66.833  1.00  0.00     0.298 C 
HETATM   15  O   UNL     1      39.273  43.511  68.023  1.00  0.00    -0.259 OA
HETATM   16  O   UNL     1      39.426  41.900  66.429  1.00  0.00    -0.274 OA
HETATM   17  C   UNL     1      39.347  41.560  65.072  1.00  0.00     0.092 A 
HETATM   18  C   UNL     1      39.279  42.544  64.092  1.00  0.00     0.032 A 
HETATM   19  C   UNL     1      39.330  40.200  64.760  1.00  0.00     0.038 A 
HETATM   20  C   UNL     1      39.209  42.135  62.754  1.00  0.00     0.017 A 
HETATM   21  C   UNL     1      39.335  43.946  64.512  1.00  0.00     0.091 C 
HETATM   22  C   UNL     1      39.189  40.776  62.424  1.00  0.00     0.001 A 
HETATM   23  C   UNL     1      39.248  39.809  63.426  1.00  0.00     0.003 A 
BRANCH  21  24
HETATM   24  O   UNL     1      39.244  44.880  63.510  1.00  0.00    -0.359 OA
HETATM   25  H   UNL     1      38.332  44.816  63.141  1.00  0.00     0.218 HD
ENDBRANCH  21  24
ENDBRANCH  12  13
BRANCH  12  26
HETATM   26  C   UNL     1      40.970  46.336  66.217  1.00  0.00    -0.049 A 
HETATM   27  C   UNL     1      41.530  47.036  67.306  1.00  0.00     0.008 A 
HETATM   28  C   UNL     1      42.792  47.629  67.215  1.00  0.00     0.001 A 
HETATM   29  C   UNL     1      43.524  47.528  66.039  1.00  0.00     0.000 A 
HETATM   30  C   UNL     1      43.002  46.823  64.961  1.00  0.00     0.001 A 
HETATM   31  C   UNL     1      41.740  46.227  65.051  1.00  0.00     0.008 A 
ENDBRANCH  12  26
ENDBRANCH  11  12
BRANCH  11  32
HETATM   32  C   UNL     1      38.004  47.511  67.450  1.00  0.00     0.246 C 
BRANCH  32  33
HETATM   33  N   UNL     1      38.285  49.004  67.357  1.00  0.00    -0.070 N 
HETATM   34  H   UNL     1      39.011  49.234  68.069  1.00  0.00     0.279 HD
HETATM   35  C   UNL     1      38.764  49.450  65.998  1.00  0.00     0.235 C 
HETATM   36  C   UNL     1      39.050  50.945  65.993  1.00  0.00     0.028 C 
HETATM   37  C   UNL     1      37.849  51.755  66.457  1.00  0.00     0.003 C 
HETATM   38  C   UNL     1      37.377  51.280  67.823  1.00  0.00     0.028 C 
HETATM   39  C   UNL     1      37.067  49.790  67.815  1.00  0.00     0.235 C 
ENDBRANCH  32  33
ENDBRANCH  11  32
ENDBRANCH   9  11
ENDBRANCH   5   8
ENDBRANCH   1   4
TORSDOF 9
ENDMDL
MODEL 7
REMARK VINA RESULT:      -6.9      7.490     10.329
REMARK  9 active torsions:
REMARK  status: ('A' for Active; 'I' for Inactive)
REMARK    1  A    between atoms: C_2  and  C_3 
REMARK    2  A    between atoms: C_3  and  C_4 
REMARK    3  A    between atoms: C_3  and  C_23 
REMARK    4  A    between atoms: C_4  and  C_5 
REMARK    5  A    between atoms: C_4  and  C_17 
REMARK    6  A    between atoms: C_15  and  O_16 
REMARK    7  A    between atoms: C_23  and  N_24 
REMARK    8  A    between atoms: N_31  and  N_32 
REMARK       I    between atoms: N_32  and  C_33 
REMARK    9  A    between atoms: C_33  and  C_34 
ROOT
HETATM    1  C   UNL     1      23.951  43.449  43.815  1.00  0.00     0.213 C 
HETATM    2  C   UNL     1      24.155  43.165  42.335  1.00  0.00    -0.011 C 
HETATM    3  N   UNL     1      24.324  42.929  41.107  1.00  0.00    -0.101 N 
ENDROOT
BRANCH   1   4
HETATM    4  C   UNL     1      23.206  44.757  43.992  1.00  0.00     0.249 C 
HETATM    5  N   UNL     1      22.495  44.899  45.178  1.00  0.00    -0.246 N 
HETATM    6  H   UNL     1      22.398  44.135  45.844  1.00  0.00     0.192 HD
HETATM    7  O   UNL     1      23.170  45.608  43.100  1.00  0.00    -0.271 OA
BRANCH   5   8
HETATM    8  N   UNL     1      22.014  46.127  45.498  1.00  0.00    -0.181 NA
HETATM    9  C   UNL     1      21.071  46.232  46.383  1.00  0.00     0.035 C 
HETATM   10  C   UNL     1      20.427  45.062  47.093  1.00  0.00     0.068 C 
BRANCH   9  11
HETATM   11  C   UNL     1      20.652  47.641  46.798  1.00  0.00     0.074 C 
BRANCH  11  12
HETATM   12  C   UNL     1      21.122  48.090  48.219  1.00  0.00     0.072 C 
BRANCH  12  13
HETATM   13  C   UNL     1      22.628  48.163  48.494  1.00  0.00     0.061 C 
HETATM   14  C   UNL     1      23.166  47.028  49.296  1.00  0.00     0.298 C 
HETATM   15  O   UNL     1      22.462  46.036  49.503  1.00  0.00    -0.259 OA
HETATM   16  O   UNL     1      24.480  47.059  49.713  1.00  0.00    -0.274 OA
HETATM   17  C   UNL     1      25.348  48.073  49.287  1.00  0.00     0.092 A 
HETATM   18  C   UNL     1      24.900  49.093  48.454  1.00  0.00     0.032 A 
HETATM   19  C   UNL     1      26.670  48.001  49.727  1.00  0.00     0.038 A 
HETATM   20  C   UNL     1      25.819  50.078  48.071  1.00  0.00     0.017 A 
HETATM   21  C   UNL     1      23.488  49.104  48.069  1.00  0.00     0.091 C 
HETATM   22  C   UNL     1      27.149  50.020  48.502  1.00  0.00     0.001 A 
HETATM   23  C   UNL     1      27.575  48.982  49.328  1.00  0.00     0.003 A 
BRANCH  21  24
HETATM   24  O   UNL     1      23.099  50.119  47.230  1.00  0.00    -0.359 OA
HETATM   25  H   UNL     1      22.942  50.913  47.794  1.00  0.00     0.218 HD
ENDBRANCH  21  24
ENDBRANCH  12  13
BRANCH  12  26
HETATM   26  C   UNL     1      20.302  49.215  48.864  1.00  0.00    -0.049 A 
HETATM   27  C   UNL     1      20.439  50.528  48.369  1.00  0.00     0.008 A 
HETATM   28  C   UNL     1      19.722  51.591  48.924  1.00  0.00     0.001 A 
HETATM   29  C   UNL     1      18.847  51.363  49.979  1.00  0.00     0.000 A 
HETATM   30  C   UNL     1      18.679  50.072  50.468  1.00  0.00     0.001 A 
HETATM   31  C   UNL     1      19.394  49.008  49.911  1.00  0.00     0.008 A 
ENDBRANCH  12  26
ENDBRANCH  11  12
BRANCH  11  32
HETATM   32  C   UNL     1      19.125  47.696  46.569  1.00  0.00     0.246 C 
BRANCH  32  33
HETATM   33  N   UNL     1      18.586  49.055  46.145  1.00  0.00    -0.070 N 
HETATM   34  H   UNL     1      19.233  49.783  46.518  1.00  0.00     0.279 HD
HETATM   35  C   UNL     1      18.460  49.223  44.651  1.00  0.00     0.235 C 
HETATM   36  C   UNL     1      17.944  50.613  44.309  1.00  0.00     0.028 C 
HETATM   37  C   UNL     1      16.635  50.925  45.018  1.00  0.00     0.003 C 
HETATM   38  C   UNL     1      16.783  50.737  46.521  1.00  0.00     0.028 C 
HETATM   39  C   UNL     1      17.274  49.338  46.860  1.00  0.00     0.235 C 
ENDBRANCH  32  33
ENDBRANCH  11  32
ENDBRANCH   9  11
ENDBRANCH   5   8
ENDBRANCH   1   4
TORSDOF 9
ENDMDL
MODEL 8
REMARK VINA RESULT:      -6.7      9.189     11.380
REMARK  9 active torsions:
REMARK  status: ('A' for Active; 'I' for Inactive)
REMARK    1  A    between atoms: C_2  and  C_3 
REMARK    2  A    between atoms: C_3  and  C_4 
REMARK    3  A    between atoms: C_3  and  C_23 
REMARK    4  A    between atoms: C_4  and  C_5 
REMARK    5  A    between atoms: C_4  and  C_17 
REMARK    6  A    between atoms: C_15  and  O_16 
REMARK    7  A    between atoms: C_23  and  N_24 
REMARK    8  A    between atoms: N_31  and  N_32 
REMARK       I    between atoms: N_32  and  C_33 
REMARK    9  A    between atoms: C_33  and  C_34 
ROOT
HETATM    1  C   UNL     1      17.418  52.756  49.918  1.00  0.00     0.213 C 
HETATM    2  C   UNL     1      15.977  53.053  49.537  1.00  0.00    -0.011 C 
HETATM    3  N   UNL     1      14.781  53.301  49.220  1.00  0.00    -0.101 N 
ENDROOT
BRANCH   1   4
HETATM    4  C   UNL     1      17.963  51.640  49.050  1.00  0.00     0.249 C 
HETATM    5  N   UNL     1      18.795  50.723  49.682  1.00  0.00    -0.246 N 
HETATM    6  H   UNL     1      19.101  50.847  50.646  1.00  0.00     0.192 HD
HETATM    7  O   UNL     1      17.744  51.598  47.836  1.00  0.00    -0.271 OA
BRANCH   5   8
HETATM    8  N   UNL     1      19.114  49.580  49.024  1.00  0.00    -0.181 NA
HETATM    9  C   UNL     1      19.084  48.449  49.658  1.00  0.00     0.035 C 
HETATM   10  C   UNL     1      18.733  48.295  51.121  1.00  0.00     0.068 C 
BRANCH   9  11
HETATM   11  C   UNL     1      19.329  47.181  48.843  1.00  0.00     0.074 C 
BRANCH  11  12
HETATM   12  C   UNL     1      20.459  47.281  47.767  1.00  0.00     0.072 C 
BRANCH  12  13
HETATM   13  C   UNL     1      21.875  47.630  48.235  1.00  0.00     0.061 C 
HETATM   14  C   UNL     1      22.344  48.985  47.829  1.00  0.00     0.298 C 
HETATM   15  O   UNL     1      21.544  49.794  47.352  1.00  0.00    -0.259 OA
HETATM   16  O   UNL     1      23.649  49.353  48.083  1.00  0.00    -0.274 OA
HETATM   17  C   UNL     1      24.499  48.525  48.830  1.00  0.00     0.092 A 
HETATM   18  C   UNL     1      24.058  47.297  49.311  1.00  0.00     0.032 A 
HETATM   19  C   UNL     1      25.790  48.996  49.072  1.00  0.00     0.038 A 
HETATM   20  C   UNL     1      24.960  46.517  50.046  1.00  0.00     0.017 A 
HETATM   21  C   UNL     1      22.697  46.871  48.980  1.00  0.00     0.091 C 
HETATM   22  C   UNL     1      26.257  46.976  50.299  1.00  0.00     0.001 A 
HETATM   23  C   UNL     1      26.672  48.215  49.814  1.00  0.00     0.003 A 
BRANCH  21  24
HETATM   24  O   UNL     1      22.301  45.661  49.496  1.00  0.00    -0.359 OA
HETATM   25  H   UNL     1      22.959  44.992  49.193  1.00  0.00     0.218 HD
ENDBRANCH  21  24
ENDBRANCH  12  13
BRANCH  12  26
HETATM   26  C   UNL     1      20.399  46.238  46.644  1.00  0.00    -0.049 A 
HETATM   27  C   UNL     1      20.313  44.873  46.985  1.00  0.00     0.008 A 
HETATM   28  C   UNL     1      20.264  43.881  46.002  1.00  0.00     0.001 A 
HETATM   29  C   UNL     1      20.290  44.232  44.659  1.00  0.00     0.000 A 
HETATM   30  C   UNL     1      20.352  45.574  44.299  1.00  0.00     0.001 A 
HETATM   31  C   UNL     1      20.399  46.567  45.282  1.00  0.00     0.008 A 
ENDBRANCH  12  26
ENDBRANCH  11  12
BRANCH  11  32
HETATM   32  C   UNL     1      17.943  46.774  48.296  1.00  0.00     0.246 C 
BRANCH  32  33
HETATM   33  N   UNL     1      17.192  47.875  47.560  1.00  0.00    -0.070 N 
HETATM   34  H   UNL     1      17.729  48.761  47.683  1.00  0.00     0.279 HD
HETATM   35  C   UNL     1      17.006  47.608  46.088  1.00  0.00     0.235 C 
HETATM   36  C   UNL     1      16.275  48.763  45.420  1.00  0.00     0.028 C 
HETATM   37  C   UNL     1      14.951  49.070  46.104  1.00  0.00     0.003 C 
HETATM   38  C   UNL     1      15.162  49.324  47.589  1.00  0.00     0.028 C 
HETATM   39  C   UNL     1      15.870  48.155  48.257  1.00  0.00     0.235 C 
ENDBRANCH  32  33
ENDBRANCH  11  32
ENDBRANCH   9  11
ENDBRANCH   5   8
ENDBRANCH   1   4
TORSDOF 9
ENDMDL
MODEL 9
REMARK VINA RESULT:      -6.6     10.254     13.035
REMARK  9 active torsions:
REMARK  status: ('A' for Active; 'I' for Inactive)
REMARK    1  A    between atoms: C_2  and  C_3 
REMARK    2  A    between atoms: C_3  and  C_4 
REMARK    3  A    between atoms: C_3  and  C_23 
REMARK    4  A    between atoms: C_4  and  C_5 
REMARK    5  A    between atoms: C_4  and  C_17 
REMARK    6  A    between atoms: C_15  and  O_16 
REMARK    7  A    between atoms: C_23  and  N_24 
REMARK    8  A    between atoms: N_31  and  N_32 
REMARK       I    between atoms: N_32  and  C_33 
REMARK    9  A    between atoms: C_33  and  C_34 
ROOT
HETATM    1  C   UNL     1      14.580  53.715  49.199  1.00  0.00     0.213 C 
HETATM    2  C   UNL     1      14.341  53.969  47.720  1.00  0.00    -0.011 C 
HETATM    3  N   UNL     1      14.143  54.180  46.492  1.00  0.00    -0.101 N 
ENDROOT
BRANCH   1   4
HETATM    4  C   UNL     1      15.732  52.746  49.378  1.00  0.00     0.249 C 
HETATM    5  N   UNL     1      15.487  51.430  49.004  1.00  0.00    -0.246 N 
HETATM    6  H   UNL     1      14.563  51.113  48.720  1.00  0.00     0.192 HD
HETATM    7  O   UNL     1      16.795  53.093  49.901  1.00  0.00    -0.271 OA
BRANCH   5   8
HETATM    8  N   UNL     1      16.541  50.579  48.914  1.00  0.00    -0.181 NA
HETATM    9  C   UNL     1      16.470  49.559  48.116  1.00  0.00     0.035 C 
HETATM   10  C   UNL     1      15.266  49.215  47.267  1.00  0.00     0.068 C 
BRANCH   9  11
HETATM   11  C   UNL     1      17.726  48.704  47.957  1.00  0.00     0.074 C 
BRANCH  11  12
HETATM   12  C   UNL     1      18.799  49.263  46.968  1.00  0.00     0.072 C 
BRANCH  12  13
HETATM   13  C   UNL     1      18.317  50.067  45.755  1.00  0.00     0.061 C 
HETATM   14  C   UNL     1      18.293  49.302  44.477  1.00  0.00     0.298 C 
HETATM   15  O   UNL     1      18.445  48.077  44.492  1.00  0.00    -0.259 OA
HETATM   16  O   UNL     1      18.003  49.961  43.301  1.00  0.00    -0.274 OA
HETATM   17  C   UNL     1      17.603  51.304  43.307  1.00  0.00     0.092 A 
HETATM   18  C   UNL     1      17.518  52.018  44.497  1.00  0.00     0.032 A 
HETATM   19  C   UNL     1      17.290  51.877  42.074  1.00  0.00     0.038 A 
HETATM   20  C   UNL     1      17.118  53.359  44.431  1.00  0.00     0.017 A 
HETATM   21  C   UNL     1      17.897  51.343  45.740  1.00  0.00     0.091 C 
HETATM   22  C   UNL     1      16.799  53.948  43.203  1.00  0.00     0.001 A 
HETATM   23  C   UNL     1      16.883  53.208  42.025  1.00  0.00     0.003 A 
BRANCH  21  24
HETATM   24  O   UNL     1      17.775  52.083  46.890  1.00  0.00    -0.359 OA
HETATM   25  H   UNL     1      18.625  51.989  47.382  1.00  0.00     0.218 HD
ENDBRANCH  21  24
ENDBRANCH  12  13
BRANCH  12  26
HETATM   26  C   UNL     1      20.083  49.798  47.616  1.00  0.00    -0.049 A 
HETATM   27  C   UNL     1      19.980  50.779  48.623  1.00  0.00     0.008 A 
HETATM   28  C   UNL     1      21.117  51.306  49.241  1.00  0.00     0.001 A 
HETATM   29  C   UNL     1      22.379  50.858  48.872  1.00  0.00     0.000 A 
HETATM   30  C   UNL     1      22.503  49.874  47.897  1.00  0.00     0.001 A 
HETATM   31  C   UNL     1      21.365  49.345  47.280  1.00  0.00     0.008 A 
ENDBRANCH  12  26
ENDBRANCH  11  12
BRANCH  11  32
HETATM   32  C   UNL     1      17.213  47.284  47.627  1.00  0.00     0.246 C 
BRANCH  32  33
HETATM   33  N   UNL     1      18.241  46.360  46.990  1.00  0.00    -0.070 N 
HETATM   34  H   UNL     1      18.736  46.900  46.248  1.00  0.00     0.279 HD
HETATM   35  C   UNL     1      19.255  45.812  47.963  1.00  0.00     0.235 C 
HETATM   36  C   UNL     1      20.261  44.923  47.247  1.00  0.00     0.028 C 
HETATM   37  C   UNL     1      19.581  43.811  46.463  1.00  0.00     0.003 C 
HETATM   38  C   UNL     1      18.555  44.387  45.497  1.00  0.00     0.028 C 
HETATM   39  C   UNL     1      17.537  45.253  46.222  1.00  0.00     0.235 C 
ENDBRANCH  32  33
ENDBRANCH  11  32
ENDBRANCH   9  11
ENDBRANCH   5   8
ENDBRANCH   1   4
TORSDOF 9
ENDMDL
MODEL 10
REMARK VINA RESULT:      -6.4     25.901     28.248
REMARK  9 active torsions:
REMARK  status: ('A' for Active; 'I' for Inactive)
REMARK    1  A    between atoms: C_2  and  C_3 
REMARK    2  A    between atoms: C_3  and  C_4 
REMARK    3  A    between atoms: C_3  and  C_23 
REMARK    4  A    between atoms: C_4  and  C_5 
REMARK    5  A    between atoms: C_4  and  C_17 
REMARK    6  A    between atoms: C_15  and  O_16 
REMARK    7  A    between atoms: C_23  and  N_24 
REMARK    8  A    between atoms: N_31  and  N_32 
REMARK       I    between atoms: N_32  and  C_33 
REMARK    9  A    between atoms: C_33  and  C_34 
ROOT
HETATM    1  C   UNL     1      37.775  52.104  66.403  1.00  0.00     0.213 C 
HETATM    2  C   UNL     1      38.285  53.072  67.459  1.00  0.00    -0.011 C 
HETATM    3  N   UNL     1      38.707  53.875  68.335  1.00  0.00    -0.101 N 
ENDROOT
BRANCH   1   4
HETATM    4  C   UNL     1      38.410  50.742  66.600  1.00  0.00     0.249 C 
HETATM    5  N   UNL     1      37.544  49.655  66.580  1.00  0.00    -0.246 N 
HETATM    6  H   UNL     1      36.533  49.771  66.534  1.00  0.00     0.192 HD
HETATM    7  O   UNL     1      39.613  50.617  66.846  1.00  0.00    -0.271 OA
BRANCH   5   8
HETATM    8  N   UNL     1      38.075  48.408  66.509  1.00  0.00    -0.181 NA
HETATM    9  C   UNL     1      37.857  47.681  65.457  1.00  0.00     0.035 C 
HETATM   10  C   UNL     1      37.016  48.111  64.276  1.00  0.00     0.068 C 
BRANCH   9  11
HETATM   11  C   UNL     1      38.579  46.337  65.372  1.00  0.00     0.074 C 
BRANCH  11  12
HETATM   12  C   UNL     1      37.656  45.076  65.377  1.00  0.00     0.072 C 
BRANCH  12  13
HETATM   13  C   UNL     1      38.202  43.776  64.776  1.00  0.00     0.061 C 
HETATM   14  C   UNL     1      37.867  43.572  63.338  1.00  0.00     0.298 C 
HETATM   15  O   UNL     1      37.384  44.499  62.682  1.00  0.00    -0.259 OA
HETATM   16  O   UNL     1      38.195  42.377  62.731  1.00  0.00    -0.274 OA
HETATM   17  C   UNL     1      38.950  41.409  63.407  1.00  0.00     0.092 A 
HETATM   18  C   UNL     1      39.364  41.614  64.719  1.00  0.00     0.032 A 
HETATM   19  C   UNL     1      39.268  40.248  62.702  1.00  0.00     0.038 A 
HETATM   20  C   UNL     1      40.111  40.603  65.337  1.00  0.00     0.017 A 
HETATM   21  C   UNL     1      38.956  42.849  65.390  1.00  0.00     0.091 C 
HETATM   22  C   UNL     1      40.440  39.434  64.643  1.00  0.00     0.001 A 
HETATM   23  C   UNL     1      40.020  39.257  63.326  1.00  0.00     0.003 A 
BRANCH  21  24
HETATM   24  O   UNL     1      39.407  43.015  66.677  1.00  0.00    -0.359 OA
HETATM   25  H   UNL     1      39.727  43.945  66.749  1.00  0.00     0.218 HD
ENDBRANCH  21  24
ENDBRANCH  12  13
BRANCH  12  26
HETATM   26  C   UNL     1      36.802  44.885  66.637  1.00  0.00    -0.049 A 
HETATM   27  C   UNL     1      35.515  44.324  66.510  1.00  0.00     0.008 A 
HETATM   28  C   UNL     1      34.693  44.135  67.623  1.00  0.00     0.001 A 
HETATM   29  C   UNL     1      35.143  44.494  68.888  1.00  0.00     0.000 A 
HETATM   30  C   UNL     1      36.418  45.028  69.040  1.00  0.00     0.001 A 
HETATM   31  C   UNL     1      37.242  45.215  67.926  1.00  0.00     0.008 A 
ENDBRANCH  12  26
ENDBRANCH  11  12
BRANCH  11  32
HETATM   32  C   UNL     1      39.640  46.373  66.494  1.00  0.00     0.246 C 
BRANCH  32  33
HETATM   33  N   UNL     1      41.073  46.142  66.034  1.00  0.00    -0.070 N 
HETATM   34  H   UNL     1      41.461  45.352  66.593  1.00  0.00     0.279 HD
HETATM   35  C   UNL     1      41.198  45.818  64.566  1.00  0.00     0.235 C 
HETATM   36  C   UNL     1      42.652  45.574  64.192  1.00  0.00     0.028 C 
HETATM   37  C   UNL     1      43.545  46.741  64.584  1.00  0.00     0.003 C 
HETATM   38  C   UNL     1      43.393  47.057  66.065  1.00  0.00     0.028 C 
HETATM   39  C   UNL     1      41.941  47.326  66.429  1.00  0.00     0.235 C 
ENDBRANCH  32  33
ENDBRANCH  11  32
ENDBRANCH   9  11
ENDBRANCH   5   8
ENDBRANCH   1   4
TORSDOF 9
ENDMDL
