MODEL 1
REMARK VINA RESULT:      -9.7      0.000      0.000
REMARK  6 active torsions:
REMARK  status: ('A' for Active; 'I' for Inactive)
REMARK    1  A    between atoms: C_2  and  C_4 
REMARK    2  A    between atoms: C_2  and  C_11 
REMARK    3  A    between atoms: C_2  and  O_3 
REMARK    4  A    between atoms: C_11  and  N_12 
REMARK       I    between atoms: N_12  and  C_13 
REMARK    5  A    between atoms: C_13  and  C_14 
REMARK    6  A    between atoms: C_18  and  C_19 
ROOT
HETATM    1  N   UNL     1      26.486  44.789  51.503  1.00  0.00    -0.352 N 
HETATM    2  C   UNL     1      26.492  45.393  50.266  1.00  0.00     0.272 C 
HETATM    3  O   UNL     1      27.462  45.391  49.514  1.00  0.00    -0.266 OA
HETATM    4  H   UNL     1      25.661  44.964  52.072  1.00  0.00     0.162 HD
ENDROOT
BRANCH   2   5
HETATM    5  C   UNL     1      25.222  46.054  49.931  1.00  0.00     0.146 A 
HETATM    6  N   UNL     1      24.078  45.367  49.744  1.00  0.00    -0.169 NA
HETATM    7  N   UNL     1      23.174  46.317  49.451  1.00  0.00    -0.277 N 
HETATM    8  H   UNL     1      22.228  46.023  49.239  1.00  0.00     0.189 HD
HETATM    9  C   UNL     1      23.667  47.598  49.459  1.00  0.00     0.063 A 
HETATM   10  C   UNL     1      25.007  47.445  49.762  1.00  0.00     0.071 A 
BRANCH   9  11
HETATM   11  C   UNL     1      22.869  48.791  49.168  1.00  0.00    -0.008 A 
HETATM   12  C   UNL     1      23.474  50.032  48.907  1.00  0.00     0.017 A 
HETATM   13  C   UNL     1      22.695  51.160  48.632  1.00  0.00     0.043 A 
HETATM   14  C   UNL     1      21.310  51.052  48.614  1.00  0.00     0.116 A 
HETATM   15  F   UNL     1      20.567  52.134  48.350  1.00  0.00    -0.206 F 
HETATM   16  C   UNL     1      20.688  49.837  48.863  1.00  0.00     0.043 A 
HETATM   17  C   UNL     1      21.467  48.709  49.139  1.00  0.00     0.017 A 
ENDBRANCH   9  11
ENDBRANCH   2   5
BRANCH   1  18
HETATM   18  C   UNL     1      27.657  44.166  52.090  1.00  0.00     0.165 C 
BRANCH  18  19
HETATM   19  C   UNL     1      27.420  43.583  53.517  1.00  0.00     0.099 C 
HETATM   20  C   UNL     1      26.060  44.046  54.073  1.00  0.00     0.053 C 
BRANCH  19  21
HETATM   21  C   UNL     1      28.617  43.958  54.414  1.00  0.00    -0.001 A 
HETATM   22  C   UNL     1      28.779  45.226  55.013  1.00  0.00     0.043 A 
HETATM   23 CL   UNL     1      27.649  46.523  54.799  1.00  0.00    -0.084 Cl
HETATM   24  C   UNL     1      29.873  45.507  55.845  1.00  0.00     0.024 A 
HETATM   25  C   UNL     1      30.827  44.532  56.113  1.00  0.00     0.002 A 
HETATM   26  C   UNL     1      30.685  43.270  55.555  1.00  0.00     0.001 A 
HETATM   27  C   UNL     1      29.597  42.987  54.724  1.00  0.00     0.012 A 
ENDBRANCH  19  21
BRANCH  19  28
HETATM   28  O   UNL     1      27.277  42.153  53.428  1.00  0.00    -0.384 OA
HETATM   29  H   UNL     1      26.429  41.962  52.992  1.00  0.00     0.211 HD
ENDBRANCH  19  28
ENDBRANCH  18  19
ENDBRANCH   1  18
TORSDOF 6
ENDMDL
MODEL 2
REMARK VINA RESULT:      -9.5      1.588      2.073
REMARK  6 active torsions:
REMARK  status: ('A' for Active; 'I' for Inactive)
REMARK    1  A    between atoms: C_2  and  C_4 
REMARK    2  A    between atoms: C_2  and  C_11 
REMARK    3  A    between atoms: C_2  and  O_3 
REMARK    4  A    between atoms: C_11  and  N_12 
REMARK       I    between atoms: N_12  and  C_13 
REMARK    5  A    between atoms: C_13  and  C_14 
REMARK    6  A    between atoms: C_18  and  C_19 
ROOT
HETATM    1  N   UNL     1      26.619  45.218  51.712  1.00  0.00    -0.352 N 
HETATM    2  C   UNL     1      26.734  45.371  50.349  1.00  0.00     0.272 C 
HETATM    3  O   UNL     1      27.260  44.541  49.613  1.00  0.00    -0.266 OA
HETATM    4  H   UNL     1      26.269  46.029  52.216  1.00  0.00     0.162 HD
ENDROOT
BRANCH   2   5
HETATM    5  C   UNL     1      26.172  46.636  49.852  1.00  0.00     0.146 A 
HETATM    6  N   UNL     1      26.943  47.614  49.336  1.00  0.00    -0.169 NA
HETATM    7  N   UNL     1      26.066  48.581  49.017  1.00  0.00    -0.277 N 
HETATM    8  H   UNL     1      26.432  49.444  48.631  1.00  0.00     0.189 HD
HETATM    9  C   UNL     1      24.754  48.275  49.278  1.00  0.00     0.063 A 
HETATM   10  C   UNL     1      24.805  47.009  49.833  1.00  0.00     0.071 A 
BRANCH   9  11
HETATM   11  C   UNL     1      23.629  49.173  49.014  1.00  0.00    -0.008 A 
HETATM   12  C   UNL     1      22.299  48.753  49.185  1.00  0.00     0.017 A 
HETATM   13  C   UNL     1      21.237  49.625  48.928  1.00  0.00     0.043 A 
HETATM   14  C   UNL     1      21.500  50.921  48.503  1.00  0.00     0.116 A 
HETATM   15  F   UNL     1      20.480  51.755  48.258  1.00  0.00    -0.206 F 
HETATM   16  C   UNL     1      22.804  51.363  48.332  1.00  0.00     0.043 A 
HETATM   17  C   UNL     1      23.866  50.491  48.588  1.00  0.00     0.017 A 
ENDBRANCH   9  11
ENDBRANCH   2   5
BRANCH   1  18
HETATM   18  C   UNL     1      27.191  44.100  52.438  1.00  0.00     0.165 C 
BRANCH  18  19
HETATM   19  C   UNL     1      26.983  44.172  53.982  1.00  0.00     0.099 C 
HETATM   20  C   UNL     1      26.097  45.375  54.355  1.00  0.00     0.053 C 
BRANCH  19  21
HETATM   21  C   UNL     1      28.363  44.179  54.671  1.00  0.00    -0.001 A 
HETATM   22  C   UNL     1      29.297  43.126  54.562  1.00  0.00     0.043 A 
HETATM   23 CL   UNL     1      28.996  41.687  53.644  1.00  0.00    -0.084 Cl
HETATM   24  C   UNL     1      30.552  43.196  55.187  1.00  0.00     0.024 A 
HETATM   25  C   UNL     1      30.914  44.317  55.924  1.00  0.00     0.002 A 
HETATM   26  C   UNL     1      30.025  45.376  56.033  1.00  0.00     0.001 A 
HETATM   27  C   UNL     1      28.773  45.310  55.414  1.00  0.00     0.012 A 
ENDBRANCH  19  21
BRANCH  19  28
HETATM   28  O   UNL     1      26.206  43.038  54.409  1.00  0.00    -0.384 OA
HETATM   29  H   UNL     1      25.642  42.762  53.666  1.00  0.00     0.211 HD
ENDBRANCH  19  28
ENDBRANCH  18  19
ENDBRANCH   1  18
TORSDOF 6
ENDMDL
MODEL 3
REMARK VINA RESULT:      -9.4      1.152      1.475
REMARK  6 active torsions:
REMARK  status: ('A' for Active; 'I' for Inactive)
REMARK    1  A    between atoms: C_2  and  C_4 
REMARK    2  A    between atoms: C_2  and  C_11 
REMARK    3  A    between atoms: C_2  and  O_3 
REMARK    4  A    between atoms: C_11  and  N_12 
REMARK       I    between atoms: N_12  and  C_13 
REMARK    5  A    between atoms: C_13  and  C_14 
REMARK    6  A    between atoms: C_18  and  C_19 
ROOT
HETATM    1  N   UNL     1      26.210  45.002  51.617  1.00  0.00    -0.352 N 
HETATM    2  C   UNL     1      26.316  45.360  50.292  1.00  0.00     0.272 C 
HETATM    3  O   UNL     1      27.311  45.143  49.607  1.00  0.00    -0.266 OA
HETATM    4  H   UNL     1      25.382  45.344  52.098  1.00  0.00     0.162 HD
ENDROOT
BRANCH   2   5
HETATM    5  C   UNL     1      25.122  46.042  49.772  1.00  0.00     0.146 A 
HETATM    6  N   UNL     1      24.142  45.385  49.121  1.00  0.00    -0.169 NA
HETATM    7  N   UNL     1      23.259  46.348  48.808  1.00  0.00    -0.277 N 
HETATM    8  H   UNL     1      22.436  46.084  48.279  1.00  0.00     0.189 HD
HETATM    9  C   UNL     1      23.602  47.604  49.243  1.00  0.00     0.063 A 
HETATM   10  C   UNL     1      24.823  47.425  49.868  1.00  0.00     0.071 A 
BRANCH   9  11
HETATM   11  C   UNL     1      22.796  48.805  49.017  1.00  0.00    -0.008 A 
HETATM   12  C   UNL     1      23.393  50.049  48.754  1.00  0.00     0.017 A 
HETATM   13  C   UNL     1      22.606  51.185  48.542  1.00  0.00     0.043 A 
HETATM   14  C   UNL     1      21.222  51.082  48.588  1.00  0.00     0.116 A 
HETATM   15  F   UNL     1      20.470  52.172  48.383  1.00  0.00    -0.206 F 
HETATM   16  C   UNL     1      20.607  49.864  48.840  1.00  0.00     0.043 A 
HETATM   17  C   UNL     1      21.394  48.727  49.054  1.00  0.00     0.017 A 
ENDBRANCH   9  11
ENDBRANCH   2   5
BRANCH   1  18
HETATM   18  C   UNL     1      27.299  44.413  52.372  1.00  0.00     0.165 C 
BRANCH  18  19
HETATM   19  C   UNL     1      27.060  44.378  53.912  1.00  0.00     0.099 C 
HETATM   20  C   UNL     1      26.203  45.578  54.356  1.00  0.00     0.053 C 
BRANCH  19  21
HETATM   21  C   UNL     1      28.424  44.291  54.627  1.00  0.00    -0.001 A 
HETATM   22  C   UNL     1      29.281  43.172  54.544  1.00  0.00     0.043 A 
HETATM   23 CL   UNL     1      28.891  41.749  53.634  1.00  0.00    -0.084 Cl
HETATM   24  C   UNL     1      30.525  43.155  55.191  1.00  0.00     0.024 A 
HETATM   25  C   UNL     1      30.956  44.255  55.925  1.00  0.00     0.002 A 
HETATM   26  C   UNL     1      30.146  45.377  56.008  1.00  0.00     0.001 A 
HETATM   27  C   UNL     1      28.903  45.397  55.366  1.00  0.00     0.012 A 
ENDBRANCH  19  21
BRANCH  19  28
HETATM   28  O   UNL     1      26.240  43.240  54.239  1.00  0.00    -0.384 OA
HETATM   29  H   UNL     1      25.671  43.485  54.989  1.00  0.00     0.211 HD
ENDBRANCH  19  28
ENDBRANCH  18  19
ENDBRANCH   1  18
TORSDOF 6
ENDMDL
MODEL 4
REMARK VINA RESULT:      -9.3      4.545      9.132
REMARK  6 active torsions:
REMARK  status: ('A' for Active; 'I' for Inactive)
REMARK    1  A    between atoms: C_2  and  C_4 
REMARK    2  A    between atoms: C_2  and  C_11 
REMARK    3  A    between atoms: C_2  and  O_3 
REMARK    4  A    between atoms: C_11  and  N_12 
REMARK       I    between atoms: N_12  and  C_13 
REMARK    5  A    between atoms: C_13  and  C_14 
REMARK    6  A    between atoms: C_18  and  C_19 
ROOT
HETATM    1  N   UNL     1      25.543  45.679  52.333  1.00  0.00    -0.352 N 
HETATM    2  C   UNL     1      25.765  46.797  53.104  1.00  0.00     0.272 C 
HETATM    3  O   UNL     1      25.160  47.855  52.958  1.00  0.00    -0.266 OA
HETATM    4  H   UNL     1      26.191  44.909  52.481  1.00  0.00     0.162 HD
ENDROOT
BRANCH   2   5
HETATM    5  C   UNL     1      26.810  46.609  54.121  1.00  0.00     0.146 A 
HETATM    6  N   UNL     1      27.060  47.526  55.077  1.00  0.00    -0.169 NA
HETATM    7  N   UNL     1      28.072  46.991  55.782  1.00  0.00    -0.277 N 
HETATM    8  H   UNL     1      28.452  47.530  56.550  1.00  0.00     0.189 HD
HETATM    9  C   UNL     1      28.483  45.755  55.346  1.00  0.00     0.063 A 
HETATM   10  C   UNL     1      27.675  45.494  54.255  1.00  0.00     0.071 A 
BRANCH   9  11
HETATM   11  C   UNL     1      29.567  44.984  55.957  1.00  0.00    -0.008 A 
HETATM   12  C   UNL     1      30.127  43.869  55.312  1.00  0.00     0.017 A 
HETATM   13  C   UNL     1      31.162  43.145  55.912  1.00  0.00     0.043 A 
HETATM   14  C   UNL     1      31.642  43.533  57.156  1.00  0.00     0.116 A 
HETATM   15  F   UNL     1      32.634  42.837  57.728  1.00  0.00    -0.206 F 
HETATM   16  C   UNL     1      31.110  44.634  57.812  1.00  0.00     0.043 A 
HETATM   17  C   UNL     1      30.075  45.358  57.213  1.00  0.00     0.017 A 
ENDBRANCH   9  11
ENDBRANCH   2   5
BRANCH   1  18
HETATM   18  C   UNL     1      24.635  45.660  51.202  1.00  0.00     0.165 C 
BRANCH  18  19
HETATM   19  C   UNL     1      25.346  45.651  49.815  1.00  0.00     0.099 C 
HETATM   20  C   UNL     1      26.555  44.696  49.831  1.00  0.00     0.053 C 
BRANCH  19  21
HETATM   21  C   UNL     1      25.706  47.101  49.430  1.00  0.00    -0.001 A 
HETATM   22  C   UNL     1      24.746  48.093  49.136  1.00  0.00     0.043 A 
HETATM   23 CL   UNL     1      23.039  47.792  49.160  1.00  0.00    -0.084 Cl
HETATM   24  C   UNL     1      25.126  49.406  48.818  1.00  0.00     0.024 A 
HETATM   25  C   UNL     1      26.467  49.769  48.799  1.00  0.00     0.002 A 
HETATM   26  C   UNL     1      27.434  48.821  49.103  1.00  0.00     0.001 A 
HETATM   27  C   UNL     1      27.059  47.511  49.418  1.00  0.00     0.012 A 
ENDBRANCH  19  21
BRANCH  19  28
HETATM   28  O   UNL     1      24.469  45.066  48.835  1.00  0.00    -0.384 OA
HETATM   29  H   UNL     1      23.614  45.527  48.882  1.00  0.00     0.211 HD
ENDBRANCH  19  28
ENDBRANCH  18  19
ENDBRANCH   1  18
TORSDOF 6
ENDMDL
MODEL 5
REMARK VINA RESULT:      -9.0      1.720      2.013
REMARK  6 active torsions:
REMARK  status: ('A' for Active; 'I' for Inactive)
REMARK    1  A    between atoms: C_2  and  C_4 
REMARK    2  A    between atoms: C_2  and  C_11 
REMARK    3  A    between atoms: C_2  and  O_3 
REMARK    4  A    between atoms: C_11  and  N_12 
REMARK       I    between atoms: N_12  and  C_13 
REMARK    5  A    between atoms: C_13  and  C_14 
REMARK    6  A    between atoms: C_18  and  C_19 
ROOT
HETATM    1  N   UNL     1      25.743  46.132  51.397  1.00  0.00    -0.352 N 
HETATM    2  C   UNL     1      26.028  46.573  50.126  1.00  0.00     0.272 C 
HETATM    3  O   UNL     1      26.916  46.098  49.424  1.00  0.00    -0.266 OA
HETATM    4  H   UNL     1      25.063  46.687  51.912  1.00  0.00     0.162 HD
ENDROOT
BRANCH   2   5
HETATM    5  C   UNL     1      25.169  47.682  49.684  1.00  0.00     0.146 A 
HETATM    6  N   UNL     1      25.672  48.848  49.231  1.00  0.00    -0.169 NA
HETATM    7  N   UNL     1      24.582  49.581  48.947  1.00  0.00    -0.277 N 
HETATM    8  H   UNL     1      24.722  50.527  48.612  1.00  0.00     0.189 HD
HETATM    9  C   UNL     1      23.388  48.943  49.170  1.00  0.00     0.063 A 
HETATM   10  C   UNL     1      23.752  47.703  49.662  1.00  0.00     0.071 A 
BRANCH   9  11
HETATM   11  C   UNL     1      22.074  49.544  48.934  1.00  0.00    -0.008 A 
HETATM   12  C   UNL     1      21.924  50.929  48.752  1.00  0.00     0.017 A 
HETATM   13  C   UNL     1      20.661  51.485  48.528  1.00  0.00     0.043 A 
HETATM   14  C   UNL     1      19.544  50.660  48.482  1.00  0.00     0.116 A 
HETATM   15  F   UNL     1      18.335  51.196  48.267  1.00  0.00    -0.206 F 
HETATM   16  C   UNL     1      19.666  49.289  48.654  1.00  0.00     0.043 A 
HETATM   17  C   UNL     1      20.929  48.732  48.879  1.00  0.00     0.017 A 
ENDBRANCH   9  11
ENDBRANCH   2   5
BRANCH   1  18
HETATM   18  C   UNL     1      26.524  45.119  52.082  1.00  0.00     0.165 C 
BRANCH  18  19
HETATM   19  C   UNL     1      26.885  45.483  53.555  1.00  0.00     0.099 C 
HETATM   20  C   UNL     1      26.966  47.011  53.733  1.00  0.00     0.053 C 
BRANCH  19  21
HETATM   21  C   UNL     1      28.180  44.742  53.948  1.00  0.00    -0.001 A 
HETATM   22  C   UNL     1      28.874  44.968  55.157  1.00  0.00     0.043 A 
HETATM   23 CL   UNL     1      28.355  46.122  56.342  1.00  0.00    -0.084 Cl
HETATM   24  C   UNL     1      30.033  44.247  55.480  1.00  0.00     0.024 A 
HETATM   25  C   UNL     1      30.524  43.273  54.617  1.00  0.00     0.002 A 
HETATM   26  C   UNL     1      29.852  43.014  53.431  1.00  0.00     0.001 A 
HETATM   27  C   UNL     1      28.698  43.733  53.105  1.00  0.00     0.012 A 
ENDBRANCH  19  21
BRANCH  19  28
HETATM   28  O   UNL     1      25.797  45.102  54.419  1.00  0.00    -0.384 OA
HETATM   29  H   UNL     1      25.331  45.911  54.690  1.00  0.00     0.211 HD
ENDBRANCH  19  28
ENDBRANCH  18  19
ENDBRANCH   1  18
TORSDOF 6
ENDMDL
MODEL 6
REMARK VINA RESULT:      -8.8      1.737      2.297
REMARK  6 active torsions:
REMARK  status: ('A' for Active; 'I' for Inactive)
REMARK    1  A    between atoms: C_2  and  C_4 
REMARK    2  A    between atoms: C_2  and  C_11 
REMARK    3  A    between atoms: C_2  and  O_3 
REMARK    4  A    between atoms: C_11  and  N_12 
REMARK       I    between atoms: N_12  and  C_13 
REMARK    5  A    between atoms: C_13  and  C_14 
REMARK    6  A    between atoms: C_18  and  C_19 
ROOT
HETATM    1  N   UNL     1      26.733  44.248  53.283  1.00  0.00    -0.352 N 
HETATM    2  C   UNL     1      25.825  45.262  53.484  1.00  0.00     0.272 C 
HETATM    3  O   UNL     1      25.576  45.744  54.586  1.00  0.00    -0.266 OA
HETATM    4  H   UNL     1      26.759  43.862  52.342  1.00  0.00     0.162 HD
ENDROOT
BRANCH   2   5
HETATM    5  C   UNL     1      25.167  45.712  52.249  1.00  0.00     0.146 A 
HETATM    6  N   UNL     1      24.507  44.866  51.433  1.00  0.00    -0.169 NA
HETATM    7  N   UNL     1      24.072  45.654  50.435  1.00  0.00    -0.277 N 
HETATM    8  H   UNL     1      23.564  45.218  49.674  1.00  0.00     0.189 HD
HETATM    9  C   UNL     1      24.394  46.981  50.569  1.00  0.00     0.063 A 
HETATM   10  C   UNL     1      25.119  47.037  51.746  1.00  0.00     0.071 A 
BRANCH   9  11
HETATM   11  C   UNL     1      24.028  48.021  49.606  1.00  0.00    -0.008 A 
HETATM   12  C   UNL     1      24.983  48.914  49.092  1.00  0.00     0.017 A 
HETATM   13  C   UNL     1      24.613  49.901  48.174  1.00  0.00     0.043 A 
HETATM   14  C   UNL     1      23.290  49.998  47.763  1.00  0.00     0.116 A 
HETATM   15  F   UNL     1      22.939  50.945  46.883  1.00  0.00    -0.206 F 
HETATM   16  C   UNL     1      22.328  49.125  48.251  1.00  0.00     0.043 A 
HETATM   17  C   UNL     1      22.697  48.138  49.171  1.00  0.00     0.017 A 
ENDBRANCH   9  11
ENDBRANCH   2   5
BRANCH   1  18
HETATM   18  C   UNL     1      27.427  43.575  54.365  1.00  0.00     0.165 C 
BRANCH  18  19
HETATM   19  C   UNL     1      28.925  43.265  54.065  1.00  0.00     0.099 C 
HETATM   20  C   UNL     1      29.112  41.776  53.715  1.00  0.00     0.053 C 
BRANCH  19  21
HETATM   21  C   UNL     1      29.780  43.734  55.260  1.00  0.00    -0.001 A 
HETATM   22  C   UNL     1      29.774  45.056  55.755  1.00  0.00     0.043 A 
HETATM   23 CL   UNL     1      28.807  46.318  55.065  1.00  0.00    -0.084 Cl
HETATM   24  C   UNL     1      30.550  45.425  56.864  1.00  0.00     0.024 A 
HETATM   25  C   UNL     1      31.341  44.487  57.517  1.00  0.00     0.002 A 
HETATM   26  C   UNL     1      31.354  43.175  57.066  1.00  0.00     0.001 A 
HETATM   27  C   UNL     1      30.583  42.804  55.960  1.00  0.00     0.012 A 
ENDBRANCH  19  21
BRANCH  19  28
HETATM   28  O   UNL     1      29.318  43.945  52.858  1.00  0.00    -0.384 OA
HETATM   29  H   UNL     1      30.187  43.601  52.589  1.00  0.00     0.211 HD
ENDBRANCH  19  28
ENDBRANCH  18  19
ENDBRANCH   1  18
TORSDOF 6
ENDMDL
MODEL 7
REMARK VINA RESULT:      -8.7      4.406     10.073
REMARK  6 active torsions:
REMARK  status: ('A' for Active; 'I' for Inactive)
REMARK    1  A    between atoms: C_2  and  C_4 
REMARK    2  A    between atoms: C_2  and  C_11 
REMARK    3  A    between atoms: C_2  and  O_3 
REMARK    4  A    between atoms: C_11  and  N_12 
REMARK       I    between atoms: N_12  and  C_13 
REMARK    5  A    between atoms: C_13  and  C_14 
REMARK    6  A    between atoms: C_18  and  C_19 
ROOT
HETATM    1  N   UNL     1      22.734  48.109  49.693  1.00  0.00    -0.352 N 
HETATM    2  C   UNL     1      24.107  48.177  49.756  1.00  0.00     0.272 C 
HETATM    3  O   UNL     1      24.761  49.123  49.325  1.00  0.00    -0.266 OA
HETATM    4  H   UNL     1      22.326  47.222  49.979  1.00  0.00     0.162 HD
ENDROOT
BRANCH   2   5
HETATM    5  C   UNL     1      24.724  47.000  50.384  1.00  0.00     0.146 A 
HETATM    6  N   UNL     1      24.346  45.741  50.084  1.00  0.00    -0.169 NA
HETATM    7  N   UNL     1      25.128  44.975  50.864  1.00  0.00    -0.277 N 
HETATM    8  H   UNL     1      24.996  43.971  50.827  1.00  0.00     0.189 HD
HETATM    9  C   UNL     1      26.018  45.671  51.644  1.00  0.00     0.063 A 
HETATM   10  C   UNL     1      25.762  46.998  51.350  1.00  0.00     0.071 A 
BRANCH   9  11
HETATM   11  C   UNL     1      26.966  45.049  52.569  1.00  0.00    -0.008 A 
HETATM   12  C   UNL     1      27.119  45.515  53.885  1.00  0.00     0.017 A 
HETATM   13  C   UNL     1      28.031  44.908  54.755  1.00  0.00     0.043 A 
HETATM   14  C   UNL     1      28.789  43.832  54.314  1.00  0.00     0.116 A 
HETATM   15  F   UNL     1      29.661  43.252  55.150  1.00  0.00    -0.206 F 
HETATM   16  C   UNL     1      28.653  43.348  53.021  1.00  0.00     0.043 A 
HETATM   17  C   UNL     1      27.743  43.955  52.151  1.00  0.00     0.017 A 
ENDBRANCH   9  11
ENDBRANCH   2   5
BRANCH   1  18
HETATM   18  C   UNL     1      21.917  49.105  49.025  1.00  0.00     0.165 C 
BRANCH  18  19
HETATM   19  C   UNL     1      20.433  48.674  48.816  1.00  0.00     0.099 C 
HETATM   20  C   UNL     1      20.313  47.697  47.631  1.00  0.00     0.053 C 
BRANCH  19  21
HETATM   21  C   UNL     1      19.563  49.939  48.667  1.00  0.00    -0.001 A 
HETATM   22  C   UNL     1      18.151  49.923  48.675  1.00  0.00     0.043 A 
HETATM   23 CL   UNL     1      17.225  48.468  48.841  1.00  0.00    -0.084 Cl
HETATM   24  C   UNL     1      17.407  51.107  48.565  1.00  0.00     0.024 A 
HETATM   25  C   UNL     1      18.045  52.337  48.458  1.00  0.00     0.002 A 
HETATM   26  C   UNL     1      19.431  52.388  48.467  1.00  0.00     0.001 A 
HETATM   27  C   UNL     1      20.177  51.210  48.575  1.00  0.00     0.012 A 
ENDBRANCH  19  21
BRANCH  19  28
HETATM   28  O   UNL     1      20.003  47.889  49.943  1.00  0.00    -0.384 OA
HETATM   29  H   UNL     1      19.530  47.109  49.604  1.00  0.00     0.211 HD
ENDBRANCH  19  28
ENDBRANCH  18  19
ENDBRANCH   1  18
TORSDOF 6
ENDMDL
MODEL 8
REMARK VINA RESULT:      -8.5      2.035      2.648
REMARK  6 active torsions:
REMARK  status: ('A' for Active; 'I' for Inactive)
REMARK    1  A    between atoms: C_2  and  C_4 
REMARK    2  A    between atoms: C_2  and  C_11 
REMARK    3  A    between atoms: C_2  and  O_3 
REMARK    4  A    between atoms: C_11  and  N_12 
REMARK       I    between atoms: N_12  and  C_13 
REMARK    5  A    between atoms: C_13  and  C_14 
REMARK    6  A    between atoms: C_18  and  C_19 
ROOT
HETATM    1  N   UNL     1      25.603  45.939  50.768  1.00  0.00    -0.352 N 
HETATM    2  C   UNL     1      24.677  45.933  49.750  1.00  0.00     0.272 C 
HETATM    3  O   UNL     1      24.481  44.968  49.016  1.00  0.00    -0.266 OA
HETATM    4  H   UNL     1      25.747  46.837  51.223  1.00  0.00     0.162 HD
ENDROOT
BRANCH   2   5
HETATM    5  C   UNL     1      23.947  47.201  49.614  1.00  0.00     0.146 A 
HETATM    6  N   UNL     1      24.346  48.334  50.225  1.00  0.00    -0.169 NA
HETATM    7  N   UNL     1      23.423  49.240  49.863  1.00  0.00    -0.277 N 
HETATM    8  H   UNL     1      23.507  50.178  50.237  1.00  0.00     0.189 HD
HETATM    9  C   UNL     1      22.449  48.762  49.022  1.00  0.00     0.063 A 
HETATM   10  C   UNL     1      22.770  47.427  48.856  1.00  0.00     0.071 A 
BRANCH   9  11
HETATM   11  C   UNL     1      21.342  49.565  48.499  1.00  0.00    -0.008 A 
HETATM   12  C   UNL     1      21.105  50.872  48.956  1.00  0.00     0.017 A 
HETATM   13  C   UNL     1      20.043  51.624  48.444  1.00  0.00     0.043 A 
HETATM   14  C   UNL     1      19.216  51.074  47.474  1.00  0.00     0.116 A 
HETATM   15  F   UNL     1      18.200  51.797  46.985  1.00  0.00    -0.206 F 
HETATM   16  C   UNL     1      19.432  49.787  47.001  1.00  0.00     0.043 A 
HETATM   17  C   UNL     1      20.494  49.035  47.513  1.00  0.00     0.017 A 
ENDBRANCH   9  11
ENDBRANCH   2   5
BRANCH   1  18
HETATM   18  C   UNL     1      26.512  44.838  51.024  1.00  0.00     0.165 C 
BRANCH  18  19
HETATM   19  C   UNL     1      26.258  44.106  52.377  1.00  0.00     0.099 C 
HETATM   20  C   UNL     1      25.388  44.971  53.308  1.00  0.00     0.053 C 
BRANCH  19  21
HETATM   21  C   UNL     1      27.617  43.708  52.991  1.00  0.00    -0.001 A 
HETATM   22  C   UNL     1      28.458  42.712  52.449  1.00  0.00     0.043 A 
HETATM   23 CL   UNL     1      28.054  41.805  51.028  1.00  0.00    -0.084 Cl
HETATM   24  C   UNL     1      29.698  42.408  53.030  1.00  0.00     0.024 A 
HETATM   25  C   UNL     1      30.140  43.094  54.155  1.00  0.00     0.002 A 
HETATM   26  C   UNL     1      29.344  44.092  54.700  1.00  0.00     0.001 A 
HETATM   27  C   UNL     1      28.107  44.396  54.125  1.00  0.00     0.012 A 
ENDBRANCH  19  21
BRANCH  19  28
HETATM   28  O   UNL     1      25.444  42.942  52.142  1.00  0.00    -0.384 OA
HETATM   29  H   UNL     1      24.792  42.881  52.861  1.00  0.00     0.211 HD
ENDBRANCH  19  28
ENDBRANCH  18  19
ENDBRANCH   1  18
TORSDOF 6
ENDMDL
MODEL 9
REMARK VINA RESULT:      -8.5      4.051      9.895
REMARK  6 active torsions:
REMARK  status: ('A' for Active; 'I' for Inactive)
REMARK    1  A    between atoms: C_2  and  C_4 
REMARK    2  A    between atoms: C_2  and  C_11 
REMARK    3  A    between atoms: C_2  and  O_3 
REMARK    4  A    between atoms: C_11  and  N_12 
REMARK       I    between atoms: N_12  and  C_13 
REMARK    5  A    between atoms: C_13  and  C_14 
REMARK    6  A    between atoms: C_18  and  C_19 
ROOT
HETATM    1  N   UNL     1      23.394  48.080  49.742  1.00  0.00    -0.352 N 
HETATM    2  C   UNL     1      23.907  46.805  49.815  1.00  0.00     0.272 C 
HETATM    3  O   UNL     1      23.586  45.898  49.052  1.00  0.00    -0.266 OA
HETATM    4  H   UNL     1      23.655  48.701  50.504  1.00  0.00     0.162 HD
ENDROOT
BRANCH   2   5
HETATM    5  C   UNL     1      24.874  46.624  50.908  1.00  0.00     0.146 A 
HETATM    6  N   UNL     1      25.106  47.577  51.832  1.00  0.00    -0.169 NA
HETATM    7  N   UNL     1      26.044  47.035  52.627  1.00  0.00    -0.277 N 
HETATM    8  H   UNL     1      26.399  47.596  53.392  1.00  0.00     0.189 HD
HETATM    9  C   UNL     1      26.421  45.761  52.282  1.00  0.00     0.063 A 
HETATM   10  C   UNL     1      25.674  45.479  51.154  1.00  0.00     0.071 A 
BRANCH   9  11
HETATM   11  C   UNL     1      27.425  44.975  53.002  1.00  0.00    -0.008 A 
HETATM   12  C   UNL     1      28.054  43.868  52.407  1.00  0.00     0.017 A 
HETATM   13  C   UNL     1      29.010  43.129  53.110  1.00  0.00     0.043 A 
HETATM   14  C   UNL     1      29.344  43.494  54.408  1.00  0.00     0.116 A 
HETATM   15  F   UNL     1      30.261  42.785  55.079  1.00  0.00    -0.206 F 
HETATM   16  C   UNL     1      28.742  44.586  55.016  1.00  0.00     0.043 A 
HETATM   17  C   UNL     1      27.785  45.325  54.314  1.00  0.00     0.017 A 
ENDBRANCH   9  11
ENDBRANCH   2   5
BRANCH   1  18
HETATM   18  C   UNL     1      22.350  48.465  48.812  1.00  0.00     0.165 C 
BRANCH  18  19
HETATM   19  C   UNL     1      22.423  49.954  48.354  1.00  0.00     0.099 C 
HETATM   20  C   UNL     1      23.537  50.701  49.113  1.00  0.00     0.053 C 
BRANCH  19  21
HETATM   21  C   UNL     1      21.028  50.593  48.512  1.00  0.00    -0.001 A 
HETATM   22  C   UNL     1      20.545  51.125  49.727  1.00  0.00     0.043 A 
HETATM   23 CL   UNL     1      21.463  51.110  51.196  1.00  0.00    -0.084 Cl
HETATM   24  C   UNL     1      19.278  51.723  49.810  1.00  0.00     0.024 A 
HETATM   25  C   UNL     1      18.466  51.819  48.685  1.00  0.00     0.002 A 
HETATM   26  C   UNL     1      18.921  51.323  47.473  1.00  0.00     0.001 A 
HETATM   27  C   UNL     1      20.183  50.725  47.386  1.00  0.00     0.012 A 
ENDBRANCH  19  21
BRANCH  19  28
HETATM   28  O   UNL     1      22.857  50.008  46.983  1.00  0.00    -0.384 OA
HETATM   29  H   UNL     1      23.322  49.177  46.781  1.00  0.00     0.211 HD
ENDBRANCH  19  28
ENDBRANCH  18  19
ENDBRANCH   1  18
TORSDOF 6
ENDMDL
MODEL 10
REMARK VINA RESULT:      -8.5      6.110      9.236
REMARK  6 active torsions:
REMARK  status: ('A' for Active; 'I' for Inactive)
REMARK    1  A    between atoms: C_2  and  C_4 
REMARK    2  A    between atoms: C_2  and  C_11 
REMARK    3  A    between atoms: C_2  and  O_3 
REMARK    4  A    between atoms: C_11  and  N_12 
REMARK       I    between atoms: N_12  and  C_13 
REMARK    5  A    between atoms: C_13  and  C_14 
REMARK    6  A    between atoms: C_18  and  C_19 
ROOT
HETATM    1  N   UNL     1      26.615  42.361  50.875  1.00  0.00    -0.352 N 
HETATM    2  C   UNL     1      27.127  43.636  50.794  1.00  0.00     0.272 C 
HETATM    3  O   UNL     1      27.273  44.244  49.737  1.00  0.00    -0.266 OA
HETATM    4  H   UNL     1      26.657  41.930  51.795  1.00  0.00     0.162 HD
ENDROOT
BRANCH   2   5
HETATM    5  C   UNL     1      27.496  44.204  52.099  1.00  0.00     0.146 A 
HETATM    6  N   UNL     1      26.819  45.226  52.658  1.00  0.00    -0.169 NA
HETATM    7  N   UNL     1      27.467  45.447  53.815  1.00  0.00    -0.277 N 
HETATM    8  H   UNL     1      27.143  46.207  54.402  1.00  0.00     0.189 HD
HETATM    9  C   UNL     1      28.522  44.602  54.052  1.00  0.00     0.063 A 
HETATM   10  C   UNL     1      28.562  43.787  52.935  1.00  0.00     0.071 A 
BRANCH   9  11
HETATM   11  C   UNL     1      29.371  44.656  55.243  1.00  0.00    -0.008 A 
HETATM   12  C   UNL     1      29.180  45.631  56.237  1.00  0.00     0.017 A 
HETATM   13  C   UNL     1      30.001  45.666  57.367  1.00  0.00     0.043 A 
HETATM   14  C   UNL     1      31.014  44.727  57.512  1.00  0.00     0.116 A 
HETATM   15  F   UNL     1      31.799  44.764  58.597  1.00  0.00    -0.206 F 
HETATM   16  C   UNL     1      31.221  43.750  56.548  1.00  0.00     0.043 A 
HETATM   17  C   UNL     1      30.400  43.715  55.417  1.00  0.00     0.017 A 
ENDBRANCH   9  11
ENDBRANCH   2   5
BRANCH   1  18
HETATM   18  C   UNL     1      26.280  41.563  49.711  1.00  0.00     0.165 C 
BRANCH  18  19
HETATM   19  C   UNL     1      27.023  40.194  49.643  1.00  0.00     0.099 C 
HETATM   20  C   UNL     1      28.218  40.175  50.616  1.00  0.00     0.053 C 
BRANCH  19  21
HETATM   21  C   UNL     1      27.412  39.910  48.178  1.00  0.00    -0.001 A 
HETATM   22  C   UNL     1      27.789  38.635  47.702  1.00  0.00     0.043 A 
HETATM   23 CL   UNL     1      27.870  37.233  48.718  1.00  0.00    -0.084 Cl
HETATM   24  C   UNL     1      28.106  38.424  46.351  1.00  0.00     0.024 A 
HETATM   25  C   UNL     1      28.045  39.471  45.438  1.00  0.00     0.002 A 
HETATM   26  C   UNL     1      27.659  40.731  45.872  1.00  0.00     0.001 A 
HETATM   27  C   UNL     1      27.344  40.945  47.217  1.00  0.00     0.012 A 
ENDBRANCH  19  21
BRANCH  19  28
HETATM   28  O   UNL     1      26.161  39.159  50.151  1.00  0.00    -0.384 OA
HETATM   29  H   UNL     1      26.410  38.987  51.076  1.00  0.00     0.211 HD
ENDBRANCH  19  28
ENDBRANCH  18  19
ENDBRANCH   1  18
TORSDOF 6
ENDMDL
