MODEL 1
REMARK VINA RESULT:      -9.3      0.000      0.000
REMARK  3 active torsions:
REMARK  status: ('A' for Active; 'I' for Inactive)
REMARK    1  A    between atoms: C_6  and  N_7 
REMARK       I    between atoms: N_7  and  C_8 
REMARK    2  A    between atoms: C_8  and  C_9 
REMARK    3  A    between atoms: C_9  and  C_10 
ROOT
HETATM    1  N   UNL     1      28.194  42.549  51.582  1.00  0.00    -0.325 N 
HETATM    2  C   UNL     1      28.620  41.905  52.728  1.00  0.00     0.228 C 
HETATM    3  O   UNL     1      28.120  40.897  53.218  1.00  0.00    -0.273 OA
HETATM    4  H   UNL     1      28.939  43.035  51.076  1.00  0.00     0.169 HD
ENDROOT
BRANCH   2   5
HETATM    5  C   UNL     1      29.798  42.582  53.402  1.00  0.00     0.165 C 
BRANCH   5   6
HETATM    6  C   UNL     1      29.437  43.797  54.237  1.00  0.00     0.074 A 
HETATM    7  N   UNL     1      28.489  44.551  53.759  1.00  0.00    -0.175 NA
HETATM    8  N   UNL     1      28.092  45.633  54.473  1.00  0.00    -0.243 N 
HETATM    9  C   UNL     1      28.563  46.003  55.709  1.00  0.00     0.272 A 
HETATM   10  H   UNL     1      27.354  46.205  54.072  1.00  0.00     0.192 HD
HETATM   11  O   UNL     1      28.126  46.976  56.311  1.00  0.00    -0.266 OA
HETATM   12  C   UNL     1      29.632  45.162  56.270  1.00  0.00     0.046 A 
HETATM   13  C   UNL     1      30.102  44.068  55.540  1.00  0.00     0.006 A 
HETATM   14  C   UNL     1      30.169  45.475  57.526  1.00  0.00     0.018 A 
HETATM   15  C   UNL     1      31.141  43.296  56.072  1.00  0.00     0.014 A 
HETATM   16  C   UNL     1      31.678  43.607  57.328  1.00  0.00     0.001 A 
HETATM   17  C   UNL     1      31.191  44.691  58.055  1.00  0.00     0.001 A 
ENDBRANCH   5   6
ENDBRANCH   2   5
BRANCH   1  18
HETATM   18  C   UNL     1      27.069  42.201  50.792  1.00  0.00     0.062 A 
HETATM   19  C   UNL     1      25.835  42.802  51.117  1.00  0.00     0.061 A 
HETATM   20  C   UNL     1      24.674  42.525  50.390  1.00  0.00     0.033 A 
HETATM   21 CL   UNL     1      25.707  43.949  52.412  1.00  0.00    -0.082 Cl
HETATM   22  C   UNL     1      24.711  41.613  49.335  1.00  0.00    -0.060 A 
HETATM   23  C   UNL     1      23.483  41.335  48.520  1.00  0.00     0.048 C 
HETATM   24  C   UNL     1      25.926  40.990  49.025  1.00  0.00     0.016 A 
HETATM   25  C   UNL     1      27.104  41.244  49.761  1.00  0.00    -0.033 A 
HETATM   26  C   UNL     1      28.311  40.416  49.415  1.00  0.00     0.050 C 
ENDBRANCH   1  18
TORSDOF 3
ENDMDL
MODEL 2
REMARK VINA RESULT:      -9.1      1.676      2.134
REMARK  3 active torsions:
REMARK  status: ('A' for Active; 'I' for Inactive)
REMARK    1  A    between atoms: C_6  and  N_7 
REMARK       I    between atoms: N_7  and  C_8 
REMARK    2  A    between atoms: C_8  and  C_9 
REMARK    3  A    between atoms: C_9  and  C_10 
ROOT
HETATM    1  N   UNL     1      28.968  41.619  51.489  1.00  0.00    -0.325 N 
HETATM    2  C   UNL     1      28.802  41.550  52.859  1.00  0.00     0.228 C 
HETATM    3  O   UNL     1      27.861  41.025  53.446  1.00  0.00    -0.273 OA
HETATM    4  H   UNL     1      29.946  41.645  51.189  1.00  0.00     0.169 HD
ENDROOT
BRANCH   2   5
HETATM    5  C   UNL     1      29.907  42.235  53.639  1.00  0.00     0.165 C 
BRANCH   5   6
HETATM    6  C   UNL     1      29.508  43.554  54.278  1.00  0.00     0.074 A 
HETATM    7  N   UNL     1      28.598  44.236  53.645  1.00  0.00    -0.175 NA
HETATM    8  N   UNL     1      28.169  45.406  54.180  1.00  0.00    -0.243 N 
HETATM    9  C   UNL     1      28.568  45.940  55.379  1.00  0.00     0.272 A 
HETATM   10  H   UNL     1      27.461  45.919  53.660  1.00  0.00     0.192 HD
HETATM   11  O   UNL     1      28.105  46.987  55.816  1.00  0.00    -0.266 OA
HETATM   12  C   UNL     1      29.594  45.183  56.114  1.00  0.00     0.046 A 
HETATM   13  C   UNL     1      30.096  43.999  55.570  1.00  0.00     0.006 A 
HETATM   14  C   UNL     1      30.058  45.663  57.346  1.00  0.00     0.018 A 
HETATM   15  C   UNL     1      31.095  43.305  56.264  1.00  0.00     0.014 A 
HETATM   16  C   UNL     1      31.558  43.785  57.495  1.00  0.00     0.001 A 
HETATM   17  C   UNL     1      31.038  44.958  58.038  1.00  0.00     0.001 A 
ENDBRANCH   5   6
ENDBRANCH   2   5
BRANCH   1  18
HETATM   18  C   UNL     1      28.060  41.148  50.507  1.00  0.00     0.062 A 
HETATM   19  C   UNL     1      28.186  39.804  50.095  1.00  0.00     0.061 A 
HETATM   20  C   UNL     1      27.331  39.251  49.138  1.00  0.00     0.033 A 
HETATM   21 CL   UNL     1      29.385  38.761  50.790  1.00  0.00    -0.082 Cl
HETATM   22  C   UNL     1      26.345  40.038  48.543  1.00  0.00    -0.060 A 
HETATM   23  C   UNL     1      25.395  39.448  47.544  1.00  0.00     0.048 C 
HETATM   24  C   UNL     1      26.232  41.380  48.925  1.00  0.00     0.016 A 
HETATM   25  C   UNL     1      27.100  41.960  49.876  1.00  0.00    -0.033 A 
HETATM   26  C   UNL     1      26.962  43.441  50.104  1.00  0.00     0.050 C 
ENDBRANCH   1  18
TORSDOF 3
ENDMDL
MODEL 3
REMARK VINA RESULT:      -9.0      3.255      7.812
REMARK  3 active torsions:
REMARK  status: ('A' for Active; 'I' for Inactive)
REMARK    1  A    between atoms: C_6  and  N_7 
REMARK       I    between atoms: N_7  and  C_8 
REMARK    2  A    between atoms: C_8  and  C_9 
REMARK    3  A    between atoms: C_9  and  C_10 
ROOT
HETATM    1  N   UNL     1      27.624  44.127  53.216  1.00  0.00    -0.325 N 
HETATM    2  C   UNL     1      26.274  43.927  53.435  1.00  0.00     0.228 C 
HETATM    3  O   UNL     1      25.732  43.798  54.529  1.00  0.00    -0.273 OA
HETATM    4  H   UNL     1      27.832  44.659  52.366  1.00  0.00     0.169 HD
ENDROOT
BRANCH   2   5
HETATM    5  C   UNL     1      25.458  43.837  52.160  1.00  0.00     0.165 C 
BRANCH   5   6
HETATM    6  C   UNL     1      25.232  45.164  51.457  1.00  0.00     0.074 A 
HETATM    7  N   UNL     1      26.050  46.123  51.784  1.00  0.00    -0.175 NA
HETATM    8  N   UNL     1      25.928  47.324  51.166  1.00  0.00    -0.243 N 
HETATM    9  C   UNL     1      25.039  47.631  50.166  1.00  0.00     0.272 A 
HETATM   10  H   UNL     1      26.577  48.055  51.446  1.00  0.00     0.192 HD
HETATM   11  O   UNL     1      25.014  48.732  49.628  1.00  0.00    -0.266 OA
HETATM   12  C   UNL     1      24.108  46.560  49.778  1.00  0.00     0.046 A 
HETATM   13  C   UNL     1      24.171  45.326  50.428  1.00  0.00     0.006 A 
HETATM   14  C   UNL     1      23.167  46.795  48.768  1.00  0.00     0.018 A 
HETATM   15  C   UNL     1      23.258  44.326  50.071  1.00  0.00     0.014 A 
HETATM   16  C   UNL     1      22.317  44.560  49.061  1.00  0.00     0.001 A 
HETATM   17  C   UNL     1      22.274  45.790  48.407  1.00  0.00     0.001 A 
ENDBRANCH   5   6
ENDBRANCH   2   5
BRANCH   1  18
HETATM   18  C   UNL     1      28.639  44.166  54.204  1.00  0.00     0.062 A 
HETATM   19  C   UNL     1      29.380  42.985  54.422  1.00  0.00     0.061 A 
HETATM   20  C   UNL     1      30.404  42.931  55.371  1.00  0.00     0.033 A 
HETATM   21 CL   UNL     1      29.081  41.552  53.492  1.00  0.00    -0.082 Cl
HETATM   22  C   UNL     1      30.694  44.050  56.151  1.00  0.00    -0.060 A 
HETATM   23  C   UNL     1      31.817  44.020  57.145  1.00  0.00     0.048 C 
HETATM   24  C   UNL     1      29.945  45.217  55.961  1.00  0.00     0.016 A 
HETATM   25  C   UNL     1      28.893  45.283  55.021  1.00  0.00    -0.033 A 
HETATM   26  C   UNL     1      28.079  46.548  55.003  1.00  0.00     0.050 C 
ENDBRANCH   1  18
TORSDOF 3
ENDMDL
MODEL 4
REMARK VINA RESULT:      -8.9      8.829     11.820
REMARK  3 active torsions:
REMARK  status: ('A' for Active; 'I' for Inactive)
REMARK    1  A    between atoms: C_6  and  N_7 
REMARK       I    between atoms: N_7  and  C_8 
REMARK    2  A    between atoms: C_8  and  C_9 
REMARK    3  A    between atoms: C_9  and  C_10 
ROOT
HETATM    1  N   UNL     1      22.276  47.918  49.240  1.00  0.00    -0.325 N 
HETATM    2  C   UNL     1      21.566  47.295  48.231  1.00  0.00     0.228 C 
HETATM    3  O   UNL     1      22.030  46.882  47.172  1.00  0.00    -0.273 OA
HETATM    4  H   UNL     1      21.884  47.773  50.174  1.00  0.00     0.169 HD
ENDROOT
BRANCH   2   5
HETATM    5  C   UNL     1      20.082  47.177  48.516  1.00  0.00     0.165 C 
BRANCH   5   6
HETATM    6  C   UNL     1      19.406  48.477  48.912  1.00  0.00     0.074 A 
HETATM    7  N   UNL     1      19.291  48.687  50.193  1.00  0.00    -0.175 NA
HETATM    8  N   UNL     1      18.731  49.847  50.617  1.00  0.00    -0.243 N 
HETATM    9  C   UNL     1      18.304  50.877  49.816  1.00  0.00     0.272 A 
HETATM   10  H   UNL     1      18.650  49.980  51.621  1.00  0.00     0.192 HD
HETATM   11  O   UNL     1      17.841  51.914  50.277  1.00  0.00    -0.266 OA
HETATM   12  C   UNL     1      18.429  50.663  48.366  1.00  0.00     0.046 A 
HETATM   13  C   UNL     1      18.954  49.460  47.891  1.00  0.00     0.006 A 
HETATM   14  C   UNL     1      18.011  51.666  47.481  1.00  0.00     0.018 A 
HETATM   15  C   UNL     1      19.038  49.256  46.509  1.00  0.00     0.014 A 
HETATM   16  C   UNL     1      18.621  50.259  45.623  1.00  0.00     0.001 A 
HETATM   17  C   UNL     1      18.114  51.463  46.108  1.00  0.00     0.001 A 
ENDBRANCH   5   6
ENDBRANCH   2   5
BRANCH   1  18
HETATM   18  C   UNL     1      23.655  48.245  49.220  1.00  0.00     0.062 A 
HETATM   19  C   UNL     1      24.039  49.401  48.507  1.00  0.00     0.061 A 
HETATM   20  C   UNL     1      25.375  49.804  48.437  1.00  0.00     0.033 A 
HETATM   21 CL   UNL     1      22.863  50.401  47.716  1.00  0.00    -0.082 Cl
HETATM   22  C   UNL     1      26.368  49.044  49.053  1.00  0.00    -0.060 A 
HETATM   23  C   UNL     1      27.801  49.486  49.021  1.00  0.00     0.048 C 
HETATM   24  C   UNL     1      25.999  47.880  49.738  1.00  0.00     0.016 A 
HETATM   25  C   UNL     1      24.657  47.447  49.802  1.00  0.00    -0.033 A 
HETATM   26  C   UNL     1      24.405  46.114  50.453  1.00  0.00     0.050 C 
ENDBRANCH   1  18
TORSDOF 3
ENDMDL
MODEL 5
REMARK VINA RESULT:      -8.8      8.764     11.836
REMARK  3 active torsions:
REMARK  status: ('A' for Active; 'I' for Inactive)
REMARK    1  A    between atoms: C_6  and  N_7 
REMARK       I    between atoms: N_7  and  C_8 
REMARK    2  A    between atoms: C_8  and  C_9 
REMARK    3  A    between atoms: C_9  and  C_10 
ROOT
HETATM    1  N   UNL     1      22.375  47.881  49.214  1.00  0.00    -0.325 N 
HETATM    2  C   UNL     1      21.647  47.292  48.198  1.00  0.00     0.228 C 
HETATM    3  O   UNL     1      22.071  46.991  47.086  1.00  0.00    -0.273 OA
HETATM    4  H   UNL     1      22.049  47.640  50.154  1.00  0.00     0.169 HD
ENDROOT
BRANCH   2   5
HETATM    5  C   UNL     1      20.191  47.057  48.553  1.00  0.00     0.165 C 
BRANCH   5   6
HETATM    6  C   UNL     1      19.423  48.308  48.941  1.00  0.00     0.074 A 
HETATM    7  N   UNL     1      19.245  48.488  50.218  1.00  0.00    -0.175 NA
HETATM    8  N   UNL     1      18.598  49.604  50.637  1.00  0.00    -0.243 N 
HETATM    9  C   UNL     1      18.142  50.621  49.835  1.00  0.00     0.272 A 
HETATM   10  H   UNL     1      18.469  49.714  51.639  1.00  0.00     0.192 HD
HETATM   11  O   UNL     1      17.599  51.620  50.292  1.00  0.00    -0.266 OA
HETATM   12  C   UNL     1      18.337  50.440  48.388  1.00  0.00     0.046 A 
HETATM   13  C   UNL     1      18.954  49.279  47.917  1.00  0.00     0.006 A 
HETATM   14  C   UNL     1      17.896  51.432  47.502  1.00  0.00     0.018 A 
HETATM   15  C   UNL     1      19.105  49.105  46.536  1.00  0.00     0.014 A 
HETATM   16  C   UNL     1      18.664  50.097  45.650  1.00  0.00     0.001 A 
HETATM   17  C   UNL     1      18.066  51.259  46.131  1.00  0.00     0.001 A 
ENDBRANCH   5   6
ENDBRANCH   2   5
BRANCH   1  18
HETATM   18  C   UNL     1      23.729  48.297  49.145  1.00  0.00     0.062 A 
HETATM   19  C   UNL     1      24.693  47.481  49.775  1.00  0.00     0.061 A 
HETATM   20  C   UNL     1      26.052  47.808  49.752  1.00  0.00     0.033 A 
HETATM   21 CL   UNL     1      24.242  46.009  50.573  1.00  0.00    -0.082 Cl
HETATM   22  C   UNL     1      26.479  48.978  49.126  1.00  0.00    -0.060 A 
HETATM   23  C   UNL     1      27.937  49.322  49.059  1.00  0.00     0.048 C 
HETATM   24  C   UNL     1      25.526  49.808  48.523  1.00  0.00     0.016 A 
HETATM   25  C   UNL     1      24.147  49.503  48.553  1.00  0.00    -0.033 A 
HETATM   26  C   UNL     1      23.212  50.537  47.987  1.00  0.00     0.050 C 
ENDBRANCH   1  18
TORSDOF 3
ENDMDL
MODEL 6
REMARK VINA RESULT:      -8.8      2.122      7.904
REMARK  3 active torsions:
REMARK  status: ('A' for Active; 'I' for Inactive)
REMARK    1  A    between atoms: C_6  and  N_7 
REMARK       I    between atoms: N_7  and  C_8 
REMARK    2  A    between atoms: C_8  and  C_9 
REMARK    3  A    between atoms: C_9  and  C_10 
ROOT
HETATM    1  N   UNL     1      27.759  44.514  53.543  1.00  0.00    -0.325 N 
HETATM    2  C   UNL     1      26.419  44.255  53.762  1.00  0.00     0.228 C 
HETATM    3  O   UNL     1      25.927  43.834  54.804  1.00  0.00    -0.273 OA
HETATM    4  H   UNL     1      27.933  45.255  52.859  1.00  0.00     0.169 HD
ENDROOT
BRANCH   2   5
HETATM    5  C   UNL     1      25.546  44.508  52.549  1.00  0.00     0.165 C 
BRANCH   5   6
HETATM    6  C   UNL     1      25.566  43.401  51.510  1.00  0.00     0.074 A 
HETATM    7  N   UNL     1      26.514  42.518  51.643  1.00  0.00    -0.175 NA
HETATM    8  N   UNL     1      26.569  41.482  50.771  1.00  0.00    -0.243 N 
HETATM    9  C   UNL     1      25.674  41.228  49.762  1.00  0.00     0.272 A 
HETATM   10  H   UNL     1      27.323  40.812  50.897  1.00  0.00     0.192 HD
HETATM   11  O   UNL     1      25.768  40.245  49.035  1.00  0.00    -0.266 OA
HETATM   12  C   UNL     1      24.591  42.211  49.596  1.00  0.00     0.046 A 
HETATM   13  C   UNL     1      24.533  43.319  50.444  1.00  0.00     0.006 A 
HETATM   14  C   UNL     1      23.639  42.026  48.585  1.00  0.00     0.018 A 
HETATM   15  C   UNL     1      23.516  44.263  50.254  1.00  0.00     0.014 A 
HETATM   16  C   UNL     1      22.563  44.078  49.244  1.00  0.00     0.001 A 
HETATM   17  C   UNL     1      22.621  42.960  48.415  1.00  0.00     0.001 A 
ENDBRANCH   5   6
ENDBRANCH   2   5
BRANCH   1  18
HETATM   18  C   UNL     1      28.819  44.289  54.458  1.00  0.00     0.062 A 
HETATM   19  C   UNL     1      29.117  45.321  55.373  1.00  0.00     0.061 A 
HETATM   20  C   UNL     1      30.140  45.186  56.316  1.00  0.00     0.033 A 
HETATM   21 CL   UNL     1      28.199  46.792  55.400  1.00  0.00    -0.082 Cl
HETATM   22  C   UNL     1      30.914  44.026  56.347  1.00  0.00    -0.060 A 
HETATM   23  C   UNL     1      31.989  43.851  57.378  1.00  0.00     0.048 C 
HETATM   24  C   UNL     1      30.643  43.010  55.423  1.00  0.00     0.016 A 
HETATM   25  C   UNL     1      29.627  43.138  54.451  1.00  0.00    -0.033 A 
HETATM   26  C   UNL     1      29.521  42.035  53.433  1.00  0.00     0.050 C 
ENDBRANCH   1  18
TORSDOF 3
ENDMDL
MODEL 7
REMARK VINA RESULT:      -8.8      2.672      7.993
REMARK  3 active torsions:
REMARK  status: ('A' for Active; 'I' for Inactive)
REMARK    1  A    between atoms: C_6  and  N_7 
REMARK       I    between atoms: N_7  and  C_8 
REMARK    2  A    between atoms: C_8  and  C_9 
REMARK    3  A    between atoms: C_9  and  C_10 
ROOT
HETATM    1  N   UNL     1      27.444  42.612  52.529  1.00  0.00    -0.325 N 
HETATM    2  C   UNL     1      27.400  42.892  51.176  1.00  0.00     0.228 C 
HETATM    3  O   UNL     1      27.701  43.959  50.650  1.00  0.00    -0.273 OA
HETATM    4  H   UNL     1      27.622  41.627  52.744  1.00  0.00     0.169 HD
ENDROOT
BRANCH   2   5
HETATM    5  C   UNL     1      26.893  41.738  50.333  1.00  0.00     0.165 C 
BRANCH   5   6
HETATM    6  C   UNL     1      27.846  40.561  50.231  1.00  0.00     0.074 A 
HETATM    7  N   UNL     1      28.495  40.262  51.319  1.00  0.00    -0.175 NA
HETATM    8  N   UNL     1      29.336  39.198  51.308  1.00  0.00    -0.243 N 
HETATM    9  C   UNL     1      29.545  38.346  50.252  1.00  0.00     0.272 A 
HETATM   10  H   UNL     1      29.832  38.993  52.171  1.00  0.00     0.192 HD
HETATM   11  O   UNL     1      30.294  37.379  50.330  1.00  0.00    -0.266 OA
HETATM   12  C   UNL     1      28.818  38.662  49.012  1.00  0.00     0.046 A 
HETATM   13  C   UNL     1      27.982  39.780  48.972  1.00  0.00     0.006 A 
HETATM   14  C   UNL     1      28.980  37.842  47.888  1.00  0.00     0.018 A 
HETATM   15  C   UNL     1      27.321  40.088  47.777  1.00  0.00     0.014 A 
HETATM   16  C   UNL     1      27.483  39.268  46.652  1.00  0.00     0.001 A 
HETATM   17  C   UNL     1      28.306  38.146  46.708  1.00  0.00     0.001 A 
ENDBRANCH   5   6
ENDBRANCH   2   5
BRANCH   1  18
HETATM   18  C   UNL     1      27.791  43.517  53.564  1.00  0.00     0.062 A 
HETATM   19  C   UNL     1      29.141  43.553  53.971  1.00  0.00     0.061 A 
HETATM   20  C   UNL     1      29.576  44.418  54.979  1.00  0.00     0.033 A 
HETATM   21 CL   UNL     1      30.336  42.553  53.210  1.00  0.00    -0.082 Cl
HETATM   22  C   UNL     1      28.664  45.249  55.629  1.00  0.00    -0.060 A 
HETATM   23  C   UNL     1      29.122  46.211  56.684  1.00  0.00     0.048 C 
HETATM   24  C   UNL     1      27.317  45.198  55.250  1.00  0.00     0.016 A 
HETATM   25  C   UNL     1      26.857  44.316  54.248  1.00  0.00    -0.033 A 
HETATM   26  C   UNL     1      25.370  44.261  54.024  1.00  0.00     0.050 C 
ENDBRANCH   1  18
TORSDOF 3
ENDMDL
MODEL 8
REMARK VINA RESULT:      -8.8      3.258      7.826
REMARK  3 active torsions:
REMARK  status: ('A' for Active; 'I' for Inactive)
REMARK    1  A    between atoms: C_6  and  N_7 
REMARK       I    between atoms: N_7  and  C_8 
REMARK    2  A    between atoms: C_8  and  C_9 
REMARK    3  A    between atoms: C_9  and  C_10 
ROOT
HETATM    1  N   UNL     1      27.742  44.671  53.348  1.00  0.00    -0.325 N 
HETATM    2  C   UNL     1      26.477  44.117  53.299  1.00  0.00     0.228 C 
HETATM    3  O   UNL     1      25.813  43.747  54.263  1.00  0.00    -0.273 OA
HETATM    4  H   UNL     1      27.942  45.320  52.583  1.00  0.00     0.169 HD
ENDROOT
BRANCH   2   5
HETATM    5  C   UNL     1      25.940  43.954  51.890  1.00  0.00     0.165 C 
BRANCH   5   6
HETATM    6  C   UNL     1      25.489  45.244  51.230  1.00  0.00     0.074 A 
HETATM    7  N   UNL     1      26.227  46.290  51.469  1.00  0.00    -0.175 NA
HETATM    8  N   UNL     1      25.902  47.468  50.881  1.00  0.00    -0.243 N 
HETATM    9  C   UNL     1      24.875  47.670  49.993  1.00  0.00     0.272 A 
HETATM   10  H   UNL     1      26.494  48.267  51.091  1.00  0.00     0.192 HD
HETATM   11  O   UNL     1      24.667  48.759  49.471  1.00  0.00    -0.266 OA
HETATM   12  C   UNL     1      24.031  46.500  49.704  1.00  0.00     0.046 A 
HETATM   13  C   UNL     1      24.304  45.283  50.331  1.00  0.00     0.006 A 
HETATM   14  C   UNL     1      22.959  46.626  48.811  1.00  0.00     0.018 A 
HETATM   15  C   UNL     1      23.474  44.187  50.072  1.00  0.00     0.014 A 
HETATM   16  C   UNL     1      22.402  44.311  49.179  1.00  0.00     0.001 A 
HETATM   17  C   UNL     1      22.148  45.526  48.546  1.00  0.00     0.001 A 
ENDBRANCH   5   6
ENDBRANCH   2   5
BRANCH   1  18
HETATM   18  C   UNL     1      28.531  44.864  54.511  1.00  0.00     0.062 A 
HETATM   19  C   UNL     1      28.217  45.966  55.334  1.00  0.00     0.061 A 
HETATM   20  C   UNL     1      28.935  46.231  56.503  1.00  0.00     0.033 A 
HETATM   21 CL   UNL     1      26.895  47.023  54.955  1.00  0.00    -0.082 Cl
HETATM   22  C   UNL     1      30.008  45.417  56.864  1.00  0.00    -0.060 A 
HETATM   23  C   UNL     1      30.763  45.665  58.136  1.00  0.00     0.048 C 
HETATM   24  C   UNL     1      30.345  44.339  56.037  1.00  0.00     0.016 A 
HETATM   25  C   UNL     1      29.643  44.068  54.842  1.00  0.00    -0.033 A 
HETATM   26  C   UNL     1      30.181  42.963  53.975  1.00  0.00     0.050 C 
ENDBRANCH   1  18
TORSDOF 3
ENDMDL
MODEL 9
REMARK VINA RESULT:      -8.8      2.649      7.526
REMARK  3 active torsions:
REMARK  status: ('A' for Active; 'I' for Inactive)
REMARK    1  A    between atoms: C_6  and  N_7 
REMARK       I    between atoms: N_7  and  C_8 
REMARK    2  A    between atoms: C_8  and  C_9 
REMARK    3  A    between atoms: C_9  and  C_10 
ROOT
HETATM    1  N   UNL     1      27.811  44.879  52.993  1.00  0.00    -0.325 N 
HETATM    2  C   UNL     1      26.496  44.466  52.893  1.00  0.00     0.228 C 
HETATM    3  O   UNL     1      25.919  43.703  53.663  1.00  0.00    -0.273 OA
HETATM    4  H   UNL     1      27.985  45.809  52.601  1.00  0.00     0.169 HD
ENDROOT
BRANCH   2   5
HETATM    5  C   UNL     1      25.775  45.021  51.681  1.00  0.00     0.165 C 
BRANCH   5   6
HETATM    6  C   UNL     1      24.926  44.011  50.930  1.00  0.00     0.074 A 
HETATM    7  N   UNL     1      23.638  44.182  51.014  1.00  0.00    -0.175 NA
HETATM    8  N   UNL     1      22.821  43.337  50.337  1.00  0.00    -0.243 N 
HETATM    9  C   UNL     1      23.221  42.320  49.506  1.00  0.00     0.272 A 
HETATM   10  H   UNL     1      21.821  43.492  50.427  1.00  0.00     0.192 HD
HETATM   11  O   UNL     1      22.421  41.621  48.897  1.00  0.00    -0.266 OA
HETATM   12  C   UNL     1      24.674  42.113  49.392  1.00  0.00     0.046 A 
HETATM   13  C   UNL     1      25.544  42.931  50.115  1.00  0.00     0.006 A 
HETATM   14  C   UNL     1      25.163  41.092  48.567  1.00  0.00     0.018 A 
HETATM   15  C   UNL     1      26.922  42.702  50.023  1.00  0.00     0.014 A 
HETATM   16  C   UNL     1      27.412  41.682  49.197  1.00  0.00     0.001 A 
HETATM   17  C   UNL     1      26.535  40.882  48.467  1.00  0.00     0.001 A 
ENDBRANCH   5   6
ENDBRANCH   2   5
BRANCH   1  18
HETATM   18  C   UNL     1      28.753  44.459  53.966  1.00  0.00     0.062 A 
HETATM   19  C   UNL     1      28.994  45.324  55.054  1.00  0.00     0.061 A 
HETATM   20  C   UNL     1      29.900  44.989  56.064  1.00  0.00     0.033 A 
HETATM   21 CL   UNL     1      28.143  46.827  55.213  1.00  0.00    -0.082 Cl
HETATM   22  C   UNL     1      30.614  43.794  55.996  1.00  0.00    -0.060 A 
HETATM   23  C   UNL     1      31.560  43.403  57.092  1.00  0.00     0.048 C 
HETATM   24  C   UNL     1      30.402  42.944  54.904  1.00  0.00     0.016 A 
HETATM   25  C   UNL     1      29.505  43.274  53.864  1.00  0.00    -0.033 A 
HETATM   26  C   UNL     1      29.464  42.343  52.684  1.00  0.00     0.050 C 
ENDBRANCH   1  18
TORSDOF 3
ENDMDL
MODEL 10
REMARK VINA RESULT:      -8.7      9.269     12.041
REMARK  3 active torsions:
REMARK  status: ('A' for Active; 'I' for Inactive)
REMARK    1  A    between atoms: C_6  and  N_7 
REMARK       I    between atoms: N_7  and  C_8 
REMARK    2  A    between atoms: C_8  and  C_9 
REMARK    3  A    between atoms: C_9  and  C_10 
ROOT
HETATM    1  N   UNL     1      22.449  48.106  49.264  1.00  0.00    -0.325 N 
HETATM    2  C   UNL     1      21.726  47.468  48.275  1.00  0.00     0.228 C 
HETATM    3  O   UNL     1      22.188  46.950  47.262  1.00  0.00    -0.273 OA
HETATM    4  H   UNL     1      22.020  48.054  50.192  1.00  0.00     0.169 HD
ENDROOT
BRANCH   2   5
HETATM    5  C   UNL     1      20.229  47.476  48.516  1.00  0.00     0.165 C 
BRANCH   5   6
HETATM    6  C   UNL     1      19.441  48.380  47.586  1.00  0.00     0.074 A 
HETATM    7  N   UNL     1      18.901  47.798  46.554  1.00  0.00    -0.175 NA
HETATM    8  N   UNL     1      18.152  48.541  45.702  1.00  0.00    -0.243 N 
HETATM    9  C   UNL     1      17.852  49.874  45.843  1.00  0.00     0.272 A 
HETATM   10  H   UNL     1      17.748  48.060  44.904  1.00  0.00     0.192 HD
HETATM   11  O   UNL     1      17.135  50.470  45.048  1.00  0.00    -0.266 OA
HETATM   12  C   UNL     1      18.449  50.551  47.005  1.00  0.00     0.046 A 
HETATM   13  C   UNL     1      19.267  49.829  47.876  1.00  0.00     0.006 A 
HETATM   14  C   UNL     1      18.194  51.912  47.217  1.00  0.00     0.018 A 
HETATM   15  C   UNL     1      19.854  50.493  48.960  1.00  0.00     0.014 A 
HETATM   16  C   UNL     1      19.599  51.854  49.173  1.00  0.00     0.001 A 
HETATM   17  C   UNL     1      18.768  52.561  48.307  1.00  0.00     0.001 A 
ENDBRANCH   5   6
ENDBRANCH   2   5
BRANCH   1  18
HETATM   18  C   UNL     1      23.849  48.332  49.269  1.00  0.00     0.062 A 
HETATM   19  C   UNL     1      24.327  49.464  48.576  1.00  0.00     0.061 A 
HETATM   20  C   UNL     1      25.690  49.770  48.532  1.00  0.00     0.033 A 
HETATM   21 CL   UNL     1      23.240  50.557  47.780  1.00  0.00    -0.082 Cl
HETATM   22  C   UNL     1      26.616  48.932  49.154  1.00  0.00    -0.060 A 
HETATM   23  C   UNL     1      28.077  49.268  49.149  1.00  0.00     0.048 C 
HETATM   24  C   UNL     1      26.151  47.791  49.818  1.00  0.00     0.016 A 
HETATM   25  C   UNL     1      24.780  47.455  49.856  1.00  0.00    -0.033 A 
HETATM   26  C   UNL     1      24.421  46.138  50.487  1.00  0.00     0.050 C 
ENDBRANCH   1  18
TORSDOF 3
ENDMDL
