MODEL 1
REMARK VINA RESULT:      -9.7      0.000      0.000
REMARK  3 active torsions:
REMARK  status: ('A' for Active; 'I' for Inactive)
REMARK    1  A    between atoms: C_10  and  N_11 
REMARK       I    between atoms: N_11  and  C_12 
REMARK    2  A    between atoms: C_12  and  C_13 
REMARK    3  A    between atoms: C_18  and  N_19 
ROOT
HETATM    1  N   UNL     1      26.661  45.251  52.476  1.00  0.00    -0.323 N 
HETATM    2  C   UNL     1      25.334  44.877  52.441  1.00  0.00     0.258 C 
HETATM    3  O   UNL     1      24.647  44.486  53.377  1.00  0.00    -0.267 OA
HETATM    4  H   UNL     1      27.074  45.555  51.602  1.00  0.00     0.169 HD
ENDROOT
BRANCH   2   5
HETATM    5  C   UNL     1      24.660  45.081  51.130  1.00  0.00     0.056 A 
HETATM    6  C   UNL     1      24.284  44.047  50.271  1.00  0.00     0.050 A 
HETATM    7 CL   UNL     1      24.468  42.376  50.659  1.00  0.00    -0.083 Cl
HETATM    8  C   UNL     1      23.717  44.363  49.037  1.00  0.00     0.027 A 
HETATM    9  C   UNL     1      23.532  45.699  48.658  1.00  0.00     0.031 A 
HETATM   10  C   UNL     1      23.894  46.752  49.505  1.00  0.00     0.038 A 
HETATM   11  C   UNL     1      24.441  46.420  50.753  1.00  0.00     0.048 A 
BRANCH  10  12
HETATM   12  N   UNL     1      23.737  48.112  49.123  1.00  0.00    -0.318 N 
HETATM   13  C   UNL     1      24.771  49.033  48.887  1.00  0.00     0.224 C 
HETATM   14  O   UNL     1      25.980  48.858  48.902  1.00  0.00    -0.273 OA
HETATM   15  C   UNL     1      24.142  50.392  48.687  1.00  0.00     0.105 C 
HETATM   16  C   UNL     1      22.702  50.061  48.348  1.00  0.00     0.029 C 
HETATM   17  C   UNL     1      22.451  48.773  49.102  1.00  0.00     0.133 C 
ENDBRANCH  10  12
ENDBRANCH   2   5
BRANCH   1  18
HETATM   18  C   UNL     1      27.518  45.301  53.596  1.00  0.00     0.035 A 
HETATM   19  C   UNL     1      27.537  46.348  54.517  1.00  0.00     0.032 A 
HETATM   20  C   UNL     1      28.438  46.363  55.591  1.00  0.00     0.033 A 
HETATM   21  C   UNL     1      29.329  45.292  55.707  1.00  0.00     0.042 A 
HETATM   22  N   UNL     1      30.319  45.050  56.633  1.00  0.00    -0.359 N 
HETATM   23  C   UNL     1      29.333  44.224  54.815  1.00  0.00    -0.005 A 
HETATM   24  C   UNL     1      30.964  43.871  56.349  1.00  0.00     0.006 A 
HETATM   25  H   UNL     1      30.541  45.667  57.401  1.00  0.00     0.166 HD
HETATM   26  C   UNL     1      32.096  43.370  57.166  1.00  0.00     0.068 C 
HETATM   27  C   UNL     1      30.360  43.333  55.231  1.00  0.00     0.038 A 
HETATM   28  C   UNL     1      28.409  44.226  53.751  1.00  0.00     0.043 A 
ENDBRANCH   1  18
TORSDOF 3
ENDMDL
MODEL 2
REMARK VINA RESULT:      -9.5      1.562      1.902
REMARK  3 active torsions:
REMARK  status: ('A' for Active; 'I' for Inactive)
REMARK    1  A    between atoms: C_10  and  N_11 
REMARK       I    between atoms: N_11  and  C_12 
REMARK    2  A    between atoms: C_12  and  C_13 
REMARK    3  A    between atoms: C_18  and  N_19 
ROOT
HETATM    1  N   UNL     1      25.774  46.214  52.382  1.00  0.00    -0.323 N 
HETATM    2  C   UNL     1      25.818  46.929  51.204  1.00  0.00     0.258 C 
HETATM    3  O   UNL     1      26.701  47.693  50.831  1.00  0.00    -0.267 OA
HETATM    4  H   UNL     1      24.964  45.622  52.527  1.00  0.00     0.169 HD
ENDROOT
BRANCH   2   5
HETATM    5  C   UNL     1      24.709  46.644  50.255  1.00  0.00     0.056 A 
HETATM    6  C   UNL     1      24.480  45.400  49.665  1.00  0.00     0.050 A 
HETATM    7 CL   UNL     1      25.405  43.990  50.032  1.00  0.00    -0.083 Cl
HETATM    8  C   UNL     1      23.447  45.268  48.738  1.00  0.00     0.027 A 
HETATM    9  C   UNL     1      22.650  46.369  48.397  1.00  0.00     0.031 A 
HETATM   10  C   UNL     1      22.855  47.624  48.980  1.00  0.00     0.038 A 
HETATM   11  C   UNL     1      23.883  47.737  49.928  1.00  0.00     0.048 A 
BRANCH  10  12
HETATM   12  N   UNL     1      22.073  48.756  48.623  1.00  0.00    -0.318 N 
HETATM   13  C   UNL     1      22.498  49.847  47.848  1.00  0.00     0.224 C 
HETATM   14  O   UNL     1      23.567  50.027  47.286  1.00  0.00    -0.273 OA
HETATM   15  C   UNL     1      21.403  50.888  47.879  1.00  0.00     0.105 C 
HETATM   16  C   UNL     1      20.184  50.098  48.307  1.00  0.00     0.029 C 
HETATM   17  C   UNL     1      20.763  49.006  49.181  1.00  0.00     0.133 C 
ENDBRANCH  10  12
ENDBRANCH   2   5
BRANCH   1  18
HETATM   18  C   UNL     1      26.744  46.168  53.406  1.00  0.00     0.035 A 
HETATM   19  C   UNL     1      26.987  47.214  54.297  1.00  0.00     0.032 A 
HETATM   20  C   UNL     1      27.991  47.126  55.272  1.00  0.00     0.033 A 
HETATM   21  C   UNL     1      28.751  45.955  55.320  1.00  0.00     0.042 A 
HETATM   22  N   UNL     1      29.796  45.601  56.143  1.00  0.00    -0.359 N 
HETATM   23  C   UNL     1      28.532  44.886  54.455  1.00  0.00    -0.005 A 
HETATM   24  C   UNL     1      30.260  44.349  55.821  1.00  0.00     0.006 A 
HETATM   25  H   UNL     1      30.172  46.193  56.871  1.00  0.00     0.166 HD
HETATM   26  C   UNL     1      31.402  43.719  56.527  1.00  0.00     0.068 C 
HETATM   27  C   UNL     1      29.480  43.879  54.783  1.00  0.00     0.038 A 
HETATM   28  C   UNL     1      27.508  44.992  53.493  1.00  0.00     0.043 A 
ENDBRANCH   1  18
TORSDOF 3
ENDMDL
MODEL 3
REMARK VINA RESULT:      -9.2      1.663      2.257
REMARK  3 active torsions:
REMARK  status: ('A' for Active; 'I' for Inactive)
REMARK    1  A    between atoms: C_10  and  N_11 
REMARK       I    between atoms: N_11  and  C_12 
REMARK    2  A    between atoms: C_12  and  C_13 
REMARK    3  A    between atoms: C_18  and  N_19 
ROOT
HETATM    1  N   UNL     1      26.224  44.807  51.307  1.00  0.00    -0.323 N 
HETATM    2  C   UNL     1      26.238  45.459  50.092  1.00  0.00     0.258 C 
HETATM    3  O   UNL     1      27.218  45.737  49.410  1.00  0.00    -0.267 OA
HETATM    4  H   UNL     1      25.317  44.655  51.733  1.00  0.00     0.169 HD
ENDROOT
BRANCH   2   5
HETATM    5  C   UNL     1      24.897  45.753  49.522  1.00  0.00     0.056 A 
HETATM    6  C   UNL     1      24.035  44.787  49.000  1.00  0.00     0.050 A 
HETATM    7 CL   UNL     1      24.376  43.095  49.031  1.00  0.00    -0.083 Cl
HETATM    8  C   UNL     1      22.827  45.189  48.431  1.00  0.00     0.027 A 
HETATM    9  C   UNL     1      22.482  46.546  48.378  1.00  0.00     0.031 A 
HETATM   10  C   UNL     1      23.326  47.533  48.901  1.00  0.00     0.038 A 
HETATM   11  C   UNL     1      24.526  47.112  49.490  1.00  0.00     0.048 A 
BRANCH  10  12
HETATM   12  N   UNL     1      23.001  48.915  48.828  1.00  0.00    -0.318 N 
HETATM   13  C   UNL     1      23.740  49.908  48.166  1.00  0.00     0.224 C 
HETATM   14  O   UNL     1      24.749  49.796  47.487  1.00  0.00    -0.273 OA
HETATM   15  C   UNL     1      23.125  51.245  48.506  1.00  0.00     0.105 C 
HETATM   16  C   UNL     1      21.737  50.876  48.988  1.00  0.00     0.029 C 
HETATM   17  C   UNL     1      21.931  49.506  49.602  1.00  0.00     0.133 C 
ENDBRANCH  10  12
ENDBRANCH   2   5
BRANCH   1  18
HETATM   18  C   UNL     1      27.320  44.282  52.023  1.00  0.00     0.035 A 
HETATM   19  C   UNL     1      28.050  43.163  51.623  1.00  0.00     0.032 A 
HETATM   20  C   UNL     1      29.109  42.664  52.396  1.00  0.00     0.033 A 
HETATM   21  C   UNL     1      29.407  43.323  53.592  1.00  0.00     0.042 A 
HETATM   22  N   UNL     1      30.362  43.052  54.546  1.00  0.00    -0.359 N 
HETATM   23  C   UNL     1      28.708  44.448  54.020  1.00  0.00    -0.005 A 
HETATM   24  C   UNL     1      30.284  43.959  55.575  1.00  0.00     0.006 A 
HETATM   25  H   UNL     1      31.015  42.283  54.494  1.00  0.00     0.166 HD
HETATM   26  C   UNL     1      31.176  43.896  56.758  1.00  0.00     0.068 C 
HETATM   27  C   UNL     1      29.272  44.845  55.263  1.00  0.00     0.038 A 
HETATM   28  C   UNL     1      27.658  44.939  53.219  1.00  0.00     0.043 A 
ENDBRANCH   1  18
TORSDOF 3
ENDMDL
MODEL 4
REMARK VINA RESULT:      -9.2      2.284      8.408
REMARK  3 active torsions:
REMARK  status: ('A' for Active; 'I' for Inactive)
REMARK    1  A    between atoms: C_10  and  N_11 
REMARK       I    between atoms: N_11  and  C_12 
REMARK    2  A    between atoms: C_12  and  C_13 
REMARK    3  A    between atoms: C_18  and  N_19 
ROOT
HETATM    1  N   UNL     1      26.275  45.810  51.107  1.00  0.00    -0.323 N 
HETATM    2  C   UNL     1      26.940  44.681  50.676  1.00  0.00     0.258 C 
HETATM    3  O   UNL     1      27.233  44.386  49.522  1.00  0.00    -0.267 OA
HETATM    4  H   UNL     1      26.119  45.894  52.104  1.00  0.00     0.169 HD
ENDROOT
BRANCH   2   5
HETATM    5  C   UNL     1      27.436  43.792  51.760  1.00  0.00     0.056 A 
HETATM    6  C   UNL     1      27.233  42.412  51.800  1.00  0.00     0.050 A 
HETATM    7 CL   UNL     1      26.454  41.530  50.538  1.00  0.00    -0.083 Cl
HETATM    8  C   UNL     1      27.688  41.690  52.903  1.00  0.00     0.027 A 
HETATM    9  C   UNL     1      28.335  42.339  53.962  1.00  0.00     0.031 A 
HETATM   10  C   UNL     1      28.557  43.721  53.942  1.00  0.00     0.038 A 
HETATM   11  C   UNL     1      28.115  44.431  52.817  1.00  0.00     0.048 A 
BRANCH  10  12
HETATM   12  N   UNL     1      29.188  44.397  55.022  1.00  0.00    -0.318 N 
HETATM   13  C   UNL     1      30.396  44.032  55.637  1.00  0.00     0.224 C 
HETATM   14  O   UNL     1      31.165  43.127  55.354  1.00  0.00    -0.273 OA
HETATM   15  C   UNL     1      30.584  44.920  56.845  1.00  0.00     0.105 C 
HETATM   16  C   UNL     1      29.665  46.091  56.563  1.00  0.00     0.029 C 
HETATM   17  C   UNL     1      28.548  45.471  55.749  1.00  0.00     0.133 C 
ENDBRANCH  10  12
ENDBRANCH   2   5
BRANCH   1  18
HETATM   18  C   UNL     1      25.812  46.893  50.331  1.00  0.00     0.035 A 
HETATM   19  C   UNL     1      26.642  47.870  49.782  1.00  0.00     0.032 A 
HETATM   20  C   UNL     1      26.122  48.947  49.050  1.00  0.00     0.033 A 
HETATM   21  C   UNL     1      24.735  49.016  48.892  1.00  0.00     0.042 A 
HETATM   22  N   UNL     1      23.955  49.951  48.250  1.00  0.00    -0.359 N 
HETATM   23  C   UNL     1      23.875  48.055  49.415  1.00  0.00    -0.005 A 
HETATM   24  C   UNL     1      22.625  49.625  48.361  1.00  0.00     0.006 A 
HETATM   25  H   UNL     1      24.319  50.767  47.778  1.00  0.00     0.166 HD
HETATM   26  C   UNL     1      21.550  50.470  47.786  1.00  0.00     0.068 C 
HETATM   27  C   UNL     1      22.552  48.443  49.070  1.00  0.00     0.038 A 
HETATM   28  C   UNL     1      24.423  46.975  50.136  1.00  0.00     0.043 A 
ENDBRANCH   1  18
TORSDOF 3
ENDMDL
MODEL 5
REMARK VINA RESULT:      -9.2      2.122      8.786
REMARK  3 active torsions:
REMARK  status: ('A' for Active; 'I' for Inactive)
REMARK    1  A    between atoms: C_10  and  N_11 
REMARK       I    between atoms: N_11  and  C_12 
REMARK    2  A    between atoms: C_12  and  C_13 
REMARK    3  A    between atoms: C_18  and  N_19 
ROOT
HETATM    1  N   UNL     1      26.713  45.349  51.536  1.00  0.00    -0.323 N 
HETATM    2  C   UNL     1      26.665  44.798  52.801  1.00  0.00     0.258 C 
HETATM    3  O   UNL     1      25.682  44.688  53.525  1.00  0.00    -0.267 OA
HETATM    4  H   UNL     1      27.616  45.355  51.076  1.00  0.00     0.169 HD
ENDROOT
BRANCH   2   5
HETATM    5  C   UNL     1      27.937  44.187  53.268  1.00  0.00     0.056 A 
HETATM    6  C   UNL     1      28.580  43.124  52.630  1.00  0.00     0.050 A 
HETATM    7 CL   UNL     1      28.027  42.432  51.149  1.00  0.00    -0.083 Cl
HETATM    8  C   UNL     1      29.736  42.590  53.198  1.00  0.00     0.027 A 
HETATM    9  C   UNL     1      30.245  43.107  54.396  1.00  0.00     0.031 A 
HETATM   10  C   UNL     1      29.624  44.176  55.051  1.00  0.00     0.038 A 
HETATM   11  C   UNL     1      28.476  44.719  54.456  1.00  0.00     0.048 A 
BRANCH  10  12
HETATM   12  N   UNL     1      30.114  44.692  56.281  1.00  0.00    -0.318 N 
HETATM   13  C   UNL     1      31.115  44.119  57.082  1.00  0.00     0.224 C 
HETATM   14  O   UNL     1      31.795  43.125  56.876  1.00  0.00    -0.273 OA
HETATM   15  C   UNL     1      31.180  44.903  58.371  1.00  0.00     0.105 C 
HETATM   16  C   UNL     1      30.502  46.211  58.017  1.00  0.00     0.029 C 
HETATM   17  C   UNL     1      29.495  45.809  56.960  1.00  0.00     0.133 C 
ENDBRANCH  10  12
ENDBRANCH   2   5
BRANCH   1  18
HETATM   18  C   UNL     1      25.647  45.875  50.778  1.00  0.00     0.035 A 
HETATM   19  C   UNL     1      24.561  45.122  50.332  1.00  0.00     0.032 A 
HETATM   20  C   UNL     1      23.547  45.692  49.548  1.00  0.00     0.033 A 
HETATM   21  C   UNL     1      23.663  47.045  49.219  1.00  0.00     0.042 A 
HETATM   22  N   UNL     1      22.844  47.853  48.462  1.00  0.00    -0.359 N 
HETATM   23  C   UNL     1      24.725  47.831  49.654  1.00  0.00    -0.005 A 
HETATM   24  C   UNL     1      23.359  49.124  48.388  1.00  0.00     0.006 A 
HETATM   25  H   UNL     1      21.993  47.541  48.016  1.00  0.00     0.166 HD
HETATM   26  C   UNL     1      22.700  50.204  47.614  1.00  0.00     0.068 C 
HETATM   27  C   UNL     1      24.522  49.138  49.132  1.00  0.00     0.038 A 
HETATM   28  C   UNL     1      25.725  47.239  50.452  1.00  0.00     0.043 A 
ENDBRANCH   1  18
TORSDOF 3
ENDMDL
MODEL 6
REMARK VINA RESULT:      -9.1      2.832      4.356
REMARK  3 active torsions:
REMARK  status: ('A' for Active; 'I' for Inactive)
REMARK    1  A    between atoms: C_10  and  N_11 
REMARK       I    between atoms: N_11  and  C_12 
REMARK    2  A    between atoms: C_12  and  C_13 
REMARK    3  A    between atoms: C_18  and  N_19 
ROOT
HETATM    1  N   UNL     1      25.186  47.545  51.335  1.00  0.00    -0.323 N 
HETATM    2  C   UNL     1      25.426  47.628  49.979  1.00  0.00     0.258 C 
HETATM    3  O   UNL     1      26.306  47.056  49.345  1.00  0.00    -0.267 OA
HETATM    4  H   UNL     1      24.408  48.086  51.695  1.00  0.00     0.169 HD
ENDROOT
BRANCH   2   5
HETATM    5  C   UNL     1      24.430  48.422  49.213  1.00  0.00     0.056 A 
HETATM    6  C   UNL     1      24.748  49.519  48.411  1.00  0.00     0.050 A 
HETATM    7 CL   UNL     1      26.366  50.048  48.125  1.00  0.00    -0.083 Cl
HETATM    8  C   UNL     1      23.720  50.228  47.791  1.00  0.00     0.027 A 
HETATM    9  C   UNL     1      22.383  49.851  47.973  1.00  0.00     0.031 A 
HETATM   10  C   UNL     1      22.039  48.751  48.766  1.00  0.00     0.038 A 
HETATM   11  C   UNL     1      23.084  48.033  49.365  1.00  0.00     0.048 A 
BRANCH  10  12
HETATM   12  N   UNL     1      20.686  48.374  48.983  1.00  0.00    -0.318 N 
HETATM   13  C   UNL     1      19.741  49.074  49.750  1.00  0.00     0.224 C 
HETATM   14  O   UNL     1      19.855  50.144  50.327  1.00  0.00    -0.273 OA
HETATM   15  C   UNL     1      18.501  48.217  49.849  1.00  0.00     0.105 C 
HETATM   16  C   UNL     1      18.657  47.245  48.697  1.00  0.00     0.029 C 
HETATM   17  C   UNL     1      20.158  47.093  48.568  1.00  0.00     0.133 C 
ENDBRANCH  10  12
ENDBRANCH   2   5
BRANCH   1  18
HETATM   18  C   UNL     1      25.869  46.765  52.291  1.00  0.00     0.035 A 
HETATM   19  C   UNL     1      25.841  45.371  52.324  1.00  0.00     0.032 A 
HETATM   20  C   UNL     1      26.510  44.648  53.322  1.00  0.00     0.033 A 
HETATM   21  C   UNL     1      27.204  45.372  54.295  1.00  0.00     0.042 A 
HETATM   22  N   UNL     1      27.924  44.939  55.386  1.00  0.00    -0.359 N 
HETATM   23  C   UNL     1      27.264  46.762  54.290  1.00  0.00    -0.005 A 
HETATM   24  C   UNL     1      28.427  46.010  56.084  1.00  0.00     0.006 A 
HETATM   25  H   UNL     1      28.047  43.968  55.637  1.00  0.00     0.166 HD
HETATM   26  C   UNL     1      29.224  45.844  57.324  1.00  0.00     0.068 C 
HETATM   27  C   UNL     1      28.041  47.153  55.415  1.00  0.00     0.038 A 
HETATM   28  C   UNL     1      26.595  47.466  53.269  1.00  0.00     0.043 A 
ENDBRANCH   1  18
TORSDOF 3
ENDMDL
MODEL 7
REMARK VINA RESULT:      -9.1      3.853      8.299
REMARK  3 active torsions:
REMARK  status: ('A' for Active; 'I' for Inactive)
REMARK    1  A    between atoms: C_10  and  N_11 
REMARK       I    between atoms: N_11  and  C_12 
REMARK    2  A    between atoms: C_12  and  C_13 
REMARK    3  A    between atoms: C_18  and  N_19 
ROOT
HETATM    1  N   UNL     1      26.986  43.584  52.035  1.00  0.00    -0.323 N 
HETATM    2  C   UNL     1      26.240  44.193  53.022  1.00  0.00     0.258 C 
HETATM    3  O   UNL     1      25.073  43.964  53.319  1.00  0.00    -0.267 OA
HETATM    4  H   UNL     1      27.944  43.896  51.929  1.00  0.00     0.169 HD
ENDROOT
BRANCH   2   5
HETATM    5  C   UNL     1      26.991  45.155  53.872  1.00  0.00     0.056 A 
HETATM    6  C   UNL     1      26.783  46.535  53.870  1.00  0.00     0.050 A 
HETATM    7 CL   UNL     1      25.551  47.307  52.940  1.00  0.00    -0.083 Cl
HETATM    8  C   UNL     1      27.593  47.346  54.663  1.00  0.00     0.027 A 
HETATM    9  C   UNL     1      28.609  46.786  55.449  1.00  0.00     0.031 A 
HETATM   10  C   UNL     1      28.833  45.405  55.474  1.00  0.00     0.038 A 
HETATM   11  C   UNL     1      27.995  44.600  54.690  1.00  0.00     0.048 A 
BRANCH  10  12
HETATM   12  N   UNL     1      29.878  44.826  56.246  1.00  0.00    -0.318 N 
HETATM   13  C   UNL     1      30.255  45.200  57.545  1.00  0.00     0.224 C 
HETATM   14  O   UNL     1      29.751  46.029  58.288  1.00  0.00    -0.273 OA
HETATM   15  C   UNL     1      31.517  44.447  57.894  1.00  0.00     0.105 C 
HETATM   16  C   UNL     1      31.520  43.298  56.906  1.00  0.00     0.029 C 
HETATM   17  C   UNL     1      30.817  43.874  55.696  1.00  0.00     0.133 C 
ENDBRANCH  10  12
ENDBRANCH   2   5
BRANCH   1  18
HETATM   18  C   UNL     1      26.593  42.542  51.169  1.00  0.00     0.035 A 
HETATM   19  C   UNL     1      25.406  42.543  50.436  1.00  0.00     0.032 A 
HETATM   20  C   UNL     1      25.049  41.461  49.618  1.00  0.00     0.033 A 
HETATM   21  C   UNL     1      25.921  40.370  49.566  1.00  0.00     0.042 A 
HETATM   22  N   UNL     1      25.825  39.182  48.877  1.00  0.00    -0.359 N 
HETATM   23  C   UNL     1      27.119  40.337  50.274  1.00  0.00    -0.005 A 
HETATM   24  C   UNL     1      26.915  38.387  49.135  1.00  0.00     0.006 A 
HETATM   25  H   UNL     1      25.050  38.934  48.278  1.00  0.00     0.166 HD
HETATM   26  C   UNL     1      27.067  37.034  48.548  1.00  0.00     0.068 C 
HETATM   27  C   UNL     1      27.739  39.089  49.992  1.00  0.00     0.038 A 
HETATM   28  C   UNL     1      27.462  41.442  51.078  1.00  0.00     0.043 A 
ENDBRANCH   1  18
TORSDOF 3
ENDMDL
MODEL 8
REMARK VINA RESULT:      -9.0      3.715      8.730
REMARK  3 active torsions:
REMARK  status: ('A' for Active; 'I' for Inactive)
REMARK    1  A    between atoms: C_10  and  N_11 
REMARK       I    between atoms: N_11  and  C_12 
REMARK    2  A    between atoms: C_12  and  C_13 
REMARK    3  A    between atoms: C_18  and  N_19 
ROOT
HETATM    1  N   UNL     1      26.638  43.813  52.051  1.00  0.00    -0.323 N 
HETATM    2  C   UNL     1      26.064  44.282  53.215  1.00  0.00     0.258 C 
HETATM    3  O   UNL     1      24.986  43.954  53.697  1.00  0.00    -0.267 OA
HETATM    4  H   UNL     1      27.544  44.194  51.803  1.00  0.00     0.169 HD
ENDROOT
BRANCH   2   5
HETATM    5  C   UNL     1      26.917  45.211  54.004  1.00  0.00     0.056 A 
HETATM    6  C   UNL     1      26.785  46.600  53.994  1.00  0.00     0.050 A 
HETATM    7 CL   UNL     1      25.544  47.429  53.127  1.00  0.00    -0.083 Cl
HETATM    8  C   UNL     1      27.685  47.374  54.725  1.00  0.00     0.027 A 
HETATM    9  C   UNL     1      28.714  46.768  55.457  1.00  0.00     0.031 A 
HETATM   10  C   UNL     1      28.863  45.377  55.489  1.00  0.00     0.038 A 
HETATM   11  C   UNL     1      27.937  44.610  54.769  1.00  0.00     0.048 A 
BRANCH  10  12
HETATM   12  N   UNL     1      29.919  44.750  56.206  1.00  0.00    -0.318 N 
HETATM   13  C   UNL     1      30.427  45.147  57.453  1.00  0.00     0.224 C 
HETATM   14  O   UNL     1      30.049  46.044  58.191  1.00  0.00    -0.273 OA
HETATM   15  C   UNL     1      31.652  44.311  57.740  1.00  0.00     0.105 C 
HETATM   16  C   UNL     1      31.488  43.124  56.812  1.00  0.00     0.029 C 
HETATM   17  C   UNL     1      30.736  43.703  55.632  1.00  0.00     0.133 C 
ENDBRANCH  10  12
ENDBRANCH   2   5
BRANCH   1  18
HETATM   18  C   UNL     1      26.137  42.830  51.173  1.00  0.00     0.035 A 
HETATM   19  C   UNL     1      26.752  41.598  50.948  1.00  0.00     0.032 A 
HETATM   20  C   UNL     1      26.227  40.674  50.033  1.00  0.00     0.033 A 
HETATM   21  C   UNL     1      25.066  41.030  49.342  1.00  0.00     0.042 A 
HETATM   22  N   UNL     1      24.348  40.344  48.389  1.00  0.00    -0.359 N 
HETATM   23  C   UNL     1      24.418  42.245  49.547  1.00  0.00    -0.005 A 
HETATM   24  C   UNL     1      23.274  41.089  47.967  1.00  0.00     0.006 A 
HETATM   25  H   UNL     1      24.594  39.427  48.043  1.00  0.00     0.166 HD
HETATM   26  C   UNL     1      22.337  40.610  46.922  1.00  0.00     0.068 C 
HETATM   27  C   UNL     1      23.289  42.269  48.683  1.00  0.00     0.038 A 
HETATM   28  C   UNL     1      24.957  43.151  50.481  1.00  0.00     0.043 A 
ENDBRANCH   1  18
TORSDOF 3
ENDMDL
MODEL 9
REMARK VINA RESULT:      -8.9      2.052      8.301
REMARK  3 active torsions:
REMARK  status: ('A' for Active; 'I' for Inactive)
REMARK    1  A    between atoms: C_10  and  N_11 
REMARK       I    between atoms: N_11  and  C_12 
REMARK    2  A    between atoms: C_12  and  C_13 
REMARK    3  A    between atoms: C_18  and  N_19 
ROOT
HETATM    1  N   UNL     1      25.481  44.329  51.032  1.00  0.00    -0.323 N 
HETATM    2  C   UNL     1      26.654  43.733  50.618  1.00  0.00     0.258 C 
HETATM    3  O   UNL     1      27.186  43.824  49.517  1.00  0.00    -0.267 OA
HETATM    4  H   UNL     1      25.188  44.147  51.985  1.00  0.00     0.169 HD
ENDROOT
BRANCH   2   5
HETATM    5  C   UNL     1      27.386  42.988  51.677  1.00  0.00     0.056 A 
HETATM    6  C   UNL     1      27.415  41.597  51.782  1.00  0.00     0.050 A 
HETATM    7 CL   UNL     1      26.676  40.542  50.634  1.00  0.00    -0.083 Cl
HETATM    8  C   UNL     1      28.083  41.010  52.857  1.00  0.00     0.027 A 
HETATM    9  C   UNL     1      28.712  41.805  53.824  1.00  0.00     0.031 A 
HETATM   10  C   UNL     1      28.703  43.202  53.737  1.00  0.00     0.038 A 
HETATM   11  C   UNL     1      28.049  43.777  52.638  1.00  0.00     0.048 A 
BRANCH  10  12
HETATM   12  N   UNL     1      29.313  44.021  54.726  1.00  0.00    -0.318 N 
HETATM   13  C   UNL     1      28.841  45.262  55.182  1.00  0.00     0.224 C 
HETATM   14  O   UNL     1      27.817  45.856  54.885  1.00  0.00    -0.273 OA
HETATM   15  C   UNL     1      29.895  45.850  56.091  1.00  0.00     0.105 C 
HETATM   16  C   UNL     1      30.732  44.647  56.476  1.00  0.00     0.029 C 
HETATM   17  C   UNL     1      30.626  43.744  55.266  1.00  0.00     0.133 C 
ENDBRANCH  10  12
ENDBRANCH   2   5
BRANCH   1  18
HETATM   18  C   UNL     1      24.647  45.202  50.302  1.00  0.00     0.035 A 
HETATM   19  C   UNL     1      23.496  44.798  49.627  1.00  0.00     0.032 A 
HETATM   20  C   UNL     1      22.725  45.705  48.885  1.00  0.00     0.033 A 
HETATM   21  C   UNL     1      23.154  47.034  48.835  1.00  0.00     0.042 A 
HETATM   22  N   UNL     1      22.618  48.121  48.183  1.00  0.00    -0.359 N 
HETATM   23  C   UNL     1      24.291  47.477  49.503  1.00  0.00    -0.005 A 
HETATM   24  C   UNL     1      23.386  49.239  48.401  1.00  0.00     0.006 A 
HETATM   25  H   UNL     1      21.784  48.088  47.613  1.00  0.00     0.166 HD
HETATM   26  C   UNL     1      23.062  50.554  47.797  1.00  0.00     0.068 C 
HETATM   27  C   UNL     1      24.425  48.866  49.230  1.00  0.00     0.038 A 
HETATM   28  C   UNL     1      25.041  46.550  50.254  1.00  0.00     0.043 A 
ENDBRANCH   1  18
TORSDOF 3
ENDMDL
MODEL 10
REMARK VINA RESULT:      -8.9      3.984     10.201
REMARK  3 active torsions:
REMARK  status: ('A' for Active; 'I' for Inactive)
REMARK    1  A    between atoms: C_10  and  N_11 
REMARK       I    between atoms: N_11  and  C_12 
REMARK    2  A    between atoms: C_12  and  C_13 
REMARK    3  A    between atoms: C_18  and  N_19 
ROOT
HETATM    1  N   UNL     1      21.736  48.950  49.616  1.00  0.00    -0.323 N 
HETATM    2  C   UNL     1      22.594  48.380  48.698  1.00  0.00     0.258 C 
HETATM    3  O   UNL     1      22.317  47.967  47.578  1.00  0.00    -0.267 OA
HETATM    4  H   UNL     1      22.140  49.240  50.499  1.00  0.00     0.169 HD
ENDROOT
BRANCH   2   5
HETATM    5  C   UNL     1      24.027  48.374  49.099  1.00  0.00     0.056 A 
HETATM    6  C   UNL     1      24.972  49.299  48.653  1.00  0.00     0.050 A 
HETATM    7 CL   UNL     1      24.581  50.643  47.642  1.00  0.00    -0.083 Cl
HETATM    8  C   UNL     1      26.302  49.155  49.046  1.00  0.00     0.027 A 
HETATM    9  C   UNL     1      26.689  48.092  49.871  1.00  0.00     0.031 A 
HETATM   10  C   UNL     1      25.760  47.155  50.337  1.00  0.00     0.038 A 
HETATM   11  C   UNL     1      24.422  47.326  49.954  1.00  0.00     0.048 A 
BRANCH  10  12
HETATM   12  N   UNL     1      26.144  46.055  51.153  1.00  0.00    -0.318 N 
HETATM   13  C   UNL     1      26.844  44.914  50.731  1.00  0.00     0.224 C 
HETATM   14  O   UNL     1      27.308  44.654  49.631  1.00  0.00    -0.273 OA
HETATM   15  C   UNL     1      26.870  43.937  51.883  1.00  0.00     0.105 C 
HETATM   16  C   UNL     1      26.572  44.810  53.085  1.00  0.00     0.029 C 
HETATM   17  C   UNL     1      25.689  45.901  52.516  1.00  0.00     0.133 C 
ENDBRANCH  10  12
ENDBRANCH   2   5
BRANCH   1  18
HETATM   18  C   UNL     1      20.360  49.218  49.466  1.00  0.00     0.035 A 
HETATM   19  C   UNL     1      19.361  48.250  49.565  1.00  0.00     0.032 A 
HETATM   20  C   UNL     1      18.009  48.569  49.369  1.00  0.00     0.033 A 
HETATM   21  C   UNL     1      17.692  49.895  49.060  1.00  0.00     0.042 A 
HETATM   22  N   UNL     1      16.476  50.485  48.801  1.00  0.00    -0.359 N 
HETATM   23  C   UNL     1      18.660  50.891  48.962  1.00  0.00    -0.005 A 
HETATM   24  C   UNL     1      16.639  51.821  48.526  1.00  0.00     0.006 A 
HETATM   25  H   UNL     1      15.593  49.993  48.802  1.00  0.00     0.166 HD
HETATM   26  C   UNL     1      15.499  52.706  48.184  1.00  0.00     0.068 C 
HETATM   27  C   UNL     1      17.987  52.099  48.633  1.00  0.00     0.038 A 
HETATM   28  C   UNL     1      20.010  50.548  49.177  1.00  0.00     0.043 A 
ENDBRANCH   1  18
TORSDOF 3
ENDMDL
