MODEL 1
REMARK VINA RESULT:      -6.2      0.000      0.000
REMARK  2 active torsions:
REMARK  status: ('A' for Active; 'I' for Inactive)
REMARK    1  A    between atoms: N_7  and  C_9 
REMARK    2  A    between atoms: C_9  and  C_10 
ROOT
HETATM    1  C   UNL     1      26.882  49.902  48.488  1.00  0.00     0.136 A 
HETATM    2  N   UNL     1      27.470  48.808  49.074  1.00  0.00    -0.244 NA
HETATM    3  C   UNL     1      26.479  48.042  49.472  1.00  0.00     0.131 A 
HETATM    4  N   UNL     1      25.273  48.616  49.162  1.00  0.00    -0.341 N 
HETATM    5  C   UNL     1      23.988  48.058  49.522  1.00  0.00     0.157 C 
HETATM    6  C   UNL     1      24.093  46.572  49.879  1.00  0.00     0.256 C 
HETATM    7  N   UNL     1      25.269  46.325  50.814  1.00  0.00    -0.059 N 
HETATM    8  H   UNL     1      25.170  46.945  51.628  1.00  0.00     0.280 HD
HETATM    9  C   UNL     1      26.573  46.722  50.143  1.00  0.00     0.313 C 
HETATM   10  C   UNL     1      25.511  49.800  48.536  1.00  0.00     0.111 A 
ENDROOT
BRANCH   7  11
HETATM   11  C   UNL     1      25.348  44.919  51.349  1.00  0.00     0.274 C 
BRANCH  11  12
HETATM   12  C   UNL     1      26.479  44.732  52.307  1.00  0.00    -0.024 A 
HETATM   13  C   UNL     1      26.604  45.381  53.526  1.00  0.00     0.059 A 
HETATM   14  S   UNL     1      28.012  44.914  54.384  1.00  0.00    -0.094 SA
HETATM   15  C   UNL     1      28.485  43.877  53.134  1.00  0.00     0.051 A 
HETATM   16 BR   UNL     1      30.053  42.856  53.186  1.00  0.00    -0.043 Br
HETATM   17  C   UNL     1      27.602  43.859  52.083  1.00  0.00     0.036 A 
ENDBRANCH  11  12
ENDBRANCH   7  11
TORSDOF 2
ENDMDL
MODEL 2
REMARK VINA RESULT:      -6.0      3.973      6.633
REMARK  2 active torsions:
REMARK  status: ('A' for Active; 'I' for Inactive)
REMARK    1  A    between atoms: N_7  and  C_9 
REMARK    2  A    between atoms: C_9  and  C_10 
ROOT
HETATM    1  C   UNL     1      30.916  44.842  56.368  1.00  0.00     0.136 A 
HETATM    2  N   UNL     1      29.888  45.751  56.292  1.00  0.00    -0.244 NA
HETATM    3  C   UNL     1      29.003  45.218  55.481  1.00  0.00     0.131 A 
HETATM    4  N   UNL     1      29.435  43.997  55.030  1.00  0.00    -0.341 N 
HETATM    5  C   UNL     1      28.721  43.182  54.071  1.00  0.00     0.157 C 
HETATM    6  C   UNL     1      27.251  43.598  53.953  1.00  0.00     0.256 C 
HETATM    7  N   UNL     1      27.128  45.111  53.842  1.00  0.00    -0.059 N 
HETATM    8  H   UNL     1      27.715  45.425  53.059  1.00  0.00     0.280 HD
HETATM    9  C   UNL     1      27.690  45.783  55.082  1.00  0.00     0.313 C 
HETATM   10  C   UNL     1      30.651  43.743  55.584  1.00  0.00     0.111 A 
ENDROOT
BRANCH   7  11
HETATM   11  C   UNL     1      25.731  45.596  53.555  1.00  0.00     0.274 C 
BRANCH  11  12
HETATM   12  C   UNL     1      25.567  46.080  52.151  1.00  0.00    -0.024 A 
HETATM   13  C   UNL     1      24.694  45.538  51.220  1.00  0.00     0.059 A 
HETATM   14  S   UNL     1      24.746  46.351  49.712  1.00  0.00    -0.094 SA
HETATM   15  C   UNL     1      25.946  47.403  50.269  1.00  0.00     0.051 A 
HETATM   16 BR   UNL     1      26.700  48.751  49.211  1.00  0.00    -0.043 Br
HETATM   17  C   UNL     1      26.308  47.170  51.572  1.00  0.00     0.036 A 
ENDBRANCH  11  12
ENDBRANCH   7  11
TORSDOF 2
ENDMDL
MODEL 3
REMARK VINA RESULT:      -6.0      4.012      6.302
REMARK  2 active torsions:
REMARK  status: ('A' for Active; 'I' for Inactive)
REMARK    1  A    between atoms: N_7  and  C_9 
REMARK    2  A    between atoms: C_9  and  C_10 
ROOT
HETATM    1  C   UNL     1      28.107  46.694  55.886  1.00  0.00     0.136 A 
HETATM    2  N   UNL     1      27.160  47.393  55.177  1.00  0.00    -0.244 NA
HETATM    3  C   UNL     1      26.871  46.644  54.137  1.00  0.00     0.131 A 
HETATM    4  N   UNL     1      27.608  45.488  54.155  1.00  0.00    -0.341 N 
HETATM    5  C   UNL     1      27.573  44.481  53.117  1.00  0.00     0.157 C 
HETATM    6  C   UNL     1      26.325  44.614  52.238  1.00  0.00     0.256 C 
HETATM    7  N   UNL     1      26.102  46.066  51.838  1.00  0.00    -0.059 N 
HETATM    8  H   UNL     1      26.963  46.415  51.397  1.00  0.00     0.280 HD
HETATM    9  C   UNL     1      25.882  46.929  53.068  1.00  0.00     0.313 C 
HETATM   10  C   UNL     1      28.401  45.504  55.261  1.00  0.00     0.111 A 
ENDROOT
BRANCH   7  11
HETATM   11  C   UNL     1      24.993  46.267  50.838  1.00  0.00     0.274 C 
BRANCH  11  12
HETATM   12  C   UNL     1      25.186  47.491  50.003  1.00  0.00    -0.024 A 
HETATM   13  C   UNL     1      26.415  48.002  49.613  1.00  0.00     0.059 A 
HETATM   14  S   UNL     1      26.271  49.406  48.643  1.00  0.00    -0.094 SA
HETATM   15  C   UNL     1      24.585  49.370  48.759  1.00  0.00     0.051 A 
HETATM   16 BR   UNL     1      23.472  50.638  47.949  1.00  0.00    -0.043 Br
HETATM   17  C   UNL     1      24.117  48.316  49.504  1.00  0.00     0.036 A 
ENDBRANCH  11  12
ENDBRANCH   7  11
TORSDOF 2
ENDMDL
MODEL 4
REMARK VINA RESULT:      -5.9      2.840      4.247
REMARK  2 active torsions:
REMARK  status: ('A' for Active; 'I' for Inactive)
REMARK    1  A    between atoms: N_7  and  C_9 
REMARK    2  A    between atoms: C_9  and  C_10 
ROOT
HETATM    1  C   UNL     1      23.580  43.280  49.849  1.00  0.00     0.136 A 
HETATM    2  N   UNL     1      24.018  43.000  51.120  1.00  0.00    -0.244 NA
HETATM    3  C   UNL     1      24.799  44.002  51.455  1.00  0.00     0.131 A 
HETATM    4  N   UNL     1      24.878  44.913  50.433  1.00  0.00    -0.341 N 
HETATM    5  C   UNL     1      25.708  46.098  50.459  1.00  0.00     0.157 C 
HETATM    6  C   UNL     1      26.134  46.463  51.885  1.00  0.00     0.256 C 
HETATM    7  N   UNL     1      26.620  45.230  52.633  1.00  0.00    -0.059 N 
HETATM    8  H   UNL     1      27.362  44.786  52.076  1.00  0.00     0.280 HD
HETATM    9  C   UNL     1      25.508  44.202  52.743  1.00  0.00     0.313 C 
HETATM   10  C   UNL     1      24.109  44.469  49.403  1.00  0.00     0.111 A 
ENDROOT
BRANCH   7  11
HETATM   11  C   UNL     1      27.214  45.524  53.986  1.00  0.00     0.274 C 
BRANCH  11  12
HETATM   12  C   UNL     1      28.416  44.686  54.280  1.00  0.00    -0.024 A 
HETATM   13  C   UNL     1      28.913  43.691  53.453  1.00  0.00     0.059 A 
HETATM   14  S   UNL     1      30.319  42.943  54.086  1.00  0.00    -0.094 SA
HETATM   15  C   UNL     1      30.261  43.906  55.474  1.00  0.00     0.051 A 
HETATM   16 BR   UNL     1      31.505  43.776  56.867  1.00  0.00    -0.043 Br
HETATM   17  C   UNL     1      29.213  44.793  55.475  1.00  0.00     0.036 A 
ENDBRANCH  11  12
ENDBRANCH   7  11
TORSDOF 2
ENDMDL
MODEL 5
REMARK VINA RESULT:      -5.7      6.198      7.935
REMARK  2 active torsions:
REMARK  status: ('A' for Active; 'I' for Inactive)
REMARK    1  A    between atoms: N_7  and  C_9 
REMARK    2  A    between atoms: C_9  and  C_10 
ROOT
HETATM    1  C   UNL     1      26.924  48.913  49.153  1.00  0.00     0.136 A 
HETATM    2  N   UNL     1      25.922  48.149  49.701  1.00  0.00    -0.244 NA
HETATM    3  C   UNL     1      24.801  48.637  49.220  1.00  0.00     0.131 A 
HETATM    4  N   UNL     1      25.055  49.695  48.385  1.00  0.00    -0.341 N 
HETATM    5  C   UNL     1      24.031  50.493  47.745  1.00  0.00     0.157 C 
HETATM    6  C   UNL     1      22.676  49.778  47.734  1.00  0.00     0.256 C 
HETATM    7  N   UNL     1      22.372  49.182  49.101  1.00  0.00    -0.059 N 
HETATM    8  H   UNL     1      22.444  49.930  49.802  1.00  0.00     0.280 HD
HETATM    9  C   UNL     1      23.423  48.152  49.479  1.00  0.00     0.313 C 
HETATM   10  C   UNL     1      26.401  49.884  48.331  1.00  0.00     0.111 A 
ENDROOT
BRANCH   7  11
HETATM   11  C   UNL     1      20.986  48.603  49.227  1.00  0.00     0.274 C 
BRANCH  11  12
HETATM   12  C   UNL     1      19.928  49.657  49.296  1.00  0.00    -0.024 A 
HETATM   13  C   UNL     1      20.072  50.889  49.915  1.00  0.00     0.059 A 
HETATM   14  S   UNL     1      18.668  51.863  49.786  1.00  0.00    -0.094 SA
HETATM   15  C   UNL     1      17.848  50.650  48.941  1.00  0.00     0.051 A 
HETATM   16 BR   UNL     1      16.084  50.830  48.341  1.00  0.00    -0.043 Br
HETATM   17  C   UNL     1      18.608  49.524  48.738  1.00  0.00     0.036 A 
ENDBRANCH  11  12
ENDBRANCH   7  11
TORSDOF 2
ENDMDL
MODEL 6
REMARK VINA RESULT:      -5.7     11.116     11.968
REMARK  2 active torsions:
REMARK  status: ('A' for Active; 'I' for Inactive)
REMARK    1  A    between atoms: N_7  and  C_9 
REMARK    2  A    between atoms: C_9  and  C_10 
ROOT
HETATM    1  C   UNL     1      27.062  50.605  38.085  1.00  0.00     0.136 A 
HETATM    2  N   UNL     1      28.417  50.783  38.219  1.00  0.00    -0.244 NA
HETATM    3  C   UNL     1      28.834  49.783  38.962  1.00  0.00     0.131 A 
HETATM    4  N   UNL     1      27.785  48.973  39.313  1.00  0.00    -0.341 N 
HETATM    5  C   UNL     1      27.898  47.822  40.182  1.00  0.00     0.157 C 
HETATM    6  C   UNL     1      29.348  47.343  40.307  1.00  0.00     0.256 C 
HETATM    7  N   UNL     1      30.284  48.519  40.548  1.00  0.00    -0.059 N 
HETATM    8  H   UNL     1      29.943  49.039  41.367  1.00  0.00     0.280 HD
HETATM    9  C   UNL     1      30.227  49.492  39.383  1.00  0.00     0.313 C 
HETATM   10  C   UNL     1      26.649  49.482  38.763  1.00  0.00     0.111 A 
ENDROOT
BRANCH   7  11
HETATM   11  C   UNL     1      31.707  48.125  40.848  1.00  0.00     0.274 C 
BRANCH  11  12
HETATM   12  C   UNL     1      32.459  49.193  41.574  1.00  0.00    -0.024 A 
HETATM   13  C   UNL     1      33.746  49.606  41.267  1.00  0.00     0.059 A 
HETATM   14  S   UNL     1      34.297  50.869  42.287  1.00  0.00    -0.094 SA
HETATM   15  C   UNL     1      32.850  50.854  43.162  1.00  0.00     0.051 A 
HETATM   16 BR   UNL     1      32.516  51.991  44.611  1.00  0.00    -0.043 Br
HETATM   17  C   UNL     1      31.949  49.927  42.701  1.00  0.00     0.036 A 
ENDBRANCH  11  12
ENDBRANCH   7  11
TORSDOF 2
ENDMDL
MODEL 7
REMARK VINA RESULT:      -5.7      4.202      5.488
REMARK  2 active torsions:
REMARK  status: ('A' for Active; 'I' for Inactive)
REMARK    1  A    between atoms: N_7  and  C_9 
REMARK    2  A    between atoms: C_9  and  C_10 
ROOT
HETATM    1  C   UNL     1      28.266  40.079  49.040  1.00  0.00     0.136 A 
HETATM    2  N   UNL     1      28.244  40.149  50.412  1.00  0.00    -0.244 NA
HETATM    3  C   UNL     1      27.617  41.268  50.699  1.00  0.00     0.131 A 
HETATM    4  N   UNL     1      27.243  41.919  49.553  1.00  0.00    -0.341 N 
HETATM    5  C   UNL     1      26.592  43.211  49.524  1.00  0.00     0.157 C 
HETATM    6  C   UNL     1      25.971  43.566  50.878  1.00  0.00     0.256 C 
HETATM    7  N   UNL     1      26.948  43.280  52.009  1.00  0.00    -0.059 N 
HETATM    8  H   UNL     1      27.827  43.776  51.810  1.00  0.00     0.280 HD
HETATM    9  C   UNL     1      27.301  41.803  52.047  1.00  0.00     0.313 C 
HETATM   10  C   UNL     1      27.648  41.177  48.487  1.00  0.00     0.111 A 
ENDROOT
BRANCH   7  11
HETATM   11  C   UNL     1      26.483  43.754  53.362  1.00  0.00     0.274 C 
BRANCH  11  12
HETATM   12  C   UNL     1      27.572  44.410  54.147  1.00  0.00    -0.024 A 
HETATM   13  C   UNL     1      27.644  45.766  54.428  1.00  0.00     0.059 A 
HETATM   14  S   UNL     1      29.014  46.175  55.371  1.00  0.00    -0.094 SA
HETATM   15  C   UNL     1      29.541  44.569  55.386  1.00  0.00     0.051 A 
HETATM   16 BR   UNL     1      31.106  44.010  56.247  1.00  0.00    -0.043 Br
HETATM   17  C   UNL     1      28.704  43.719  54.706  1.00  0.00     0.036 A 
ENDBRANCH  11  12
ENDBRANCH   7  11
TORSDOF 2
ENDMDL
MODEL 8
REMARK VINA RESULT:      -5.6     11.412     12.280
REMARK  2 active torsions:
REMARK  status: ('A' for Active; 'I' for Inactive)
REMARK    1  A    between atoms: N_7  and  C_9 
REMARK    2  A    between atoms: C_9  and  C_10 
ROOT
HETATM    1  C   UNL     1      27.975  50.728  38.853  1.00  0.00     0.136 A 
HETATM    2  N   UNL     1      28.619  49.881  39.721  1.00  0.00    -0.244 NA
HETATM    3  C   UNL     1      29.370  50.650  40.477  1.00  0.00     0.131 A 
HETATM    4  N   UNL     1      29.231  51.965  40.114  1.00  0.00    -0.341 N 
HETATM    5  C   UNL     1      29.971  53.058  40.707  1.00  0.00     0.157 C 
HETATM    6  C   UNL     1      30.581  52.666  42.056  1.00  0.00     0.256 C 
HETATM    7  N   UNL     1      31.259  51.306  41.965  1.00  0.00    -0.059 N 
HETATM    8  H   UNL     1      31.937  51.335  41.192  1.00  0.00     0.280 HD
HETATM    9  C   UNL     1      30.249  50.232  41.596  1.00  0.00     0.313 C 
HETATM   10  C   UNL     1      28.347  52.033  39.081  1.00  0.00     0.111 A 
ENDROOT
BRANCH   7  11
HETATM   11  C   UNL     1      32.029  50.916  43.200  1.00  0.00     0.274 C 
BRANCH  11  12
HETATM   12  C   UNL     1      33.498  51.154  43.061  1.00  0.00    -0.024 A 
HETATM   13  C   UNL     1      34.313  50.556  42.112  1.00  0.00     0.059 A 
HETATM   14  S   UNL     1      35.944  51.071  42.221  1.00  0.00    -0.094 SA
HETATM   15  C   UNL     1      35.590  52.061  43.545  1.00  0.00     0.051 A 
HETATM   16 BR   UNL     1      36.877  53.099  44.423  1.00  0.00    -0.043 Br
HETATM   17  C   UNL     1      34.267  52.028  43.908  1.00  0.00     0.036 A 
ENDBRANCH  11  12
ENDBRANCH   7  11
TORSDOF 2
ENDMDL
MODEL 9
REMARK VINA RESULT:      -5.5      3.566      6.147
REMARK  2 active torsions:
REMARK  status: ('A' for Active; 'I' for Inactive)
REMARK    1  A    between atoms: N_7  and  C_9 
REMARK    2  A    between atoms: C_9  and  C_10 
ROOT
HETATM    1  C   UNL     1      29.024  41.604  52.713  1.00  0.00     0.136 A 
HETATM    2  N   UNL     1      28.583  42.838  53.123  1.00  0.00    -0.244 NA
HETATM    3  C   UNL     1      27.484  43.067  52.440  1.00  0.00     0.131 A 
HETATM    4  N   UNL     1      27.212  42.019  51.600  1.00  0.00    -0.341 N 
HETATM    5  C   UNL     1      26.108  41.988  50.665  1.00  0.00     0.157 C 
HETATM    6  C   UNL     1      25.036  43.025  51.015  1.00  0.00     0.256 C 
HETATM    7  N   UNL     1      25.673  44.371  51.330  1.00  0.00    -0.059 N 
HETATM    8  H   UNL     1      26.270  44.639  50.537  1.00  0.00     0.280 HD
HETATM    9  C   UNL     1      26.598  44.254  52.529  1.00  0.00     0.313 C 
HETATM   10  C   UNL     1      28.182  41.079  51.760  1.00  0.00     0.111 A 
ENDROOT
BRANCH   7  11
HETATM   11  C   UNL     1      24.684  45.491  51.523  1.00  0.00     0.274 C 
BRANCH  11  12
HETATM   12  C   UNL     1      24.958  46.660  50.633  1.00  0.00    -0.024 A 
HETATM   13  C   UNL     1      24.003  47.327  49.881  1.00  0.00     0.059 A 
HETATM   14  S   UNL     1      24.658  48.637  48.990  1.00  0.00    -0.094 SA
HETATM   15  C   UNL     1      26.214  48.310  49.566  1.00  0.00     0.051 A 
HETATM   16 BR   UNL     1      27.720  49.309  49.079  1.00  0.00    -0.043 Br
HETATM   17  C   UNL     1      26.258  47.241  50.427  1.00  0.00     0.036 A 
ENDBRANCH  11  12
ENDBRANCH   7  11
TORSDOF 2
ENDMDL
MODEL 10
REMARK VINA RESULT:      -5.4      3.997      5.356
REMARK  2 active torsions:
REMARK  status: ('A' for Active; 'I' for Inactive)
REMARK    1  A    between atoms: N_7  and  C_9 
REMARK    2  A    between atoms: C_9  and  C_10 
ROOT
HETATM    1  C   UNL     1      19.195  51.486  49.940  1.00  0.00     0.136 A 
HETATM    2  N   UNL     1      20.540  51.347  49.695  1.00  0.00    -0.244 NA
HETATM    3  C   UNL     1      20.726  50.070  49.451  1.00  0.00     0.131 A 
HETATM    4  N   UNL     1      19.541  49.385  49.537  1.00  0.00    -0.341 N 
HETATM    5  C   UNL     1      19.414  47.952  49.386  1.00  0.00     0.157 C 
HETATM    6  C   UNL     1      20.636  47.342  48.691  1.00  0.00     0.256 C 
HETATM    7  N   UNL     1      21.924  47.890  49.290  1.00  0.00    -0.059 N 
HETATM    8  H   UNL     1      21.899  47.733  50.305  1.00  0.00     0.280 HD
HETATM    9  C   UNL     1      22.000  49.395  49.101  1.00  0.00     0.313 C 
HETATM   10  C   UNL     1      18.556  50.271  49.847  1.00  0.00     0.111 A 
ENDROOT
BRANCH   7  11
HETATM   11  C   UNL     1      23.174  47.222  48.779  1.00  0.00     0.274 C 
BRANCH  11  12
HETATM   12  C   UNL     1      23.963  46.570  49.869  1.00  0.00    -0.024 A 
HETATM   13  C   UNL     1      24.098  45.201  50.042  1.00  0.00     0.059 A 
HETATM   14  S   UNL     1      25.091  44.798  51.379  1.00  0.00    -0.094 SA
HETATM   15  C   UNL     1      25.321  46.429  51.759  1.00  0.00     0.051 A 
HETATM   16 BR   UNL     1      26.354  47.010  53.208  1.00  0.00    -0.043 Br
HETATM   17  C   UNL     1      24.677  47.281  50.896  1.00  0.00     0.036 A 
ENDBRANCH  11  12
ENDBRANCH   7  11
TORSDOF 2
ENDMDL
