MODEL 1
REMARK VINA RESULT:     -12.1      0.000      0.000
REMARK  6 active torsions:
REMARK  status: ('A' for Active; 'I' for Inactive)
REMARK       I    between atoms: N_1  and  C_2 
REMARK    1  A    between atoms: C_2  and  C_4 
REMARK    2  A    between atoms: C_9  and  C_13 
REMARK       I    between atoms: C_13  and  N_15 
REMARK    3  A    between atoms: C_19  and  C_20 
REMARK    4  A    between atoms: C_24  and  C_26 
REMARK       I    between atoms: C_26  and  N_28 
REMARK    5  A    between atoms: N_28  and  C_29 
REMARK    6  A    between atoms: C_34  and  N_38 
ROOT
HETATM    1  C   UNL     1      24.994  46.693  49.995  1.00  0.00    -0.034 A 
HETATM    2  C   UNL     1      26.244  47.298  49.769  1.00  0.00     0.009 A 
HETATM    3  C   UNL     1      26.334  48.586  49.239  1.00  0.00     0.002 A 
HETATM    4  C   UNL     1      25.176  49.291  48.915  1.00  0.00     0.017 A 
HETATM    5  C   UNL     1      23.925  48.699  49.126  1.00  0.00     0.033 A 
HETATM    6  C   UNL     1      23.834  47.420  49.683  1.00  0.00     0.026 A 
ENDROOT
BRANCH   1   7
HETATM    7  C   UNL     1      24.947  45.287  50.573  1.00  0.00     0.120 C 
HETATM    8  N   UNL     1      26.086  44.964  51.424  1.00  0.00    -0.338 N 
HETATM    9  C   UNL     1      26.191  45.493  52.702  1.00  0.00     0.274 C 
HETATM   10  C   UNL     1      26.953  43.972  50.803  1.00  0.00     0.127 C 
HETATM   11  O   UNL     1      25.368  46.307  53.127  1.00  0.00    -0.266 OA
HETATM   12  C   UNL     1      26.463  43.867  49.365  1.00  0.00     0.022 C 
HETATM   13  C   UNL     1      24.984  44.212  49.480  1.00  0.00     0.032 C 
BRANCH   9  14
HETATM   14  C   UNL     1      27.321  45.078  53.550  1.00  0.00     0.142 A 
HETATM   15  N   UNL     1      28.152  43.990  53.330  1.00  0.00    -0.224 NA
HETATM   16  C   UNL     1      29.004  43.978  54.332  1.00  0.00     0.134 A 
HETATM   17  C   UNL     1      30.071  43.093  54.651  1.00  0.00     0.052 A 
HETATM   18  N   UNL     1      28.772  45.030  55.208  1.00  0.00    -0.314 N 
HETATM   19  C   UNL     1      30.814  43.316  55.753  1.00  0.00     0.022 A 
HETATM   20  C   UNL     1      30.565  44.458  56.634  1.00  0.00     0.047 A 
HETATM   21  C   UNL     1      29.534  45.277  56.347  1.00  0.00     0.115 A 
HETATM   22  C   UNL     1      27.695  45.718  54.721  1.00  0.00     0.135 A 
BRANCH  20  23
HETATM   23  C   UNL     1      31.410  44.651  57.848  1.00  0.00     0.250 C 
HETATM   24  N   UNL     1      31.012  45.626  58.712  1.00  0.00    -0.366 N 
HETATM   25  H   UNL     1      31.630  45.824  59.488  1.00  0.00     0.159 HD
HETATM   26  H   UNL     1      30.293  46.300  58.492  1.00  0.00     0.159 HD
HETATM   27  O   UNL     1      32.437  44.013  58.041  1.00  0.00    -0.268 OA
ENDBRANCH  20  23
ENDBRANCH   9  14
ENDBRANCH   1   7
BRANCH   5  28
HETATM   28  C   UNL     1      22.668  49.411  48.772  1.00  0.00     0.257 C 
HETATM   29  O   UNL     1      22.569  49.898  47.655  1.00  0.00    -0.267 OA
HETATM   30  N   UNL     1      21.759  49.462  49.801  1.00  0.00    -0.301 N 
HETATM   31  H   UNL     1      21.999  49.123  50.720  1.00  0.00     0.171 HD
BRANCH  30  32
HETATM   32  C   UNL     1      20.505  49.980  49.655  1.00  0.00     0.174 A 
HETATM   33  N   UNL     1      20.070  51.200  49.847  1.00  0.00    -0.228 NA
HETATM   34  C   UNL     1      18.742  51.267  49.487  1.00  0.00     0.050 A 
HETATM   35  C   UNL     1      17.998  52.556  49.521  1.00  0.00     0.062 C 
HETATM   36  C   UNL     1      18.207  50.089  49.012  1.00  0.00     0.013 A 
HETATM   37  C   UNL     1      16.550  52.418  49.002  1.00  0.00     0.031 C 
HETATM   38  C   UNL     1      16.293  51.293  47.951  1.00  0.00     0.084 C 
HETATM   39  C   UNL     1      16.824  49.934  48.500  1.00  0.00     0.073 C 
HETATM   40  S   UNL     1      19.362  48.843  49.077  1.00  0.00    -0.055 SA
BRANCH  38  41
HETATM   41  N   UNL     1      16.580  51.648  46.548  1.00  0.00    -0.404 N 
HETATM   42  C   UNL     1      16.949  50.628  45.561  1.00  0.00     0.143 C 
HETATM   43  C   UNL     1      15.773  50.068  44.748  1.00  0.00     0.187 C 
HETATM   44  O   UNL     1      15.042  51.125  44.110  1.00  0.00    -0.388 OA
HETATM   45  C   UNL     1      14.552  52.051  45.085  1.00  0.00     0.187 C 
HETATM   46  C   UNL     1      15.693  52.649  45.930  1.00  0.00     0.143 C 
ENDBRANCH  38  41
ENDBRANCH  30  32
ENDBRANCH   5  28
TORSDOF 6
ENDMDL
MODEL 2
REMARK VINA RESULT:     -10.9      2.565     13.743
REMARK  6 active torsions:
REMARK  status: ('A' for Active; 'I' for Inactive)
REMARK       I    between atoms: N_1  and  C_2 
REMARK    1  A    between atoms: C_2  and  C_4 
REMARK    2  A    between atoms: C_9  and  C_13 
REMARK       I    between atoms: C_13  and  N_15 
REMARK    3  A    between atoms: C_19  and  C_20 
REMARK    4  A    between atoms: C_24  and  C_26 
REMARK       I    between atoms: C_26  and  N_28 
REMARK    5  A    between atoms: N_28  and  C_29 
REMARK    6  A    between atoms: C_34  and  N_38 
ROOT
HETATM    1  C   UNL     1      22.538  48.071  48.955  1.00  0.00    -0.034 A 
HETATM    2  C   UNL     1      21.829  47.685  47.803  1.00  0.00     0.009 A 
HETATM    3  C   UNL     1      21.980  46.408  47.260  1.00  0.00     0.002 A 
HETATM    4  C   UNL     1      22.850  45.495  47.852  1.00  0.00     0.017 A 
HETATM    5  C   UNL     1      23.569  45.867  48.995  1.00  0.00     0.033 A 
HETATM    6  C   UNL     1      23.397  47.136  49.555  1.00  0.00     0.026 A 
ENDROOT
BRANCH   1   7
HETATM    7  C   UNL     1      22.341  49.473  49.510  1.00  0.00     0.120 C 
HETATM    8  N   UNL     1      21.131  50.130  49.028  1.00  0.00    -0.338 N 
HETATM    9  C   UNL     1      19.882  49.758  49.507  1.00  0.00     0.274 C 
HETATM   10  C   UNL     1      21.442  51.235  48.133  1.00  0.00     0.127 C 
HETATM   11  O   UNL     1      19.753  48.817  50.292  1.00  0.00    -0.266 OA
HETATM   12  C   UNL     1      22.929  51.091  47.833  1.00  0.00     0.022 C 
HETATM   13  C   UNL     1      23.470  50.423  49.090  1.00  0.00     0.032 C 
BRANCH   9  14
HETATM   14  C   UNL     1      18.698  50.502  49.046  1.00  0.00     0.142 A 
HETATM   15  N   UNL     1      18.037  50.322  47.840  1.00  0.00    -0.224 NA
HETATM   16  C   UNL     1      17.058  51.200  47.830  1.00  0.00     0.134 A 
HETATM   17  C   UNL     1      16.065  51.493  46.855  1.00  0.00     0.052 A 
HETATM   18  N   UNL     1      17.039  51.952  48.997  1.00  0.00    -0.314 N 
HETATM   19  C   UNL     1      15.151  52.452  47.103  1.00  0.00     0.022 A 
HETATM   20  C   UNL     1      15.138  53.200  48.361  1.00  0.00     0.047 A 
HETATM   21  C   UNL     1      16.099  52.942  49.270  1.00  0.00     0.115 A 
HETATM   22  C   UNL     1      18.088  51.521  49.761  1.00  0.00     0.135 A 
BRANCH  20  23
HETATM   23  C   UNL     1      14.111  54.260  48.579  1.00  0.00     0.250 C 
HETATM   24  N   UNL     1      14.005  55.206  47.606  1.00  0.00    -0.366 N 
HETATM   25  H   UNL     1      13.377  55.978  47.790  1.00  0.00     0.159 HD
HETATM   26  H   UNL     1      14.674  55.307  46.856  1.00  0.00     0.159 HD
HETATM   27  O   UNL     1      13.434  54.317  49.597  1.00  0.00    -0.268 OA
ENDBRANCH  20  23
ENDBRANCH   9  14
ENDBRANCH   1   7
BRANCH   5  28
HETATM   28  C   UNL     1      24.524  44.928  49.642  1.00  0.00     0.257 C 
HETATM   29  O   UNL     1      24.734  43.849  49.106  1.00  0.00    -0.267 OA
HETATM   30  N   UNL     1      25.038  45.400  50.825  1.00  0.00    -0.301 N 
HETATM   31  H   UNL     1      24.702  46.260  51.229  1.00  0.00     0.171 HD
BRANCH  30  32
HETATM   32  C   UNL     1      26.005  44.740  51.527  1.00  0.00     0.174 A 
HETATM   33  N   UNL     1      27.191  44.334  51.149  1.00  0.00    -0.228 NA
HETATM   34  C   UNL     1      27.848  43.789  52.231  1.00  0.00     0.050 A 
HETATM   35  C   UNL     1      29.255  43.316  52.122  1.00  0.00     0.062 C 
HETATM   36  C   UNL     1      27.140  43.813  53.413  1.00  0.00     0.013 A 
HETATM   37  C   UNL     1      29.819  42.818  53.470  1.00  0.00     0.031 C 
HETATM   38  C   UNL     1      29.217  43.466  54.756  1.00  0.00     0.084 C 
HETATM   39  C   UNL     1      27.663  43.350  54.722  1.00  0.00     0.073 C 
HETATM   40  S   UNL     1      25.590  44.465  53.165  1.00  0.00    -0.055 SA
BRANCH  38  41
HETATM   41  N   UNL     1      29.820  44.747  55.172  1.00  0.00    -0.404 N 
HETATM   42  C   UNL     1      28.991  45.889  55.570  1.00  0.00     0.143 C 
HETATM   43  C   UNL     1      28.729  45.996  57.079  1.00  0.00     0.187 C 
HETATM   44  O   UNL     1      29.960  46.005  57.815  1.00  0.00    -0.388 OA
HETATM   45  C   UNL     1      30.712  44.818  57.542  1.00  0.00     0.187 C 
HETATM   46  C   UNL     1      31.009  44.661  56.038  1.00  0.00     0.143 C 
ENDBRANCH  38  41
ENDBRANCH  30  32
ENDBRANCH   5  28
TORSDOF 6
ENDMDL
MODEL 3
REMARK VINA RESULT:     -10.9      2.911     13.610
REMARK  6 active torsions:
REMARK  status: ('A' for Active; 'I' for Inactive)
REMARK       I    between atoms: N_1  and  C_2 
REMARK    1  A    between atoms: C_2  and  C_4 
REMARK    2  A    between atoms: C_9  and  C_13 
REMARK       I    between atoms: C_13  and  N_15 
REMARK    3  A    between atoms: C_19  and  C_20 
REMARK    4  A    between atoms: C_24  and  C_26 
REMARK       I    between atoms: C_26  and  N_28 
REMARK    5  A    between atoms: N_28  and  C_29 
REMARK    6  A    between atoms: C_34  and  N_38 
ROOT
HETATM    1  C   UNL     1      22.674  49.601  49.017  1.00  0.00    -0.034 A 
HETATM    2  C   UNL     1      23.164  50.551  48.103  1.00  0.00     0.009 A 
HETATM    3  C   UNL     1      24.510  50.565  47.733  1.00  0.00     0.002 A 
HETATM    4  C   UNL     1      25.394  49.636  48.278  1.00  0.00     0.017 A 
HETATM    5  C   UNL     1      24.923  48.689  49.195  1.00  0.00     0.033 A 
HETATM    6  C   UNL     1      23.569  48.657  49.544  1.00  0.00     0.026 A 
ENDROOT
BRANCH   1   7
HETATM    7  C   UNL     1      21.199  49.626  49.389  1.00  0.00     0.120 C 
HETATM    8  N   UNL     1      20.309  49.283  48.286  1.00  0.00    -0.338 N 
HETATM    9  C   UNL     1      20.185  47.970  47.855  1.00  0.00     0.274 C 
HETATM   10  C   UNL     1      19.542  50.437  47.840  1.00  0.00     0.127 C 
HETATM   11  O   UNL     1      20.875  47.070  48.338  1.00  0.00    -0.266 OA
HETATM   12  C   UNL     1      20.186  51.630  48.535  1.00  0.00     0.022 C 
HETATM   13  C   UNL     1      20.736  51.023  49.819  1.00  0.00     0.032 C 
BRANCH   9  14
HETATM   14  C   UNL     1      19.218  47.664  46.788  1.00  0.00     0.142 A 
HETATM   15  N   UNL     1      19.518  47.426  45.455  1.00  0.00    -0.224 NA
HETATM   16  C   UNL     1      18.366  47.217  44.856  1.00  0.00     0.134 A 
HETATM   17  C   UNL     1      18.046  46.942  43.498  1.00  0.00     0.052 A 
HETATM   18  N   UNL     1      17.307  47.300  45.751  1.00  0.00    -0.314 N 
HETATM   19  C   UNL     1      16.759  46.754  43.142  1.00  0.00     0.022 A 
HETATM   20  C   UNL     1      15.671  46.811  44.119  1.00  0.00     0.047 A 
HETATM   21  C   UNL     1      15.975  47.103  45.400  1.00  0.00     0.115 A 
HETATM   22  C   UNL     1      17.846  47.599  46.972  1.00  0.00     0.135 A 
BRANCH  20  23
HETATM   23  C   UNL     1      14.264  46.608  43.669  1.00  0.00     0.250 C 
HETATM   24  N   UNL     1      13.487  45.816  44.459  1.00  0.00    -0.366 N 
HETATM   25  H   UNL     1      12.561  45.599  44.112  1.00  0.00     0.159 HD
HETATM   26  H   UNL     1      13.854  45.256  45.214  1.00  0.00     0.159 HD
HETATM   27  O   UNL     1      13.836  47.076  42.623  1.00  0.00    -0.268 OA
ENDBRANCH  20  23
ENDBRANCH   9  14
ENDBRANCH   1   7
BRANCH   5  28
HETATM   28  C   UNL     1      25.839  47.695  49.814  1.00  0.00     0.257 C 
HETATM   29  O   UNL     1      27.022  47.719  49.503  1.00  0.00    -0.267 OA
HETATM   30  N   UNL     1      25.206  46.820  50.663  1.00  0.00    -0.301 N 
HETATM   31  H   UNL     1      24.202  46.823  50.754  1.00  0.00     0.171 HD
BRANCH  30  32
HETATM   32  C   UNL     1      25.879  45.895  51.408  1.00  0.00     0.174 A 
HETATM   33  N   UNL     1      26.815  45.050  51.058  1.00  0.00    -0.228 NA
HETATM   34  C   UNL     1      27.254  44.375  52.176  1.00  0.00     0.050 A 
HETATM   35  C   UNL     1      28.378  43.402  52.098  1.00  0.00     0.062 C 
HETATM   36  C   UNL     1      26.645  44.743  53.355  1.00  0.00     0.013 A 
HETATM   37  C   UNL     1      28.759  42.823  53.477  1.00  0.00     0.031 C 
HETATM   38  C   UNL     1      28.483  43.737  54.713  1.00  0.00     0.084 C 
HETATM   39  C   UNL     1      26.998  44.209  54.694  1.00  0.00     0.073 C 
HETATM   40  S   UNL     1      25.443  45.910  53.065  1.00  0.00    -0.055 SA
BRANCH  38  41
HETATM   41  N   UNL     1      29.535  44.724  55.029  1.00  0.00    -0.404 N 
HETATM   42  C   UNL     1      29.214  46.004  55.666  1.00  0.00     0.143 C 
HETATM   43  C   UNL     1      29.330  46.006  57.197  1.00  0.00     0.187 C 
HETATM   44  O   UNL     1      30.629  45.563  57.613  1.00  0.00    -0.388 OA
HETATM   45  C   UNL     1      30.892  44.248  57.113  1.00  0.00     0.187 C 
HETATM   46  C   UNL     1      30.793  44.189  55.577  1.00  0.00     0.143 C 
ENDBRANCH  38  41
ENDBRANCH  30  32
ENDBRANCH   5  28
TORSDOF 6
ENDMDL
MODEL 4
REMARK VINA RESULT:     -10.9      2.736     13.686
REMARK  6 active torsions:
REMARK  status: ('A' for Active; 'I' for Inactive)
REMARK       I    between atoms: N_1  and  C_2 
REMARK    1  A    between atoms: C_2  and  C_4 
REMARK    2  A    between atoms: C_9  and  C_13 
REMARK       I    between atoms: C_13  and  N_15 
REMARK    3  A    between atoms: C_19  and  C_20 
REMARK    4  A    between atoms: C_24  and  C_26 
REMARK       I    between atoms: C_26  and  N_28 
REMARK    5  A    between atoms: N_28  and  C_29 
REMARK    6  A    between atoms: C_34  and  N_38 
ROOT
HETATM    1  C   UNL     1      21.888  48.226  47.965  1.00  0.00    -0.034 A 
HETATM    2  C   UNL     1      22.476  49.503  48.025  1.00  0.00     0.009 A 
HETATM    3  C   UNL     1      23.657  49.718  48.737  1.00  0.00     0.002 A 
HETATM    4  C   UNL     1      24.269  48.663  49.410  1.00  0.00     0.017 A 
HETATM    5  C   UNL     1      23.693  47.388  49.367  1.00  0.00     0.033 A 
HETATM    6  C   UNL     1      22.524  47.166  48.631  1.00  0.00     0.026 A 
ENDROOT
BRANCH   1   7
HETATM    7  C   UNL     1      20.600  48.041  47.178  1.00  0.00     0.120 C 
HETATM    8  N   UNL     1      19.495  48.861  47.660  1.00  0.00    -0.338 N 
HETATM    9  C   UNL     1      19.460  50.225  47.409  1.00  0.00     0.274 C 
HETATM   10  C   UNL     1      18.459  48.050  48.284  1.00  0.00     0.127 C 
HETATM   11  O   UNL     1      20.393  50.795  46.839  1.00  0.00    -0.266 OA
HETATM   12  C   UNL     1      19.080  46.667  48.433  1.00  0.00     0.022 C 
HETATM   13  C   UNL     1      20.066  46.606  47.274  1.00  0.00     0.032 C 
BRANCH   9  14
HETATM   14  C   UNL     1      18.287  50.997  47.852  1.00  0.00     0.142 A 
HETATM   15  N   UNL     1      17.222  51.395  47.058  1.00  0.00    -0.224 NA
HETATM   16  C   UNL     1      16.416  52.072  47.846  1.00  0.00     0.134 A 
HETATM   17  C   UNL     1      15.182  52.733  47.590  1.00  0.00     0.052 A 
HETATM   18  N   UNL     1      16.906  52.129  49.144  1.00  0.00    -0.314 N 
HETATM   19  C   UNL     1      14.539  53.355  48.598  1.00  0.00     0.022 A 
HETATM   20  C   UNL     1      15.066  53.362  49.963  1.00  0.00     0.047 A 
HETATM   21  C   UNL     1      16.251  52.762  50.196  1.00  0.00     0.115 A 
HETATM   22  C   UNL     1      18.099  51.461  49.144  1.00  0.00     0.135 A 
BRANCH  20  23
HETATM   23  C   UNL     1      14.319  54.077  51.039  1.00  0.00     0.250 C 
HETATM   24  N   UNL     1      15.033  54.409  52.150  1.00  0.00    -0.366 N 
HETATM   25  H   UNL     1      14.513  54.811  52.919  1.00  0.00     0.159 HD
HETATM   26  H   UNL     1      15.963  54.064  52.334  1.00  0.00     0.159 HD
HETATM   27  O   UNL     1      13.120  54.308  50.962  1.00  0.00    -0.268 OA
ENDBRANCH  20  23
ENDBRANCH   9  14
ENDBRANCH   1   7
BRANCH   5  28
HETATM   28  C   UNL     1      24.304  46.241  50.090  1.00  0.00     0.257 C 
HETATM   29  O   UNL     1      23.866  45.119  49.879  1.00  0.00    -0.267 OA
HETATM   30  N   UNL     1      25.296  46.611  50.965  1.00  0.00    -0.301 N 
HETATM   31  H   UNL     1      25.494  47.584  51.141  1.00  0.00     0.171 HD
BRANCH  30  32
HETATM   32  C   UNL     1      26.051  45.706  51.652  1.00  0.00     0.174 A 
HETATM   33  N   UNL     1      27.058  44.971  51.251  1.00  0.00    -0.228 NA
HETATM   34  C   UNL     1      27.561  44.270  52.325  1.00  0.00     0.050 A 
HETATM   35  C   UNL     1      28.767  43.408  52.188  1.00  0.00     0.062 C 
HETATM   36  C   UNL     1      26.926  44.508  53.524  1.00  0.00     0.013 A 
HETATM   37  C   UNL     1      29.204  42.781  53.529  1.00  0.00     0.031 C 
HETATM   38  C   UNL     1      28.853  43.588  54.819  1.00  0.00     0.084 C 
HETATM   39  C   UNL     1      27.331  43.926  54.827  1.00  0.00     0.073 C 
HETATM   40  S   UNL     1      25.624  45.579  53.306  1.00  0.00    -0.055 SA
BRANCH  38  41
HETATM   41  N   UNL     1      29.814  44.643  55.197  1.00  0.00    -0.404 N 
HETATM   42  C   UNL     1      29.363  45.921  55.756  1.00  0.00     0.143 C 
HETATM   43  C   UNL     1      29.332  45.975  57.289  1.00  0.00     0.187 C 
HETATM   44  O   UNL     1      30.609  45.622  57.841  1.00  0.00    -0.388 OA
HETATM   45  C   UNL     1      30.990  44.310  57.415  1.00  0.00     0.187 C 
HETATM   46  C   UNL     1      31.041  44.199  55.879  1.00  0.00     0.143 C 
ENDBRANCH  38  41
ENDBRANCH  30  32
ENDBRANCH   5  28
TORSDOF 6
ENDMDL
MODEL 5
REMARK VINA RESULT:     -10.6      1.556      1.965
REMARK  6 active torsions:
REMARK  status: ('A' for Active; 'I' for Inactive)
REMARK       I    between atoms: N_1  and  C_2 
REMARK    1  A    between atoms: C_2  and  C_4 
REMARK    2  A    between atoms: C_9  and  C_13 
REMARK       I    between atoms: C_13  and  N_15 
REMARK    3  A    between atoms: C_19  and  C_20 
REMARK    4  A    between atoms: C_24  and  C_26 
REMARK       I    between atoms: C_26  and  N_28 
REMARK    5  A    between atoms: N_28  and  C_29 
REMARK    6  A    between atoms: C_34  and  N_38 
ROOT
HETATM    1  C   UNL     1      24.685  45.672  50.073  1.00  0.00    -0.034 A 
HETATM    2  C   UNL     1      25.692  46.654  50.105  1.00  0.00     0.009 A 
HETATM    3  C   UNL     1      25.446  47.952  49.655  1.00  0.00     0.002 A 
HETATM    4  C   UNL     1      24.189  48.292  49.157  1.00  0.00     0.017 A 
HETATM    5  C   UNL     1      23.178  47.325  49.112  1.00  0.00     0.033 A 
HETATM    6  C   UNL     1      23.417  46.031  49.587  1.00  0.00     0.026 A 
ENDROOT
BRANCH   1   7
HETATM    7  C   UNL     1      25.001  44.271  50.573  1.00  0.00     0.120 C 
HETATM    8  N   UNL     1      26.149  44.213  51.470  1.00  0.00    -0.338 N 
HETATM    9  C   UNL     1      26.051  44.665  52.779  1.00  0.00     0.274 C 
HETATM   10  C   UNL     1      27.280  43.539  50.849  1.00  0.00     0.127 C 
HETATM   11  O   UNL     1      25.020  45.193  53.197  1.00  0.00    -0.266 OA
HETATM   12  C   UNL     1      26.898  43.401  49.381  1.00  0.00     0.022 C 
HETATM   13  C   UNL     1      25.377  43.322  49.428  1.00  0.00     0.032 C 
BRANCH   9  14
HETATM   14  C   UNL     1      27.216  44.516  53.667  1.00  0.00     0.142 A 
HETATM   15  N   UNL     1      28.226  43.575  53.543  1.00  0.00    -0.224 NA
HETATM   16  C   UNL     1      29.044  43.786  54.550  1.00  0.00     0.134 A 
HETATM   17  C   UNL     1      30.239  43.125  54.949  1.00  0.00     0.052 A 
HETATM   18  N   UNL     1      28.615  44.846  55.338  1.00  0.00    -0.314 N 
HETATM   19  C   UNL     1      30.907  43.556  56.037  1.00  0.00     0.022 A 
HETATM   20  C   UNL     1      30.447  44.702  56.822  1.00  0.00     0.047 A 
HETATM   21  C   UNL     1      29.297  45.307  56.461  1.00  0.00     0.115 A 
HETATM   22  C   UNL     1      27.449  45.299  54.787  1.00  0.00     0.135 A 
BRANCH  20  23
HETATM   23  C   UNL     1      31.218  45.131  58.025  1.00  0.00     0.250 C 
HETATM   24  N   UNL     1      30.900  46.349  58.543  1.00  0.00    -0.366 N 
HETATM   25  H   UNL     1      31.480  46.684  59.301  1.00  0.00     0.159 HD
HETATM   26  H   UNL     1      30.304  47.012  58.071  1.00  0.00     0.159 HD
HETATM   27  O   UNL     1      32.126  44.457  58.496  1.00  0.00    -0.268 OA
ENDBRANCH  20  23
ENDBRANCH   9  14
ENDBRANCH   1   7
BRANCH   5  28
HETATM   28  C   UNL     1      21.832  47.643  48.566  1.00  0.00     0.257 C 
HETATM   29  O   UNL     1      21.555  47.259  47.439  1.00  0.00    -0.267 OA
HETATM   30  N   UNL     1      21.057  48.388  49.421  1.00  0.00    -0.301 N 
HETATM   31  H   UNL     1      21.436  48.746  50.284  1.00  0.00     0.171 HD
BRANCH  30  32
HETATM   32  C   UNL     1      19.755  48.702  49.155  1.00  0.00     0.174 A 
HETATM   33  N   UNL     1      19.185  49.870  49.001  1.00  0.00    -0.228 NA
HETATM   34  C   UNL     1      17.863  49.686  48.660  1.00  0.00     0.050 A 
HETATM   35  C   UNL     1      16.980  50.840  48.340  1.00  0.00     0.062 C 
HETATM   36  C   UNL     1      17.470  48.370  48.547  1.00  0.00     0.013 A 
HETATM   37  C   UNL     1      15.565  50.403  47.906  1.00  0.00     0.031 C 
HETATM   38  C   UNL     1      15.450  49.004  47.221  1.00  0.00     0.084 C 
HETATM   39  C   UNL     1      16.120  47.923  48.123  1.00  0.00     0.073 C 
HETATM   40  S   UNL     1      18.754  47.329  48.943  1.00  0.00    -0.055 SA
BRANCH  38  41
HETATM   41  N   UNL     1      15.717  48.977  45.770  1.00  0.00    -0.404 N 
HETATM   42  C   UNL     1      16.974  49.486  45.214  1.00  0.00     0.143 C 
HETATM   43  C   UNL     1      18.065  48.423  45.017  1.00  0.00     0.187 C 
HETATM   44  O   UNL     1      17.581  47.335  44.217  1.00  0.00    -0.388 OA
HETATM   45  C   UNL     1      16.434  46.737  44.830  1.00  0.00     0.187 C 
HETATM   46  C   UNL     1      15.303  47.760  45.049  1.00  0.00     0.143 C 
ENDBRANCH  38  41
ENDBRANCH  30  32
ENDBRANCH   5  28
TORSDOF 6
ENDMDL
MODEL 6
REMARK VINA RESULT:     -10.3      2.157      3.097
REMARK  6 active torsions:
REMARK  status: ('A' for Active; 'I' for Inactive)
REMARK       I    between atoms: N_1  and  C_2 
REMARK    1  A    between atoms: C_2  and  C_4 
REMARK    2  A    between atoms: C_9  and  C_13 
REMARK       I    between atoms: C_13  and  N_15 
REMARK    3  A    between atoms: C_19  and  C_20 
REMARK    4  A    between atoms: C_24  and  C_26 
REMARK       I    between atoms: C_26  and  N_28 
REMARK    5  A    between atoms: N_28  and  C_29 
REMARK    6  A    between atoms: C_34  and  N_38 
ROOT
HETATM    1  C   UNL     1      24.002  43.026  48.534  1.00  0.00    -0.034 A 
HETATM    2  C   UNL     1      23.611  42.552  47.269  1.00  0.00     0.009 A 
HETATM    3  C   UNL     1      22.887  43.360  46.390  1.00  0.00     0.002 A 
HETATM    4  C   UNL     1      22.532  44.655  46.763  1.00  0.00     0.017 A 
HETATM    5  C   UNL     1      22.907  45.139  48.021  1.00  0.00     0.033 A 
HETATM    6  C   UNL     1      23.656  44.339  48.891  1.00  0.00     0.026 A 
ENDROOT
BRANCH   1   7
HETATM    7  C   UNL     1      24.789  42.109  49.457  1.00  0.00     0.120 C 
HETATM    8  N   UNL     1      25.643  42.820  50.402  1.00  0.00    -0.338 N 
HETATM    9  C   UNL     1      25.099  43.470  51.501  1.00  0.00     0.274 C 
HETATM   10  C   UNL     1      27.053  42.634  50.092  1.00  0.00     0.127 C 
HETATM   11  O   UNL     1      23.879  43.530  51.669  1.00  0.00    -0.266 OA
HETATM   12  C   UNL     1      27.071  41.983  48.715  1.00  0.00     0.022 C 
HETATM   13  C   UNL     1      25.760  41.208  48.685  1.00  0.00     0.032 C 
BRANCH   9  14
HETATM   14  C   UNL     1      26.008  44.109  52.466  1.00  0.00     0.142 A 
HETATM   15  N   UNL     1      25.972  45.435  52.871  1.00  0.00    -0.224 NA
HETATM   16  C   UNL     1      26.967  45.582  53.718  1.00  0.00     0.134 A 
HETATM   17  C   UNL     1      27.430  46.717  54.439  1.00  0.00     0.052 A 
HETATM   18  N   UNL     1      27.660  44.393  53.898  1.00  0.00    -0.314 N 
HETATM   19  C   UNL     1      28.486  46.594  55.268  1.00  0.00     0.022 A 
HETATM   20  C   UNL     1      29.170  45.314  55.463  1.00  0.00     0.047 A 
HETATM   21  C   UNL     1      28.748  44.248  54.754  1.00  0.00     0.115 A 
HETATM   22  C   UNL     1      27.063  43.463  53.093  1.00  0.00     0.135 A 
BRANCH  20  23
HETATM   23  C   UNL     1      30.341  45.236  56.383  1.00  0.00     0.250 C 
HETATM   24  N   UNL     1      31.214  44.215  56.162  1.00  0.00    -0.366 N 
HETATM   25  H   UNL     1      31.959  44.101  56.838  1.00  0.00     0.159 HD
HETATM   26  H   UNL     1      31.023  43.450  55.533  1.00  0.00     0.159 HD
HETATM   27  O   UNL     1      30.490  46.007  57.322  1.00  0.00    -0.268 OA
ENDBRANCH  20  23
ENDBRANCH   9  14
ENDBRANCH   1   7
BRANCH   5  28
HETATM   28  C   UNL     1      22.528  46.507  48.464  1.00  0.00     0.257 C 
HETATM   29  O   UNL     1      23.399  47.232  48.926  1.00  0.00    -0.267 OA
HETATM   30  N   UNL     1      21.189  46.777  48.324  1.00  0.00    -0.301 N 
HETATM   31  H   UNL     1      20.544  46.057  48.037  1.00  0.00     0.171 HD
BRANCH  30  32
HETATM   32  C   UNL     1      20.652  48.006  48.578  1.00  0.00     0.174 A 
HETATM   33  N   UNL     1      21.023  49.190  48.160  1.00  0.00    -0.228 NA
HETATM   34  C   UNL     1      20.121  50.130  48.608  1.00  0.00     0.050 A 
HETATM   35  C   UNL     1      20.241  51.562  48.219  1.00  0.00     0.062 C 
HETATM   36  C   UNL     1      19.073  49.625  49.346  1.00  0.00     0.013 A 
HETATM   37  C   UNL     1      19.082  52.424  48.765  1.00  0.00     0.031 C 
HETATM   38  C   UNL     1      17.720  51.694  48.990  1.00  0.00     0.084 C 
HETATM   39  C   UNL     1      17.944  50.430  49.874  1.00  0.00     0.073 C 
HETATM   40  S   UNL     1      19.244  47.946  49.551  1.00  0.00    -0.055 SA
BRANCH  38  41
HETATM   41  N   UNL     1      16.849  51.582  47.805  1.00  0.00    -0.404 N 
HETATM   42  C   UNL     1      17.406  51.543  46.449  1.00  0.00     0.143 C 
HETATM   43  C   UNL     1      17.645  50.131  45.895  1.00  0.00     0.187 C 
HETATM   44  O   UNL     1      16.446  49.346  45.955  1.00  0.00    -0.388 OA
HETATM   45  C   UNL     1      15.975  49.258  47.304  1.00  0.00     0.187 C 
HETATM   46  C   UNL     1      15.713  50.650  47.910  1.00  0.00     0.143 C 
ENDBRANCH  38  41
ENDBRANCH  30  32
ENDBRANCH   5  28
TORSDOF 6
ENDMDL
MODEL 7
REMARK VINA RESULT:     -10.0     15.051     17.413
REMARK  6 active torsions:
REMARK  status: ('A' for Active; 'I' for Inactive)
REMARK       I    between atoms: N_1  and  C_2 
REMARK    1  A    between atoms: C_2  and  C_4 
REMARK    2  A    between atoms: C_9  and  C_13 
REMARK       I    between atoms: C_13  and  N_15 
REMARK    3  A    between atoms: C_19  and  C_20 
REMARK    4  A    between atoms: C_24  and  C_26 
REMARK       I    between atoms: C_26  and  N_28 
REMARK    5  A    between atoms: N_28  and  C_29 
REMARK    6  A    between atoms: C_34  and  N_38 
ROOT
HETATM    1  C   UNL     1      38.075  52.794  44.479  1.00  0.00    -0.034 A 
HETATM    2  C   UNL     1      38.763  52.369  43.328  1.00  0.00     0.009 A 
HETATM    3  C   UNL     1      38.078  51.817  42.243  1.00  0.00     0.002 A 
HETATM    4  C   UNL     1      36.693  51.672  42.292  1.00  0.00     0.017 A 
HETATM    5  C   UNL     1      35.995  52.083  43.434  1.00  0.00     0.033 A 
HETATM    6  C   UNL     1      36.677  52.660  44.509  1.00  0.00     0.026 A 
ENDROOT
BRANCH   1   7
HETATM    7  C   UNL     1      38.864  53.387  45.636  1.00  0.00     0.120 C 
HETATM    8  N   UNL     1      39.464  54.681  45.334  1.00  0.00    -0.338 N 
HETATM    9  C   UNL     1      38.685  55.828  45.269  1.00  0.00     0.274 C 
HETATM   10  C   UNL     1      40.915  54.591  45.248  1.00  0.00     0.127 C 
HETATM   11  O   UNL     1      37.460  55.775  45.390  1.00  0.00    -0.266 OA
HETATM   12  C   UNL     1      41.216  53.098  45.237  1.00  0.00     0.022 C 
HETATM   13  C   UNL     1      40.058  52.507  46.030  1.00  0.00     0.032 C 
BRANCH   9  14
HETATM   14  C   UNL     1      39.348  57.121  45.036  1.00  0.00     0.142 A 
HETATM   15  N   UNL     1      40.161  57.442  43.959  1.00  0.00    -0.224 NA
HETATM   16  C   UNL     1      40.553  58.682  44.158  1.00  0.00     0.134 A 
HETATM   17  C   UNL     1      41.406  59.533  43.402  1.00  0.00     0.052 A 
HETATM   18  N   UNL     1      40.018  59.200  45.330  1.00  0.00    -0.314 N 
HETATM   19  C   UNL     1      41.640  60.789  43.830  1.00  0.00     0.022 A 
HETATM   20  C   UNL     1      41.028  61.317  45.051  1.00  0.00     0.047 A 
HETATM   21  C   UNL     1      40.246  60.497  45.781  1.00  0.00     0.115 A 
HETATM   22  C   UNL     1      39.267  58.207  45.894  1.00  0.00     0.135 A 
BRANCH  20  23
HETATM   23  C   UNL     1      41.331  62.712  45.485  1.00  0.00     0.250 C 
HETATM   24  N   UNL     1      42.137  62.843  46.574  1.00  0.00    -0.366 N 
HETATM   25  H   UNL     1      42.271  63.781  46.928  1.00  0.00     0.159 HD
HETATM   26  H   UNL     1      42.393  62.069  47.169  1.00  0.00     0.159 HD
HETATM   27  O   UNL     1      40.844  63.690  44.933  1.00  0.00    -0.268 OA
ENDBRANCH  20  23
ENDBRANCH   9  14
ENDBRANCH   1   7
BRANCH   5  28
HETATM   28  C   UNL     1      34.519  51.925  43.533  1.00  0.00     0.257 C 
HETATM   29  O   UNL     1      33.997  52.011  44.635  1.00  0.00    -0.267 OA
HETATM   30  N   UNL     1      33.915  51.655  42.329  1.00  0.00    -0.301 N 
HETATM   31  H   UNL     1      34.465  51.492  41.500  1.00  0.00     0.171 HD
BRANCH  30  32
HETATM   32  C   UNL     1      32.561  51.573  42.184  1.00  0.00     0.174 A 
HETATM   33  N   UNL     1      31.679  52.514  41.958  1.00  0.00    -0.228 NA
HETATM   34  C   UNL     1      30.437  51.940  41.800  1.00  0.00     0.050 A 
HETATM   35  C   UNL     1      29.246  52.762  41.449  1.00  0.00     0.062 C 
HETATM   36  C   UNL     1      30.414  50.566  41.895  1.00  0.00     0.013 A 
HETATM   37  C   UNL     1      27.976  51.908  41.242  1.00  0.00     0.031 C 
HETATM   38  C   UNL     1      28.198  50.443  40.750  1.00  0.00     0.084 C 
HETATM   39  C   UNL     1      29.211  49.722  41.691  1.00  0.00     0.073 C 
HETATM   40  S   UNL     1      31.964  49.969  42.259  1.00  0.00    -0.055 SA
BRANCH  38  41
HETATM   41  N   UNL     1      28.343  50.271  39.291  1.00  0.00    -0.404 N 
HETATM   42  C   UNL     1      27.983  51.342  38.357  1.00  0.00     0.143 C 
HETATM   43  C   UNL     1      29.146  52.256  37.949  1.00  0.00     0.187 C 
HETATM   44  O   UNL     1      30.239  51.491  37.420  1.00  0.00    -0.388 OA
HETATM   45  C   UNL     1      30.693  50.537  38.386  1.00  0.00     0.187 C 
HETATM   46  C   UNL     1      29.564  49.588  38.829  1.00  0.00     0.143 C 
ENDBRANCH  38  41
ENDBRANCH  30  32
ENDBRANCH   5  28
TORSDOF 6
ENDMDL
MODEL 8
REMARK VINA RESULT:     -10.0     14.238     16.049
REMARK  6 active torsions:
REMARK  status: ('A' for Active; 'I' for Inactive)
REMARK       I    between atoms: N_1  and  C_2 
REMARK    1  A    between atoms: C_2  and  C_4 
REMARK    2  A    between atoms: C_9  and  C_13 
REMARK       I    between atoms: C_13  and  N_15 
REMARK    3  A    between atoms: C_19  and  C_20 
REMARK    4  A    between atoms: C_24  and  C_26 
REMARK       I    between atoms: C_26  and  N_28 
REMARK    5  A    between atoms: N_28  and  C_29 
REMARK    6  A    between atoms: C_34  and  N_38 
ROOT
HETATM    1  C   UNL     1      38.068  53.125  44.182  1.00  0.00    -0.034 A 
HETATM    2  C   UNL     1      38.784  52.425  43.194  1.00  0.00     0.009 A 
HETATM    3  C   UNL     1      38.130  51.580  42.295  1.00  0.00     0.002 A 
HETATM    4  C   UNL     1      36.749  51.411  42.373  1.00  0.00     0.017 A 
HETATM    5  C   UNL     1      36.023  52.095  43.356  1.00  0.00     0.033 A 
HETATM    6  C   UNL     1      36.675  52.962  44.239  1.00  0.00     0.026 A 
ENDROOT
BRANCH   1   7
HETATM    7  C   UNL     1      38.825  54.033  45.140  1.00  0.00     0.120 C 
HETATM    8  N   UNL     1      39.912  53.365  45.846  1.00  0.00    -0.338 N 
HETATM    9  C   UNL     1      41.097  53.054  45.194  1.00  0.00     0.274 C 
HETATM   10  C   UNL     1      39.615  53.212  47.263  1.00  0.00     0.127 C 
HETATM   11  O   UNL     1      41.237  53.264  43.987  1.00  0.00    -0.266 OA
HETATM   12  C   UNL     1      38.141  53.571  47.396  1.00  0.00     0.022 C 
HETATM   13  C   UNL     1      37.925  54.564  46.262  1.00  0.00     0.032 C 
BRANCH   9  14
HETATM   14  C   UNL     1      42.193  52.448  45.969  1.00  0.00     0.142 A 
HETATM   15  N   UNL     1      42.960  53.082  46.934  1.00  0.00    -0.224 NA
HETATM   16  C   UNL     1      43.828  52.186  47.352  1.00  0.00     0.134 A 
HETATM   17  C   UNL     1      44.873  52.263  48.314  1.00  0.00     0.052 A 
HETATM   18  N   UNL     1      43.656  50.971  46.701  1.00  0.00    -0.314 N 
HETATM   19  C   UNL     1      45.624  51.173  48.568  1.00  0.00     0.022 A 
HETATM   20  C   UNL     1      45.390  49.897  47.891  1.00  0.00     0.047 A 
HETATM   21  C   UNL     1      44.420  49.836  46.957  1.00  0.00     0.115 A 
HETATM   22  C   UNL     1      42.630  51.142  45.813  1.00  0.00     0.135 A 
BRANCH  20  23
HETATM   23  C   UNL     1      46.260  48.726  48.202  1.00  0.00     0.250 C 
HETATM   24  N   UNL     1      46.063  48.133  49.411  1.00  0.00    -0.366 N 
HETATM   25  H   UNL     1      46.710  47.397  49.666  1.00  0.00     0.159 HD
HETATM   26  H   UNL     1      45.491  48.535  50.139  1.00  0.00     0.159 HD
HETATM   27  O   UNL     1      47.142  48.345  47.443  1.00  0.00    -0.268 OA
ENDBRANCH  20  23
ENDBRANCH   9  14
ENDBRANCH   1   7
BRANCH   5  28
HETATM   28  C   UNL     1      34.552  51.924  43.485  1.00  0.00     0.257 C 
HETATM   29  O   UNL     1      34.052  52.005  44.598  1.00  0.00    -0.267 OA
HETATM   30  N   UNL     1      33.925  51.650  42.294  1.00  0.00    -0.301 N 
HETATM   31  H   UNL     1      34.459  51.492  41.453  1.00  0.00     0.171 HD
BRANCH  30  32
HETATM   32  C   UNL     1      32.569  51.557  42.176  1.00  0.00     0.174 A 
HETATM   33  N   UNL     1      31.675  52.491  41.968  1.00  0.00    -0.228 NA
HETATM   34  C   UNL     1      30.435  51.907  41.836  1.00  0.00     0.050 A 
HETATM   35  C   UNL     1      29.230  52.719  41.510  1.00  0.00     0.062 C 
HETATM   36  C   UNL     1      30.425  50.533  41.932  1.00  0.00     0.013 A 
HETATM   37  C   UNL     1      27.964  51.855  41.329  1.00  0.00     0.031 C 
HETATM   38  C   UNL     1      28.187  50.391  40.833  1.00  0.00     0.084 C 
HETATM   39  C   UNL     1      29.224  49.680  41.753  1.00  0.00     0.073 C 
HETATM   40  S   UNL     1      31.986  49.948  42.264  1.00  0.00    -0.055 SA
BRANCH  38  41
HETATM   41  N   UNL     1      28.303  50.220  39.371  1.00  0.00    -0.404 N 
HETATM   42  C   UNL     1      27.862  51.265  38.443  1.00  0.00     0.143 C 
HETATM   43  C   UNL     1      28.965  52.238  38.002  1.00  0.00     0.187 C 
HETATM   44  O   UNL     1      30.082  51.530  37.447  1.00  0.00    -0.388 OA
HETATM   45  C   UNL     1      30.612  50.607  38.405  1.00  0.00     0.187 C 
HETATM   46  C   UNL     1      29.546  49.601  38.880  1.00  0.00     0.143 C 
ENDBRANCH  38  41
ENDBRANCH  30  32
ENDBRANCH   5  28
TORSDOF 6
ENDMDL
MODEL 9
REMARK VINA RESULT:      -9.9      6.023     10.959
REMARK  6 active torsions:
REMARK  status: ('A' for Active; 'I' for Inactive)
REMARK       I    between atoms: N_1  and  C_2 
REMARK    1  A    between atoms: C_2  and  C_4 
REMARK    2  A    between atoms: C_9  and  C_13 
REMARK       I    between atoms: C_13  and  N_15 
REMARK    3  A    between atoms: C_19  and  C_20 
REMARK    4  A    between atoms: C_24  and  C_26 
REMARK       I    between atoms: C_26  and  N_28 
REMARK    5  A    between atoms: N_28  and  C_29 
REMARK    6  A    between atoms: C_34  and  N_38 
ROOT
HETATM    1  C   UNL     1      15.654  51.386  47.973  1.00  0.00    -0.034 A 
HETATM    2  C   UNL     1      15.619  51.642  46.591  1.00  0.00     0.009 A 
HETATM    3  C   UNL     1      15.123  52.848  46.094  1.00  0.00     0.002 A 
HETATM    4  C   UNL     1      14.643  53.819  46.971  1.00  0.00     0.017 A 
HETATM    5  C   UNL     1      14.664  53.577  48.349  1.00  0.00     0.033 A 
HETATM    6  C   UNL     1      15.186  52.380  48.848  1.00  0.00     0.026 A 
ENDROOT
BRANCH   1   7
HETATM    7  C   UNL     1      16.204  50.056  48.466  1.00  0.00     0.120 C 
HETATM    8  N   UNL     1      17.647  49.923  48.308  1.00  0.00    -0.338 N 
HETATM    9  C   UNL     1      18.519  50.602  49.148  1.00  0.00     0.274 C 
HETATM   10  C   UNL     1      17.985  48.938  47.291  1.00  0.00     0.127 C 
HETATM   11  O   UNL     1      18.104  51.391  49.998  1.00  0.00    -0.266 OA
HETATM   12  C   UNL     1      16.669  48.631  46.588  1.00  0.00     0.022 C 
HETATM   13  C   UNL     1      15.633  48.870  47.680  1.00  0.00     0.032 C 
BRANCH   9  14
HETATM   14  C   UNL     1      19.966  50.376  48.997  1.00  0.00     0.142 A 
HETATM   15  N   UNL     1      20.851  51.179  48.293  1.00  0.00    -0.224 NA
HETATM   16  C   UNL     1      22.028  50.602  48.401  1.00  0.00     0.134 A 
HETATM   17  C   UNL     1      23.302  50.956  47.877  1.00  0.00     0.052 A 
HETATM   18  N   UNL     1      21.957  49.443  49.162  1.00  0.00    -0.314 N 
HETATM   19  C   UNL     1      24.372  50.183  48.151  1.00  0.00     0.022 A 
HETATM   20  C   UNL     1      24.268  48.988  48.990  1.00  0.00     0.047 A 
HETATM   21  C   UNL     1      23.053  48.639  49.459  1.00  0.00     0.115 A 
HETATM   22  C   UNL     1      20.648  49.291  49.527  1.00  0.00     0.135 A 
BRANCH  20  23
HETATM   23  C   UNL     1      25.482  48.162  49.252  1.00  0.00     0.250 C 
HETATM   24  N   UNL     1      25.309  47.074  50.052  1.00  0.00    -0.366 N 
HETATM   25  H   UNL     1      26.145  46.563  50.308  1.00  0.00     0.159 HD
HETATM   26  H   UNL     1      24.467  46.904  50.581  1.00  0.00     0.159 HD
HETATM   27  O   UNL     1      26.587  48.467  48.823  1.00  0.00    -0.268 OA
ENDBRANCH  20  23
ENDBRANCH   9  14
ENDBRANCH   1   7
BRANCH   5  28
HETATM   28  C   UNL     1      14.140  54.580  49.315  1.00  0.00     0.257 C 
HETATM   29  O   UNL     1      13.473  54.185  50.261  1.00  0.00    -0.267 OA
HETATM   30  N   UNL     1      14.457  55.875  48.986  1.00  0.00    -0.301 N 
HETATM   31  H   UNL     1      14.917  56.090  48.115  1.00  0.00     0.171 HD
BRANCH  30  32
HETATM   32  C   UNL     1      14.159  56.937  49.791  1.00  0.00     0.174 A 
HETATM   33  N   UNL     1      13.156  57.776  49.741  1.00  0.00    -0.228 NA
HETATM   34  C   UNL     1      13.229  58.632  50.818  1.00  0.00     0.050 A 
HETATM   35  C   UNL     1      12.171  59.648  51.070  1.00  0.00     0.062 C 
HETATM   36  C   UNL     1      14.287  58.403  51.671  1.00  0.00     0.013 A 
HETATM   37  C   UNL     1      12.410  60.443  52.371  1.00  0.00     0.031 C 
HETATM   38  C   UNL     1      13.194  59.704  53.502  1.00  0.00     0.084 C 
HETATM   39  C   UNL     1      14.533  59.146  52.932  1.00  0.00     0.073 C 
HETATM   40  S   UNL     1      15.259  57.137  51.088  1.00  0.00    -0.055 SA
BRANCH  38  41
HETATM   41  N   UNL     1      12.385  58.838  54.382  1.00  0.00    -0.404 N 
HETATM   42  C   UNL     1      12.928  57.596  54.940  1.00  0.00     0.143 C 
HETATM   43  C   UNL     1      13.548  57.738  56.338  1.00  0.00     0.187 C 
HETATM   44  O   UNL     1      12.613  58.320  57.257  1.00  0.00    -0.388 OA
HETATM   45  C   UNL     1      12.187  59.604  56.788  1.00  0.00     0.187 C 
HETATM   46  C   UNL     1      11.551  59.520  55.387  1.00  0.00     0.143 C 
ENDBRANCH  38  41
ENDBRANCH  30  32
ENDBRANCH   5  28
TORSDOF 6
ENDMDL
MODEL 10
REMARK VINA RESULT:      -9.8      2.746      3.974
REMARK  6 active torsions:
REMARK  status: ('A' for Active; 'I' for Inactive)
REMARK       I    between atoms: N_1  and  C_2 
REMARK    1  A    between atoms: C_2  and  C_4 
REMARK    2  A    between atoms: C_9  and  C_13 
REMARK       I    between atoms: C_13  and  N_15 
REMARK    3  A    between atoms: C_19  and  C_20 
REMARK    4  A    between atoms: C_24  and  C_26 
REMARK       I    between atoms: C_26  and  N_28 
REMARK    5  A    between atoms: N_28  and  C_29 
REMARK    6  A    between atoms: C_34  and  N_38 
ROOT
HETATM    1  C   UNL     1      24.550  41.794  47.492  1.00  0.00    -0.034 A 
HETATM    2  C   UNL     1      24.141  41.526  46.173  1.00  0.00     0.009 A 
HETATM    3  C   UNL     1      23.333  42.425  45.474  1.00  0.00     0.002 A 
HETATM    4  C   UNL     1      22.911  43.605  46.084  1.00  0.00     0.017 A 
HETATM    5  C   UNL     1      23.304  43.882  47.399  1.00  0.00     0.033 A 
HETATM    6  C   UNL     1      24.135  42.995  48.089  1.00  0.00     0.026 A 
ENDROOT
BRANCH   1   7
HETATM    7  C   UNL     1      25.428  40.783  48.213  1.00  0.00     0.120 C 
HETATM    8  N   UNL     1      26.262  41.370  49.257  1.00  0.00    -0.338 N 
HETATM    9  C   UNL     1      25.711  41.765  50.468  1.00  0.00     0.274 C 
HETATM   10  C   UNL     1      27.670  41.350  48.890  1.00  0.00     0.127 C 
HETATM   11  O   UNL     1      24.496  41.702  50.668  1.00  0.00    -0.266 OA
HETATM   12  C   UNL     1      27.688  40.966  47.416  1.00  0.00     0.022 C 
HETATM   13  C   UNL     1      26.434  40.114  47.268  1.00  0.00     0.032 C 
BRANCH   9  14
HETATM   14  C   UNL     1      26.605  42.282  51.517  1.00  0.00     0.142 A 
HETATM   15  N   UNL     1      27.623  41.579  52.143  1.00  0.00    -0.224 NA
HETATM   16  C   UNL     1      28.148  42.408  53.020  1.00  0.00     0.134 A 
HETATM   17  C   UNL     1      29.206  42.243  53.957  1.00  0.00     0.052 A 
HETATM   18  N   UNL     1      27.517  43.644  52.990  1.00  0.00    -0.314 N 
HETATM   19  C   UNL     1      29.562  43.275  54.746  1.00  0.00     0.022 A 
HETATM   20  C   UNL     1      28.900  44.578  54.662  1.00  0.00     0.047 A 
HETATM   21  C   UNL     1      27.877  44.721  53.795  1.00  0.00     0.115 A 
HETATM   22  C   UNL     1      26.529  43.559  52.049  1.00  0.00     0.135 A 
BRANCH  20  23
HETATM   23  C   UNL     1      29.326  45.683  55.568  1.00  0.00     0.250 C 
HETATM   24  N   UNL     1      30.451  45.462  56.301  1.00  0.00    -0.366 N 
HETATM   25  H   UNL     1      30.693  46.168  56.985  1.00  0.00     0.159 HD
HETATM   26  H   UNL     1      30.896  44.558  56.374  1.00  0.00     0.159 HD
HETATM   27  O   UNL     1      28.678  46.714  55.694  1.00  0.00    -0.268 OA
ENDBRANCH  20  23
ENDBRANCH   9  14
ENDBRANCH   1   7
BRANCH   5  28
HETATM   28  C   UNL     1      22.856  45.120  48.091  1.00  0.00     0.257 C 
HETATM   29  O   UNL     1      23.221  45.307  49.243  1.00  0.00    -0.267 OA
HETATM   30  N   UNL     1      22.027  45.905  47.328  1.00  0.00    -0.301 N 
HETATM   31  H   UNL     1      21.700  45.590  46.428  1.00  0.00     0.171 HD
BRANCH  30  32
HETATM   32  C   UNL     1      21.586  47.130  47.737  1.00  0.00     0.174 A 
HETATM   33  N   UNL     1      22.090  48.320  47.530  1.00  0.00    -0.228 NA
HETATM   34  C   UNL     1      21.247  49.268  48.066  1.00  0.00     0.050 A 
HETATM   35  C   UNL     1      21.522  50.723  47.910  1.00  0.00     0.062 C 
HETATM   36  C   UNL     1      20.107  48.766  48.656  1.00  0.00     0.013 A 
HETATM   37  C   UNL     1      20.410  51.605  48.516  1.00  0.00     0.031 C 
HETATM   38  C   UNL     1      18.975  50.989  48.547  1.00  0.00     0.084 C 
HETATM   39  C   UNL     1      19.020  49.592  49.236  1.00  0.00     0.073 C 
HETATM   40  S   UNL     1      20.112  47.067  48.608  1.00  0.00    -0.055 SA
BRANCH  38  41
HETATM   41  N   UNL     1      18.185  51.142  47.311  1.00  0.00    -0.404 N 
HETATM   42  C   UNL     1      17.937  50.007  46.417  1.00  0.00     0.143 C 
HETATM   43  C   UNL     1      16.620  49.262  46.676  1.00  0.00     0.187 C 
HETATM   44  O   UNL     1      15.505  50.164  46.642  1.00  0.00    -0.388 OA
HETATM   45  C   UNL     1      15.671  51.199  47.617  1.00  0.00     0.187 C 
HETATM   46  C   UNL     1      16.979  51.984  47.402  1.00  0.00     0.143 C 
ENDBRANCH  38  41
ENDBRANCH  30  32
ENDBRANCH   5  28
TORSDOF 6
ENDMDL
