MODEL 1
REMARK VINA RESULT:      -8.2      0.000      0.000
REMARK  5 active torsions:
REMARK  status: ('A' for Active; 'I' for Inactive)
REMARK    1  A    between atoms: C_4  and  C_5 
REMARK       I    between atoms: C_5  and  N_6 
REMARK    2  A    between atoms: N_6  and  C_7 
REMARK    3  A    between atoms: C_7  and  C_8 
REMARK    4  A    between atoms: C_8  and  C_9 
REMARK    5  A    between atoms: C_18  and  O_19 
ROOT
HETATM    1  C   UNL     1      26.641  46.128  53.837  1.00  0.00     0.254 C 
HETATM    2  N   UNL     1      26.585  46.310  52.476  1.00  0.00    -0.356 N 
HETATM    3  O   UNL     1      25.743  46.503  54.586  1.00  0.00    -0.268 OA
HETATM    4  H   UNL     1      27.298  45.840  51.920  1.00  0.00     0.162 HD
ENDROOT
BRANCH   2   5
HETATM    5  C   UNL     1      25.402  46.834  51.821  1.00  0.00     0.136 C 
BRANCH   5   6
HETATM    6  C   UNL     1      25.406  46.641  50.276  1.00  0.00    -0.004 C 
HETATM    7  C   UNL     1      26.443  45.547  49.928  1.00  0.00     0.021 C 
HETATM    8  C   UNL     1      24.017  46.098  49.862  1.00  0.00     0.021 C 
BRANCH   6   9
HETATM    9  C   UNL     1      25.806  47.936  49.544  1.00  0.00    -0.046 A 
HETATM   10  C   UNL     1      27.152  48.330  49.473  1.00  0.00     0.027 A 
HETATM   11  C   UNL     1      27.490  49.503  48.813  1.00  0.00     0.116 A 
HETATM   12  N   UNL     1      26.596  50.312  48.212  1.00  0.00    -0.273 NA
HETATM   13  C   UNL     1      25.308  49.921  48.270  1.00  0.00     0.116 A 
HETATM   14  C   UNL     1      24.872  48.768  48.910  1.00  0.00     0.027 A 
ENDBRANCH   6   9
ENDBRANCH   5   6
ENDBRANCH   2   5
BRANCH   1  15
HETATM   15  C   UNL     1      27.851  45.433  54.385  1.00  0.00     0.065 A 
HETATM   16  C   UNL     1      28.359  44.355  53.638  1.00  0.00     0.026 A 
HETATM   17  C   UNL     1      29.484  43.637  54.068  1.00  0.00    -0.061 A 
HETATM   18  C   UNL     1      30.031  42.505  53.250  1.00  0.00     0.048 C 
HETATM   19  C   UNL     1      30.114  44.011  55.258  1.00  0.00     0.009 A 
HETATM   20  C   UNL     1      29.626  45.081  56.011  1.00  0.00     0.038 A 
HETATM   21  C   UNL     1      28.503  45.791  55.576  1.00  0.00     0.081 A 
BRANCH  21  22
HETATM   22  O   UNL     1      28.062  46.846  56.334  1.00  0.00    -0.360 OA
HETATM   23  H   UNL     1      27.136  46.687  56.588  1.00  0.00     0.217 HD
ENDBRANCH  21  22
ENDBRANCH   1  15
TORSDOF 5
ENDMDL
MODEL 2
REMARK VINA RESULT:      -8.1      0.964      2.156
REMARK  5 active torsions:
REMARK  status: ('A' for Active; 'I' for Inactive)
REMARK    1  A    between atoms: C_4  and  C_5 
REMARK       I    between atoms: C_5  and  N_6 
REMARK    2  A    between atoms: N_6  and  C_7 
REMARK    3  A    between atoms: C_7  and  C_8 
REMARK    4  A    between atoms: C_8  and  C_9 
REMARK    5  A    between atoms: C_18  and  O_19 
ROOT
HETATM    1  C   UNL     1      26.627  46.090  53.842  1.00  0.00     0.254 C 
HETATM    2  N   UNL     1      26.601  46.348  52.492  1.00  0.00    -0.356 N 
HETATM    3  O   UNL     1      25.704  46.404  54.588  1.00  0.00    -0.268 OA
HETATM    4  H   UNL     1      27.337  45.925  51.930  1.00  0.00     0.162 HD
ENDROOT
BRANCH   2   5
HETATM    5  C   UNL     1      25.424  46.885  51.838  1.00  0.00     0.136 C 
BRANCH   5   6
HETATM    6  C   UNL     1      25.416  46.674  50.295  1.00  0.00    -0.004 C 
HETATM    7  C   UNL     1      26.427  45.554  49.955  1.00  0.00     0.021 C 
HETATM    8  C   UNL     1      24.014  46.158  49.894  1.00  0.00     0.021 C 
BRANCH   6   9
HETATM    9  C   UNL     1      25.841  47.952  49.547  1.00  0.00    -0.046 A 
HETATM   10  C   UNL     1      24.882  48.763  48.918  1.00  0.00     0.027 A 
HETATM   11  C   UNL     1      25.286  49.908  48.244  1.00  0.00     0.116 A 
HETATM   12  N   UNL     1      26.568  50.312  48.152  1.00  0.00    -0.273 NA
HETATM   13  C   UNL     1      27.482  49.538  48.769  1.00  0.00     0.116 A 
HETATM   14  C   UNL     1      27.175  48.374  49.463  1.00  0.00     0.027 A 
ENDBRANCH   6   9
ENDBRANCH   5   6
ENDBRANCH   2   5
BRANCH   1  15
HETATM   15  C   UNL     1      27.838  45.389  54.381  1.00  0.00     0.065 A 
HETATM   16  C   UNL     1      28.405  45.913  55.556  1.00  0.00     0.026 A 
HETATM   17  C   UNL     1      29.542  45.332  56.139  1.00  0.00    -0.061 A 
HETATM   18  C   UNL     1      30.124  45.886  57.404  1.00  0.00     0.048 C 
HETATM   19  C   UNL     1      30.109  44.204  55.539  1.00  0.00     0.009 A 
HETATM   20  C   UNL     1      29.556  43.666  54.376  1.00  0.00     0.038 A 
HETATM   21  C   UNL     1      28.424  44.253  53.801  1.00  0.00     0.081 A 
BRANCH  21  22
HETATM   22  O   UNL     1      27.900  43.688  52.666  1.00  0.00    -0.360 OA
HETATM   23  H   UNL     1      28.561  43.088  52.277  1.00  0.00     0.217 HD
ENDBRANCH  21  22
ENDBRANCH   1  15
TORSDOF 5
ENDMDL
MODEL 3
REMARK VINA RESULT:      -7.8      2.139      3.294
REMARK  5 active torsions:
REMARK  status: ('A' for Active; 'I' for Inactive)
REMARK    1  A    between atoms: C_4  and  C_5 
REMARK       I    between atoms: C_5  and  N_6 
REMARK    2  A    between atoms: N_6  and  C_7 
REMARK    3  A    between atoms: C_7  and  C_8 
REMARK    4  A    between atoms: C_8  and  C_9 
REMARK    5  A    between atoms: C_18  and  O_19 
ROOT
HETATM    1  C   UNL     1      28.368  43.125  53.463  1.00  0.00     0.254 C 
HETATM    2  N   UNL     1      28.143  43.727  52.248  1.00  0.00    -0.356 N 
HETATM    3  O   UNL     1      28.051  41.960  53.687  1.00  0.00    -0.268 OA
HETATM    4  H   UNL     1      28.568  44.642  52.103  1.00  0.00     0.162 HD
ENDROOT
BRANCH   2   5
HETATM    5  C   UNL     1      27.642  42.986  51.108  1.00  0.00     0.136 C 
BRANCH   5   6
HETATM    6  C   UNL     1      26.243  43.464  50.619  1.00  0.00    -0.004 C 
HETATM    7  C   UNL     1      26.039  42.964  49.170  1.00  0.00     0.021 C 
HETATM    8  C   UNL     1      25.172  42.770  51.494  1.00  0.00     0.021 C 
BRANCH   6   9
HETATM    9  C   UNL     1      26.137  45.001  50.619  1.00  0.00    -0.046 A 
HETATM   10  C   UNL     1      25.349  45.663  51.575  1.00  0.00     0.027 A 
HETATM   11  C   UNL     1      25.263  47.048  51.555  1.00  0.00     0.116 A 
HETATM   12  N   UNL     1      25.903  47.828  50.662  1.00  0.00    -0.273 NA
HETATM   13  C   UNL     1      26.670  47.189  49.757  1.00  0.00     0.116 A 
HETATM   14  C   UNL     1      26.815  45.808  49.695  1.00  0.00     0.027 A 
ENDBRANCH   6   9
ENDBRANCH   5   6
ENDBRANCH   2   5
BRANCH   1  15
HETATM   15  C   UNL     1      29.037  43.949  54.522  1.00  0.00     0.065 A 
HETATM   16  C   UNL     1      30.108  43.353  55.211  1.00  0.00     0.026 A 
HETATM   17  C   UNL     1      30.796  44.038  56.223  1.00  0.00    -0.061 A 
HETATM   18  C   UNL     1      31.952  43.400  56.933  1.00  0.00     0.048 C 
HETATM   19  C   UNL     1      30.411  45.344  56.540  1.00  0.00     0.009 A 
HETATM   20  C   UNL     1      29.353  45.954  55.864  1.00  0.00     0.038 A 
HETATM   21  C   UNL     1      28.671  45.263  54.858  1.00  0.00     0.081 A 
BRANCH  21  22
HETATM   22  O   UNL     1      27.647  45.901  54.204  1.00  0.00    -0.360 OA
HETATM   23  H   UNL     1      26.891  45.292  54.133  1.00  0.00     0.217 HD
ENDBRANCH  21  22
ENDBRANCH   1  15
TORSDOF 5
ENDMDL
MODEL 4
REMARK VINA RESULT:      -7.8      2.416      7.344
REMARK  5 active torsions:
REMARK  status: ('A' for Active; 'I' for Inactive)
REMARK    1  A    between atoms: C_4  and  C_5 
REMARK       I    between atoms: C_5  and  N_6 
REMARK    2  A    between atoms: N_6  and  C_7 
REMARK    3  A    between atoms: C_7  and  C_8 
REMARK    4  A    between atoms: C_8  and  C_9 
REMARK    5  A    between atoms: C_18  and  O_19 
ROOT
HETATM    1  C   UNL     1      26.609  45.759  50.619  1.00  0.00     0.254 C 
HETATM    2  N   UNL     1      26.489  45.607  51.979  1.00  0.00    -0.356 N 
HETATM    3  O   UNL     1      27.315  45.022  49.936  1.00  0.00    -0.268 OA
HETATM    4  H   UNL     1      25.774  46.165  52.442  1.00  0.00     0.162 HD
ENDROOT
BRANCH   2   5
HETATM    5  C   UNL     1      27.079  44.484  52.680  1.00  0.00     0.136 C 
BRANCH   5   6
HETATM    6  C   UNL     1      27.087  44.647  54.228  1.00  0.00    -0.004 C 
HETATM    7  C   UNL     1      26.587  46.070  54.567  1.00  0.00     0.021 C 
HETATM    8  C   UNL     1      26.059  43.652  54.815  1.00  0.00     0.021 C 
BRANCH   6   9
HETATM    9  C   UNL     1      28.505  44.483  54.808  1.00  0.00    -0.046 A 
HETATM   10  C   UNL     1      29.294  43.374  54.462  1.00  0.00     0.027 A 
HETATM   11  C   UNL     1      30.568  43.242  54.999  1.00  0.00     0.116 A 
HETATM   12  N   UNL     1      31.119  44.129  55.850  1.00  0.00    -0.273 NA
HETATM   13  C   UNL     1      30.363  45.198  56.167  1.00  0.00     0.116 A 
HETATM   14  C   UNL     1      29.079  45.415  55.684  1.00  0.00     0.027 A 
ENDBRANCH   6   9
ENDBRANCH   5   6
ENDBRANCH   2   5
BRANCH   1  15
HETATM   15  C   UNL     1      25.826  46.868  49.981  1.00  0.00     0.065 A 
HETATM   16  C   UNL     1      26.559  47.964  49.492  1.00  0.00     0.026 A 
HETATM   17  C   UNL     1      25.920  49.054  48.883  1.00  0.00    -0.061 A 
HETATM   18  C   UNL     1      26.714  50.206  48.344  1.00  0.00     0.048 C 
HETATM   19  C   UNL     1      24.528  49.038  48.754  1.00  0.00     0.009 A 
HETATM   20  C   UNL     1      23.785  47.956  49.229  1.00  0.00     0.038 A 
HETATM   21  C   UNL     1      24.430  46.874  49.836  1.00  0.00     0.081 A 
BRANCH  21  22
HETATM   22  O   UNL     1      23.668  45.822  50.277  1.00  0.00    -0.360 OA
HETATM   23  H   UNL     1      22.745  46.117  50.367  1.00  0.00     0.217 HD
ENDBRANCH  21  22
ENDBRANCH   1  15
TORSDOF 5
ENDMDL
MODEL 5
REMARK VINA RESULT:      -7.5      4.044      7.302
REMARK  5 active torsions:
REMARK  status: ('A' for Active; 'I' for Inactive)
REMARK    1  A    between atoms: C_4  and  C_5 
REMARK       I    between atoms: C_5  and  N_6 
REMARK    2  A    between atoms: N_6  and  C_7 
REMARK    3  A    between atoms: C_7  and  C_8 
REMARK    4  A    between atoms: C_8  and  C_9 
REMARK    5  A    between atoms: C_18  and  O_19 
ROOT
HETATM    1  C   UNL     1      25.409  43.550  51.766  1.00  0.00     0.254 C 
HETATM    2  N   UNL     1      26.782  43.545  51.801  1.00  0.00    -0.356 N 
HETATM    3  O   UNL     1      24.732  44.126  52.614  1.00  0.00    -0.268 OA
HETATM    4  H   UNL     1      27.261  43.170  50.984  1.00  0.00     0.162 HD
ENDROOT
BRANCH   2   5
HETATM    5  C   UNL     1      27.526  44.334  52.763  1.00  0.00     0.136 C 
BRANCH   5   6
HETATM    6  C   UNL     1      28.570  43.510  53.573  1.00  0.00    -0.004 C 
HETATM    7  C   UNL     1      27.884  42.218  54.073  1.00  0.00     0.021 C 
HETATM    8  C   UNL     1      29.693  43.079  52.599  1.00  0.00     0.021 C 
BRANCH   6   9
HETATM    9  C   UNL     1      29.082  44.291  54.798  1.00  0.00    -0.046 A 
HETATM   10  C   UNL     1      30.299  43.945  55.408  1.00  0.00     0.027 A 
HETATM   11  C   UNL     1      30.741  44.658  56.514  1.00  0.00     0.116 A 
HETATM   12  N   UNL     1      30.070  45.692  57.057  1.00  0.00    -0.273 NA
HETATM   13  C   UNL     1      28.911  46.029  56.460  1.00  0.00     0.116 A 
HETATM   14  C   UNL     1      28.386  45.373  55.353  1.00  0.00     0.027 A 
ENDBRANCH   6   9
ENDBRANCH   5   6
ENDBRANCH   2   5
BRANCH   1  15
HETATM   15  C   UNL     1      24.750  42.824  50.631  1.00  0.00     0.065 A 
HETATM   16  C   UNL     1      25.504  41.824  49.992  1.00  0.00     0.026 A 
HETATM   17  C   UNL     1      24.980  41.091  48.918  1.00  0.00    -0.061 A 
HETATM   18  C   UNL     1      25.786  40.011  48.260  1.00  0.00     0.048 C 
HETATM   19  C   UNL     1      23.678  41.358  48.485  1.00  0.00     0.009 A 
HETATM   20  C   UNL     1      22.913  42.344  49.110  1.00  0.00     0.038 A 
HETATM   21  C   UNL     1      23.443  43.071  50.180  1.00  0.00     0.081 A 
BRANCH  21  22
HETATM   22  O   UNL     1      22.656  44.021  50.779  1.00  0.00    -0.360 OA
HETATM   23  H   UNL     1      21.941  44.271  50.168  1.00  0.00     0.217 HD
ENDBRANCH  21  22
ENDBRANCH   1  15
TORSDOF 5
ENDMDL
MODEL 6
REMARK VINA RESULT:      -7.5      5.777      8.124
REMARK  5 active torsions:
REMARK  status: ('A' for Active; 'I' for Inactive)
REMARK    1  A    between atoms: C_4  and  C_5 
REMARK       I    between atoms: C_5  and  N_6 
REMARK    2  A    between atoms: N_6  and  C_7 
REMARK    3  A    between atoms: C_7  and  C_8 
REMARK    4  A    between atoms: C_8  and  C_9 
REMARK    5  A    between atoms: C_18  and  O_19 
ROOT
HETATM    1  C   UNL     1      23.282  49.920  48.274  1.00  0.00     0.254 C 
HETATM    2  N   UNL     1      22.227  50.106  49.135  1.00  0.00    -0.356 N 
HETATM    3  O   UNL     1      23.258  50.313  47.111  1.00  0.00    -0.268 OA
HETATM    4  H   UNL     1      22.389  49.881  50.115  1.00  0.00     0.162 HD
ENDROOT
BRANCH   2   5
HETATM    5  C   UNL     1      21.071  50.900  48.768  1.00  0.00     0.136 C 
BRANCH   5   6
HETATM    6  C   UNL     1      19.783  50.056  48.534  1.00  0.00    -0.004 C 
HETATM    7  C   UNL     1      19.730  49.657  47.042  1.00  0.00     0.021 C 
HETATM    8  C   UNL     1      19.920  48.747  49.350  1.00  0.00     0.021 C 
BRANCH   6   9
HETATM    9  C   UNL     1      18.511  50.859  48.866  1.00  0.00    -0.046 A 
HETATM   10  C   UNL     1      17.250  50.403  48.448  1.00  0.00     0.027 A 
HETATM   11  C   UNL     1      16.116  51.144  48.753  1.00  0.00     0.116 A 
HETATM   12  N   UNL     1      16.138  52.300  49.445  1.00  0.00    -0.273 NA
HETATM   13  C   UNL     1      17.348  52.725  49.856  1.00  0.00     0.116 A 
HETATM   14  C   UNL     1      18.538  52.055  49.596  1.00  0.00     0.027 A 
ENDBRANCH   6   9
ENDBRANCH   5   6
ENDBRANCH   2   5
BRANCH   1  15
HETATM   15  C   UNL     1      24.491  49.217  48.815  1.00  0.00     0.065 A 
HETATM   16  C   UNL     1      24.268  48.213  49.775  1.00  0.00     0.026 A 
HETATM   17  C   UNL     1      25.332  47.500  50.345  1.00  0.00    -0.061 A 
HETATM   18  C   UNL     1      25.080  46.416  51.349  1.00  0.00     0.048 C 
HETATM   19  C   UNL     1      26.638  47.792  49.940  1.00  0.00     0.009 A 
HETATM   20  C   UNL     1      26.879  48.782  48.985  1.00  0.00     0.038 A 
HETATM   21  C   UNL     1      25.812  49.489  48.423  1.00  0.00     0.081 A 
BRANCH  21  22
HETATM   22  O   UNL     1      26.086  50.443  47.477  1.00  0.00    -0.360 OA
HETATM   23  H   UNL     1      26.459  50.009  46.689  1.00  0.00     0.217 HD
ENDBRANCH  21  22
ENDBRANCH   1  15
TORSDOF 5
ENDMDL
MODEL 7
REMARK VINA RESULT:      -7.4      2.799      4.413
REMARK  5 active torsions:
REMARK  status: ('A' for Active; 'I' for Inactive)
REMARK    1  A    between atoms: C_4  and  C_5 
REMARK       I    between atoms: C_5  and  N_6 
REMARK    2  A    between atoms: N_6  and  C_7 
REMARK    3  A    between atoms: C_7  and  C_8 
REMARK    4  A    between atoms: C_8  and  C_9 
REMARK    5  A    between atoms: C_18  and  O_19 
ROOT
HETATM    1  C   UNL     1      28.290  43.493  53.655  1.00  0.00     0.254 C 
HETATM    2  N   UNL     1      27.911  44.287  52.600  1.00  0.00    -0.356 N 
HETATM    3  O   UNL     1      28.036  42.292  53.697  1.00  0.00    -0.268 OA
HETATM    4  H   UNL     1      28.289  45.233  52.580  1.00  0.00     0.162 HD
ENDROOT
BRANCH   2   5
HETATM    5  C   UNL     1      27.309  43.735  51.403  1.00  0.00     0.136 C 
BRANCH   5   6
HETATM    6  C   UNL     1      26.200  44.639  50.789  1.00  0.00    -0.004 C 
HETATM    7  C   UNL     1      25.682  45.588  51.893  1.00  0.00     0.021 C 
HETATM    8  C   UNL     1      26.857  45.522  49.701  1.00  0.00     0.021 C 
BRANCH   6   9
HETATM    9  C   UNL     1      25.011  43.806  50.271  1.00  0.00    -0.046 A 
HETATM   10  C   UNL     1      23.698  44.292  50.378  1.00  0.00     0.027 A 
HETATM   11  C   UNL     1      22.641  43.524  49.910  1.00  0.00     0.116 A 
HETATM   12  N   UNL     1      22.787  42.313  49.339  1.00  0.00    -0.273 NA
HETATM   13  C   UNL     1      24.050  41.858  49.225  1.00  0.00     0.116 A 
HETATM   14  C   UNL     1      25.170  42.551  49.667  1.00  0.00     0.027 A 
ENDBRANCH   6   9
ENDBRANCH   5   6
ENDBRANCH   2   5
BRANCH   1  15
HETATM   15  C   UNL     1      29.047  44.150  54.771  1.00  0.00     0.065 A 
HETATM   16  C   UNL     1      30.104  43.417  55.340  1.00  0.00     0.026 A 
HETATM   17  C   UNL     1      30.871  43.941  56.391  1.00  0.00    -0.061 A 
HETATM   18  C   UNL     1      32.010  43.160  56.973  1.00  0.00     0.048 C 
HETATM   19  C   UNL     1      30.579  45.221  56.871  1.00  0.00     0.009 A 
HETATM   20  C   UNL     1      29.536  45.965  56.315  1.00  0.00     0.038 A 
HETATM   21  C   UNL     1      28.776  45.434  55.268  1.00  0.00     0.081 A 
BRANCH  21  22
HETATM   22  O   UNL     1      27.770  46.201  54.737  1.00  0.00    -0.360 OA
HETATM   23  H   UNL     1      28.154  46.830  54.102  1.00  0.00     0.217 HD
ENDBRANCH  21  22
ENDBRANCH   1  15
TORSDOF 5
ENDMDL
MODEL 8
REMARK VINA RESULT:      -7.4      1.579      2.447
REMARK  5 active torsions:
REMARK  status: ('A' for Active; 'I' for Inactive)
REMARK    1  A    between atoms: C_4  and  C_5 
REMARK       I    between atoms: C_5  and  N_6 
REMARK    2  A    between atoms: N_6  and  C_7 
REMARK    3  A    between atoms: C_7  and  C_8 
REMARK    4  A    between atoms: C_8  and  C_9 
REMARK    5  A    between atoms: C_18  and  O_19 
ROOT
HETATM    1  C   UNL     1      26.495  45.909  53.776  1.00  0.00     0.254 C 
HETATM    2  N   UNL     1      26.552  46.455  52.516  1.00  0.00    -0.356 N 
HETATM    3  O   UNL     1      25.464  45.901  54.442  1.00  0.00    -0.268 OA
HETATM    4  H   UNL     1      27.403  46.288  51.981  1.00  0.00     0.162 HD
ENDROOT
BRANCH   2   5
HETATM    5  C   UNL     1      25.366  46.936  51.836  1.00  0.00     0.136 C 
BRANCH   5   6
HETATM    6  C   UNL     1      25.472  46.882  50.284  1.00  0.00    -0.004 C 
HETATM    7  C   UNL     1      26.378  48.045  49.819  1.00  0.00     0.021 C 
HETATM    8  C   UNL     1      26.191  45.566  49.903  1.00  0.00     0.021 C 
BRANCH   6   9
HETATM    9  C   UNL     1      24.093  47.047  49.615  1.00  0.00    -0.046 A 
HETATM   10  C   UNL     1      23.475  48.307  49.556  1.00  0.00     0.027 A 
HETATM   11  C   UNL     1      22.230  48.433  48.953  1.00  0.00     0.116 A 
HETATM   12  N   UNL     1      21.555  47.407  48.401  1.00  0.00    -0.273 NA
HETATM   13  C   UNL     1      22.160  46.204  48.448  1.00  0.00     0.116 A 
HETATM   14  C   UNL     1      23.400  45.978  49.031  1.00  0.00     0.027 A 
ENDBRANCH   6   9
ENDBRANCH   5   6
ENDBRANCH   2   5
BRANCH   1  15
HETATM   15  C   UNL     1      27.755  45.300  54.316  1.00  0.00     0.065 A 
HETATM   16  C   UNL     1      28.291  44.212  53.605  1.00  0.00     0.026 A 
HETATM   17  C   UNL     1      29.463  43.570  54.030  1.00  0.00    -0.061 A 
HETATM   18  C   UNL     1      30.038  42.426  53.251  1.00  0.00     0.048 C 
HETATM   19  C   UNL     1      30.111  44.033  55.179  1.00  0.00     0.009 A 
HETATM   20  C   UNL     1      29.597  45.116  55.895  1.00  0.00     0.038 A 
HETATM   21  C   UNL     1      28.427  45.749  55.464  1.00  0.00     0.081 A 
BRANCH  21  22
HETATM   22  O   UNL     1      27.959  46.819  56.184  1.00  0.00    -0.360 OA
HETATM   23  H   UNL     1      28.607  47.041  56.877  1.00  0.00     0.217 HD
ENDBRANCH  21  22
ENDBRANCH   1  15
TORSDOF 5
ENDMDL
MODEL 9
REMARK VINA RESULT:      -7.3      5.218      7.882
REMARK  5 active torsions:
REMARK  status: ('A' for Active; 'I' for Inactive)
REMARK    1  A    between atoms: C_4  and  C_5 
REMARK       I    between atoms: C_5  and  N_6 
REMARK    2  A    between atoms: N_6  and  C_7 
REMARK    3  A    between atoms: C_7  and  C_8 
REMARK    4  A    between atoms: C_8  and  C_9 
REMARK    5  A    between atoms: C_18  and  O_19 
ROOT
HETATM    1  C   UNL     1      27.936  41.410  50.418  1.00  0.00     0.254 C 
HETATM    2  N   UNL     1      28.808  41.808  51.402  1.00  0.00    -0.356 N 
HETATM    3  O   UNL     1      26.915  42.038  50.150  1.00  0.00    -0.268 OA
HETATM    4  H   UNL     1      29.696  41.313  51.456  1.00  0.00     0.162 HD
ENDROOT
BRANCH   2   5
HETATM    5  C   UNL     1      28.653  43.071  52.096  1.00  0.00     0.136 C 
BRANCH   5   6
HETATM    6  C   UNL     1      28.162  42.919  53.566  1.00  0.00    -0.004 C 
HETATM    7  C   UNL     1      26.714  43.452  53.651  1.00  0.00     0.021 C 
HETATM    8  C   UNL     1      28.109  41.407  53.894  1.00  0.00     0.021 C 
BRANCH   6   9
HETATM    9  C   UNL     1      29.034  43.731  54.542  1.00  0.00    -0.046 A 
HETATM   10  C   UNL     1      28.618  44.996  54.989  1.00  0.00     0.027 A 
HETATM   11  C   UNL     1      29.421  45.714  55.865  1.00  0.00     0.116 A 
HETATM   12  N   UNL     1      30.602  45.271  56.335  1.00  0.00    -0.273 NA
HETATM   13  C   UNL     1      30.990  44.051  55.915  1.00  0.00     0.116 A 
HETATM   14  C   UNL     1      30.258  43.260  55.038  1.00  0.00     0.027 A 
ENDBRANCH   6   9
ENDBRANCH   5   6
ENDBRANCH   2   5
BRANCH   1  15
HETATM   15  C   UNL     1      28.283  40.164  49.658  1.00  0.00     0.065 A 
HETATM   16  C   UNL     1      27.909  40.120  48.303  1.00  0.00     0.026 A 
HETATM   17  C   UNL     1      28.184  38.998  47.508  1.00  0.00    -0.061 A 
HETATM   18  C   UNL     1      27.801  38.972  46.058  1.00  0.00     0.048 C 
HETATM   19  C   UNL     1      28.852  37.910  48.076  1.00  0.00     0.009 A 
HETATM   20  C   UNL     1      29.236  37.938  49.419  1.00  0.00     0.038 A 
HETATM   21  C   UNL     1      28.957  39.060  50.205  1.00  0.00     0.081 A 
BRANCH  21  22
HETATM   22  O   UNL     1      29.363  39.058  51.515  1.00  0.00    -0.360 OA
HETATM   23  H   UNL     1      28.713  38.565  52.046  1.00  0.00     0.217 HD
ENDBRANCH  21  22
ENDBRANCH   1  15
TORSDOF 5
ENDMDL
MODEL 10
REMARK VINA RESULT:      -7.3      4.860      7.524
REMARK  5 active torsions:
REMARK  status: ('A' for Active; 'I' for Inactive)
REMARK    1  A    between atoms: C_4  and  C_5 
REMARK       I    between atoms: C_5  and  N_6 
REMARK    2  A    between atoms: N_6  and  C_7 
REMARK    3  A    between atoms: C_7  and  C_8 
REMARK    4  A    between atoms: C_8  and  C_9 
REMARK    5  A    between atoms: C_18  and  O_19 
ROOT
HETATM    1  C   UNL     1      27.481  41.975  50.638  1.00  0.00     0.254 C 
HETATM    2  N   UNL     1      28.376  42.471  51.556  1.00  0.00    -0.356 N 
HETATM    3  O   UNL     1      26.354  42.442  50.501  1.00  0.00    -0.268 OA
HETATM    4  H   UNL     1      29.331  42.122  51.500  1.00  0.00     0.162 HD
ENDROOT
BRANCH   2   5
HETATM    5  C   UNL     1      28.097  43.666  52.328  1.00  0.00     0.136 C 
BRANCH   5   6
HETATM    6  C   UNL     1      27.822  43.385  53.834  1.00  0.00    -0.004 C 
HETATM    7  C   UNL     1      26.397  43.884  54.167  1.00  0.00     0.021 C 
HETATM    8  C   UNL     1      27.826  41.851  54.040  1.00  0.00     0.021 C 
BRANCH   6   9
HETATM    9  C   UNL     1      28.819  44.132  54.741  1.00  0.00    -0.046 A 
HETATM   10  C   UNL     1      28.507  45.402  55.252  1.00  0.00     0.027 A 
HETATM   11  C   UNL     1      29.421  46.060  56.063  1.00  0.00     0.116 A 
HETATM   12  N   UNL     1      30.619  45.551  56.412  1.00  0.00    -0.273 NA
HETATM   13  C   UNL     1      30.906  44.326  55.932  1.00  0.00     0.116 A 
HETATM   14  C   UNL     1      30.059  43.592  55.111  1.00  0.00     0.027 A 
ENDBRANCH   6   9
ENDBRANCH   5   6
ENDBRANCH   2   5
BRANCH   1  15
HETATM   15  C   UNL     1      27.940  40.830  49.785  1.00  0.00     0.065 A 
HETATM   16  C   UNL     1      28.521  39.735  50.448  1.00  0.00     0.026 A 
HETATM   17  C   UNL     1      28.986  38.617  49.741  1.00  0.00    -0.061 A 
HETATM   18  C   UNL     1      29.583  37.445  50.461  1.00  0.00     0.048 C 
HETATM   19  C   UNL     1      28.856  38.593  48.349  1.00  0.00     0.009 A 
HETATM   20  C   UNL     1      28.276  39.669  47.673  1.00  0.00     0.038 A 
HETATM   21  C   UNL     1      27.817  40.780  48.387  1.00  0.00     0.081 A 
BRANCH  21  22
HETATM   22  O   UNL     1      27.239  41.811  47.691  1.00  0.00    -0.360 OA
HETATM   23  H   UNL     1      27.941  42.373  47.318  1.00  0.00     0.217 HD
ENDBRANCH  21  22
ENDBRANCH   1  15
TORSDOF 5
ENDMDL
