MODEL 1
REMARK VINA RESULT:      -8.5      0.000      0.000
REMARK  4 active torsions:
REMARK  status: ('A' for Active; 'I' for Inactive)
REMARK    1  A    between atoms: C_2  and  N_3 
REMARK    2  A    between atoms: C_11  and  N_12 
REMARK    3  A    between atoms: N_12  and  C_15 
REMARK    4  A    between atoms: C_15  and  C_16 
ROOT
HETATM    1  N   UNL     1      28.288  43.468  54.178  1.00  0.00    -0.067 N 
HETATM    2  H   UNL     1      28.582  42.524  54.475  1.00  0.00     0.280 HD
HETATM    3  C   UNL     1      26.903  43.649  54.774  1.00  0.00     0.238 C 
HETATM    4  C   UNL     1      26.258  44.927  54.245  1.00  0.00     0.066 C 
HETATM    5  C   UNL     1      26.163  44.961  52.699  1.00  0.00     0.073 C 
HETATM    6  O   UNL     1      25.309  43.872  52.335  1.00  0.00    -0.339 OA
HETATM    7  C   UNL     1      24.571  43.955  51.192  1.00  0.00     0.078 A 
HETATM    8  C   UNL     1      24.391  45.123  50.443  1.00  0.00     0.006 A 
HETATM    9  C   UNL     1      25.064  46.403  50.834  1.00  0.00     0.224 C 
HETATM   10  C   UNL     1      25.560  46.323  52.285  1.00  0.00     0.076 C 
HETATM   11  C   UNL     1      23.934  42.768  50.821  1.00  0.00     0.037 A 
HETATM   12  C   UNL     1      23.109  42.732  49.700  1.00  0.00     0.003 A 
HETATM   13  C   UNL     1      22.901  43.889  48.959  1.00  0.00     0.001 A 
HETATM   14  C   UNL     1      23.528  45.078  49.332  1.00  0.00     0.012 A 
HETATM   15  C   UNL     1      27.559  44.676  52.108  1.00  0.00     0.066 C 
HETATM   16  C   UNL     1      28.168  43.390  52.674  1.00  0.00     0.238 C 
ENDROOT
BRANCH   9  17
HETATM   17  N   UNL     1      26.209  46.775  49.936  1.00  0.00    -0.063 N 
HETATM   18  H   UNL     1      27.054  46.252  50.197  1.00  0.00     0.278 HD
HETATM   19  H   UNL     1      25.995  46.539  48.963  1.00  0.00     0.278 HD
BRANCH  17  20
HETATM   20  C   UNL     1      26.636  48.214  49.924  1.00  0.00     0.274 C 
BRANCH  20  21
HETATM   21  C   UNL     1      25.739  48.953  49.010  1.00  0.00     0.004 A 
HETATM   22  C   UNL     1      24.356  48.998  49.006  1.00  0.00     0.122 A 
HETATM   23  N   UNL     1      24.002  49.840  47.986  1.00  0.00    -0.285 N 
HETATM   24  C   UNL     1      22.668  50.179  47.544  1.00  0.00     0.179 C 
HETATM   25  N   UNL     1      25.065  50.405  47.390  1.00  0.00    -0.185 NA
HETATM   26  C   UNL     1      26.114  49.813  47.952  1.00  0.00     0.149 A 
ENDBRANCH  20  21
ENDBRANCH  17  20
ENDBRANCH   9  17
BRANCH   1  27
HETATM   27  C   UNL     1      29.381  44.399  54.735  1.00  0.00     0.180 C 
HETATM   28  C   UNL     1      30.553  43.582  55.281  1.00  0.00     0.039 C 
HETATM   29  C   UNL     1      28.807  45.265  55.858  1.00  0.00     0.039 C 
ENDBRANCH   1  27
TORSDOF 4
ENDMDL
MODEL 2
REMARK VINA RESULT:      -8.1      3.724      7.678
REMARK  4 active torsions:
REMARK  status: ('A' for Active; 'I' for Inactive)
REMARK    1  A    between atoms: C_2  and  N_3 
REMARK    2  A    between atoms: C_11  and  N_12 
REMARK    3  A    between atoms: N_12  and  C_15 
REMARK    4  A    between atoms: C_15  and  C_16 
ROOT
HETATM    1  N   UNL     1      26.334  42.122  49.107  1.00  0.00    -0.067 N 
HETATM    2  H   UNL     1      25.862  42.376  48.224  1.00  0.00     0.280 HD
HETATM    3  C   UNL     1      25.211  41.967  50.117  1.00  0.00     0.238 C 
HETATM    4  C   UNL     1      25.779  41.790  51.522  1.00  0.00     0.066 C 
HETATM    5  C   UNL     1      26.702  42.958  51.952  1.00  0.00     0.073 C 
HETATM    6  O   UNL     1      25.874  44.125  51.971  1.00  0.00    -0.339 OA
HETATM    7  C   UNL     1      26.180  45.146  52.821  1.00  0.00     0.078 A 
HETATM    8  C   UNL     1      27.113  45.066  53.860  1.00  0.00     0.006 A 
HETATM    9  C   UNL     1      27.909  43.818  54.089  1.00  0.00     0.224 C 
HETATM   10  C   UNL     1      27.266  42.633  53.354  1.00  0.00     0.076 C 
HETATM   11  C   UNL     1      25.439  46.314  52.620  1.00  0.00     0.037 A 
HETATM   12  C   UNL     1      25.619  47.415  53.453  1.00  0.00     0.003 A 
HETATM   13  C   UNL     1      26.525  47.344  54.504  1.00  0.00     0.001 A 
HETATM   14  C   UNL     1      27.259  46.176  54.714  1.00  0.00     0.012 A 
HETATM   15  C   UNL     1      27.777  43.168  50.866  1.00  0.00     0.066 C 
HETATM   16  C   UNL     1      27.160  43.333  49.474  1.00  0.00     0.238 C 
ENDROOT
BRANCH   9  17
HETATM   17  N   UNL     1      29.347  43.941  53.675  1.00  0.00    -0.063 N 
HETATM   18  H   UNL     1      29.453  43.712  52.679  1.00  0.00     0.278 HD
HETATM   19  H   UNL     1      29.678  44.901  53.802  1.00  0.00     0.278 HD
BRANCH  17  20
HETATM   20  C   UNL     1      30.344  43.067  54.378  1.00  0.00     0.274 C 
BRANCH  20  21
HETATM   21  C   UNL     1      30.673  43.697  55.676  1.00  0.00     0.004 A 
HETATM   22  C   UNL     1      30.281  44.931  56.161  1.00  0.00     0.122 A 
HETATM   23  N   UNL     1      30.820  45.040  57.414  1.00  0.00    -0.285 N 
HETATM   24  C   UNL     1      30.736  46.167  58.316  1.00  0.00     0.179 C 
HETATM   25  N   UNL     1      31.461  43.925  57.800  1.00  0.00    -0.185 NA
HETATM   26  C   UNL     1      31.442  43.143  56.725  1.00  0.00     0.149 A 
ENDBRANCH  20  21
ENDBRANCH  17  20
ENDBRANCH   9  17
BRANCH   1  27
HETATM   27  C   UNL     1      27.109  40.836  48.767  1.00  0.00     0.180 C 
HETATM   28  C   UNL     1      27.911  41.018  47.477  1.00  0.00     0.039 C 
HETATM   29  C   UNL     1      26.134  39.670  48.590  1.00  0.00     0.039 C 
ENDBRANCH   1  27
TORSDOF 4
ENDMDL
MODEL 3
REMARK VINA RESULT:      -8.0      2.731      7.340
REMARK  4 active torsions:
REMARK  status: ('A' for Active; 'I' for Inactive)
REMARK    1  A    between atoms: C_2  and  N_3 
REMARK    2  A    between atoms: C_11  and  N_12 
REMARK    3  A    between atoms: N_12  and  C_15 
REMARK    4  A    between atoms: C_15  and  C_16 
ROOT
HETATM    1  N   UNL     1      25.408  45.882  51.343  1.00  0.00    -0.067 N 
HETATM    2  H   UNL     1      25.240  46.885  51.166  1.00  0.00     0.280 HD
HETATM    3  C   UNL     1      24.951  45.657  52.774  1.00  0.00     0.238 C 
HETATM    4  C   UNL     1      25.331  44.255  53.240  1.00  0.00     0.066 C 
HETATM    5  C   UNL     1      26.851  43.974  53.134  1.00  0.00     0.073 C 
HETATM    6  O   UNL     1      27.484  44.904  54.019  1.00  0.00    -0.339 OA
HETATM    7  C   UNL     1      28.674  44.572  54.597  1.00  0.00     0.078 A 
HETATM    8  C   UNL     1      29.236  43.292  54.585  1.00  0.00     0.006 A 
HETATM    9  C   UNL     1      28.565  42.161  53.866  1.00  0.00     0.224 C 
HETATM   10  C   UNL     1      27.101  42.512  53.568  1.00  0.00     0.076 C 
HETATM   11  C   UNL     1      29.305  45.619  55.275  1.00  0.00     0.037 A 
HETATM   12  C   UNL     1      30.503  45.399  55.950  1.00  0.00     0.003 A 
HETATM   13  C   UNL     1      31.062  44.128  55.969  1.00  0.00     0.001 A 
HETATM   14  C   UNL     1      30.429  43.078  55.300  1.00  0.00     0.012 A 
HETATM   15  C   UNL     1      27.319  44.303  51.702  1.00  0.00     0.066 C 
HETATM   16  C   UNL     1      26.909  45.716  51.276  1.00  0.00     0.238 C 
ENDROOT
BRANCH   9  17
HETATM   17  N   UNL     1      29.255  41.771  52.590  1.00  0.00    -0.063 N 
HETATM   18  H   UNL     1      28.921  42.352  51.812  1.00  0.00     0.278 HD
HETATM   19  H   UNL     1      30.265  41.918  52.667  1.00  0.00     0.278 HD
BRANCH  17  20
HETATM   20  C   UNL     1      29.081  40.357  52.117  1.00  0.00     0.274 C 
BRANCH  20  21
HETATM   21  C   UNL     1      28.254  40.380  50.891  1.00  0.00     0.004 A 
HETATM   22  C   UNL     1      26.922  40.726  50.754  1.00  0.00     0.122 A 
HETATM   23  N   UNL     1      26.631  40.614  49.421  1.00  0.00    -0.285 N 
HETATM   24  C   UNL     1      25.354  40.822  48.776  1.00  0.00     0.179 C 
HETATM   25  N   UNL     1      27.708  40.302  48.682  1.00  0.00    -0.185 NA
HETATM   26  C   UNL     1      28.670  40.084  49.573  1.00  0.00     0.149 A 
ENDBRANCH  20  21
ENDBRANCH  17  20
ENDBRANCH   9  17
BRANCH   1  27
HETATM   27  C   UNL     1      24.585  45.162  50.258  1.00  0.00     0.180 C 
HETATM   28  C   UNL     1      25.510  44.481  49.248  1.00  0.00     0.039 C 
HETATM   29  C   UNL     1      23.694  46.166  49.526  1.00  0.00     0.039 C 
ENDBRANCH   1  27
TORSDOF 4
ENDMDL
MODEL 4
REMARK VINA RESULT:      -8.0     10.915     14.393
REMARK  4 active torsions:
REMARK  status: ('A' for Active; 'I' for Inactive)
REMARK    1  A    between atoms: C_2  and  N_3 
REMARK    2  A    between atoms: C_11  and  N_12 
REMARK    3  A    between atoms: N_12  and  C_15 
REMARK    4  A    between atoms: C_15  and  C_16 
ROOT
HETATM    1  N   UNL     1      28.151  49.817  41.037  1.00  0.00    -0.067 N 
HETATM    2  H   UNL     1      27.288  50.193  41.460  1.00  0.00     0.280 HD
HETATM    3  C   UNL     1      28.697  48.844  42.066  1.00  0.00     0.238 C 
HETATM    4  C   UNL     1      30.087  48.361  41.659  1.00  0.00     0.066 C 
HETATM    5  C   UNL     1      31.095  49.521  41.461  1.00  0.00     0.073 C 
HETATM    6  O   UNL     1      31.221  50.153  42.739  1.00  0.00    -0.339 OA
HETATM    7  C   UNL     1      32.387  50.781  43.061  1.00  0.00     0.078 A 
HETATM    8  C   UNL     1      33.579  50.669  42.337  1.00  0.00     0.006 A 
HETATM    9  C   UNL     1      33.645  49.858  41.079  1.00  0.00     0.224 C 
HETATM   10  C   UNL     1      32.436  48.916  40.988  1.00  0.00     0.076 C 
HETATM   11  C   UNL     1      32.338  51.536  44.236  1.00  0.00     0.037 A 
HETATM   12  C   UNL     1      33.477  52.187  44.703  1.00  0.00     0.003 A 
HETATM   13  C   UNL     1      34.674  52.067  44.009  1.00  0.00     0.001 A 
HETATM   14  C   UNL     1      34.729  51.305  42.840  1.00  0.00     0.012 A 
HETATM   15  C   UNL     1      30.483  50.552  40.490  1.00  0.00     0.066 C 
HETATM   16  C   UNL     1      29.088  51.000  40.936  1.00  0.00     0.238 C 
ENDROOT
BRANCH   9  17
HETATM   17  N   UNL     1      33.723  50.692  39.833  1.00  0.00    -0.063 N 
HETATM   18  H   UNL     1      33.286  50.199  39.045  1.00  0.00     0.278 HD
HETATM   19  H   UNL     1      33.217  51.574  39.957  1.00  0.00     0.278 HD
BRANCH  17  20
HETATM   20  C   UNL     1      35.089  51.070  39.340  1.00  0.00     0.274 C 
BRANCH  20  21
HETATM   21  C   UNL     1      35.206  52.544  39.392  1.00  0.00     0.004 A 
HETATM   22  C   UNL     1      36.351  53.320  39.412  1.00  0.00     0.122 A 
HETATM   23  N   UNL     1      35.932  54.622  39.431  1.00  0.00    -0.285 N 
HETATM   24  C   UNL     1      36.750  55.812  39.503  1.00  0.00     0.179 C 
HETATM   25  N   UNL     1      34.596  54.737  39.340  1.00  0.00    -0.185 NA
HETATM   26  C   UNL     1      34.152  53.486  39.395  1.00  0.00     0.149 A 
ENDBRANCH  20  21
ENDBRANCH  17  20
ENDBRANCH   9  17
BRANCH   1  27
HETATM   27  C   UNL     1      27.683  49.193  39.709  1.00  0.00     0.180 C 
HETATM   28  C   UNL     1      27.034  50.253  38.818  1.00  0.00     0.039 C 
HETATM   29  C   UNL     1      26.670  48.080  39.984  1.00  0.00     0.039 C 
ENDBRANCH   1  27
TORSDOF 4
ENDMDL
MODEL 5
REMARK VINA RESULT:      -8.0     11.154     13.519
REMARK  4 active torsions:
REMARK  status: ('A' for Active; 'I' for Inactive)
REMARK    1  A    between atoms: C_2  and  N_3 
REMARK    2  A    between atoms: C_11  and  N_12 
REMARK    3  A    between atoms: N_12  and  C_15 
REMARK    4  A    between atoms: C_15  and  C_16 
ROOT
HETATM    1  N   UNL     1      27.961  46.120  38.653  1.00  0.00    -0.067 N 
HETATM    2  H   UNL     1      27.663  45.861  37.699  1.00  0.00     0.280 HD
HETATM    3  C   UNL     1      26.787  46.891  39.231  1.00  0.00     0.238 C 
HETATM    4  C   UNL     1      27.167  47.513  40.572  1.00  0.00     0.066 C 
HETATM    5  C   UNL     1      28.400  48.446  40.477  1.00  0.00     0.073 C 
HETATM    6  O   UNL     1      28.018  49.514  39.604  1.00  0.00    -0.339 OA
HETATM    7  C   UNL     1      28.595  50.740  39.758  1.00  0.00     0.078 A 
HETATM    8  C   UNL     1      29.374  51.123  40.854  1.00  0.00     0.006 A 
HETATM    9  C   UNL     1      29.681  50.157  41.958  1.00  0.00     0.224 C 
HETATM   10  C   UNL     1      28.725  48.957  41.899  1.00  0.00     0.076 C 
HETATM   11  C   UNL     1      28.309  51.650  38.737  1.00  0.00     0.037 A 
HETATM   12  C   UNL     1      28.797  52.953  38.798  1.00  0.00     0.003 A 
HETATM   13  C   UNL     1      29.552  53.356  39.892  1.00  0.00     0.001 A 
HETATM   14  C   UNL     1      29.831  52.452  40.918  1.00  0.00     0.012 A 
HETATM   15  C   UNL     1      29.553  47.679  39.797  1.00  0.00     0.066 C 
HETATM   16  C   UNL     1      29.123  47.067  38.460  1.00  0.00     0.238 C 
ENDROOT
BRANCH   9  17
HETATM   17  N   UNL     1      31.100  49.665  41.943  1.00  0.00    -0.063 N 
HETATM   18  H   UNL     1      31.127  48.646  42.073  1.00  0.00     0.278 HD
HETATM   19  H   UNL     1      31.543  49.867  41.043  1.00  0.00     0.278 HD
BRANCH  17  20
HETATM   20  C   UNL     1      32.030  50.210  42.988  1.00  0.00     0.274 C 
BRANCH  20  21
HETATM   21  C   UNL     1      33.167  50.859  42.299  1.00  0.00     0.004 A 
HETATM   22  C   UNL     1      33.308  51.155  40.955  1.00  0.00     0.122 A 
HETATM   23  N   UNL     1      34.520  51.775  40.824  1.00  0.00    -0.285 N 
HETATM   24  C   UNL     1      35.148  52.237  39.606  1.00  0.00     0.179 C 
HETATM   25  N   UNL     1      35.130  51.974  42.004  1.00  0.00    -0.185 NA
HETATM   26  C   UNL     1      34.354  51.353  42.886  1.00  0.00     0.149 A 
ENDBRANCH  20  21
ENDBRANCH  17  20
ENDBRANCH   9  17
BRANCH   1  27
HETATM   27  C   UNL     1      28.274  44.773  39.332  1.00  0.00     0.180 C 
HETATM   28  C   UNL     1      29.270  43.970  38.494  1.00  0.00     0.039 C 
HETATM   29  C   UNL     1      26.988  43.961  39.499  1.00  0.00     0.039 C 
ENDBRANCH   1  27
TORSDOF 4
ENDMDL
MODEL 6
REMARK VINA RESULT:      -8.0      6.535     10.721
REMARK  4 active torsions:
REMARK  status: ('A' for Active; 'I' for Inactive)
REMARK    1  A    between atoms: C_2  and  N_3 
REMARK    2  A    between atoms: C_11  and  N_12 
REMARK    3  A    between atoms: N_12  and  C_15 
REMARK    4  A    between atoms: C_15  and  C_16 
ROOT
HETATM    1  N   UNL     1      17.335  52.615  47.976  1.00  0.00    -0.067 N 
HETATM    2  H   UNL     1      17.340  53.572  47.588  1.00  0.00     0.280 HD
HETATM    3  C   UNL     1      17.980  52.748  49.345  1.00  0.00     0.238 C 
HETATM    4  C   UNL     1      18.224  51.370  49.954  1.00  0.00     0.066 C 
HETATM    5  C   UNL     1      19.100  50.459  49.057  1.00  0.00     0.073 C 
HETATM    6  O   UNL     1      20.370  51.113  48.957  1.00  0.00    -0.339 OA
HETATM    7  C   UNL     1      21.492  50.364  48.762  1.00  0.00     0.078 A 
HETATM    8  C   UNL     1      21.552  48.972  48.879  1.00  0.00     0.006 A 
HETATM    9  C   UNL     1      20.326  48.170  49.192  1.00  0.00     0.224 C 
HETATM   10  C   UNL     1      19.219  49.080  49.744  1.00  0.00     0.076 C 
HETATM   11  C   UNL     1      22.643  51.103  48.475  1.00  0.00     0.037 A 
HETATM   12  C   UNL     1      23.867  50.461  48.303  1.00  0.00     0.003 A 
HETATM   13  C   UNL     1      23.948  49.081  48.439  1.00  0.00     0.001 A 
HETATM   14  C   UNL     1      22.802  48.341  48.735  1.00  0.00     0.012 A 
HETATM   15  C   UNL     1      18.487  50.416  47.642  1.00  0.00     0.066 C 
HETATM   16  C   UNL     1      18.253  51.820  47.076  1.00  0.00     0.238 C 
ENDROOT
BRANCH   9  17
HETATM   17  N   UNL     1      19.797  47.401  48.015  1.00  0.00    -0.063 N 
HETATM   18  H   UNL     1      19.452  48.045  47.293  1.00  0.00     0.278 HD
HETATM   19  H   UNL     1      20.540  46.838  47.589  1.00  0.00     0.278 HD
BRANCH  17  20
HETATM   20  C   UNL     1      18.658  46.456  48.264  1.00  0.00     0.274 C 
BRANCH  20  21
HETATM   21  C   UNL     1      17.428  47.062  47.708  1.00  0.00     0.004 A 
HETATM   22  C   UNL     1      17.065  47.219  46.383  1.00  0.00     0.122 A 
HETATM   23  N   UNL     1      15.828  47.806  46.391  1.00  0.00    -0.285 N 
HETATM   24  C   UNL     1      15.040  48.219  45.251  1.00  0.00     0.179 C 
HETATM   25  N   UNL     1      15.336  47.958  47.631  1.00  0.00    -0.185 NA
HETATM   26  C   UNL     1      16.330  47.583  48.430  1.00  0.00     0.149 A 
ENDBRANCH  20  21
ENDBRANCH  17  20
ENDBRANCH   9  17
BRANCH   1  27
HETATM   27  C   UNL     1      15.849  52.212  47.974  1.00  0.00     0.180 C 
HETATM   28  C   UNL     1      15.256  52.356  46.571  1.00  0.00     0.039 C 
HETATM   29  C   UNL     1      15.066  53.100  48.943  1.00  0.00     0.039 C 
ENDBRANCH   1  27
TORSDOF 4
ENDMDL
MODEL 7
REMARK VINA RESULT:      -7.8      3.811      6.383
REMARK  4 active torsions:
REMARK  status: ('A' for Active; 'I' for Inactive)
REMARK    1  A    between atoms: C_2  and  N_3 
REMARK    2  A    between atoms: C_11  and  N_12 
REMARK    3  A    between atoms: N_12  and  C_15 
REMARK    4  A    between atoms: C_15  and  C_16 
ROOT
HETATM    1  N   UNL     1      27.433  38.415  48.573  1.00  0.00    -0.067 N 
HETATM    2  H   UNL     1      27.843  37.478  48.712  1.00  0.00     0.280 HD
HETATM    3  C   UNL     1      28.623  39.330  48.342  1.00  0.00     0.238 C 
HETATM    4  C   UNL     1      28.177  40.789  48.323  1.00  0.00     0.066 C 
HETATM    5  C   UNL     1      27.443  41.214  49.619  1.00  0.00     0.073 C 
HETATM    6  O   UNL     1      28.400  41.075  50.675  1.00  0.00    -0.339 OA
HETATM    7  C   UNL     1      28.300  41.873  51.776  1.00  0.00     0.078 A 
HETATM    8  C   UNL     1      27.470  42.994  51.875  1.00  0.00     0.006 A 
HETATM    9  C   UNL     1      26.560  43.383  50.750  1.00  0.00     0.224 C 
HETATM   10  C   UNL     1      26.985  42.681  49.452  1.00  0.00     0.076 C 
HETATM   11  C   UNL     1      29.149  41.522  52.829  1.00  0.00     0.037 A 
HETATM   12  C   UNL     1      29.180  42.287  53.992  1.00  0.00     0.003 A 
HETATM   13  C   UNL     1      28.379  43.417  54.098  1.00  0.00     0.001 A 
HETATM   14  C   UNL     1      27.537  43.775  53.044  1.00  0.00     0.012 A 
HETATM   15  C   UNL     1      26.299  40.216  49.894  1.00  0.00     0.066 C 
HETATM   16  C   UNL     1      26.793  38.767  49.896  1.00  0.00     0.238 C 
ENDROOT
BRANCH   9  17
HETATM   17  N   UNL     1      25.112  43.090  51.024  1.00  0.00    -0.063 N 
HETATM   18  H   UNL     1      24.795  42.295  50.457  1.00  0.00     0.278 HD
HETATM   19  H   UNL     1      24.975  42.837  52.006  1.00  0.00     0.278 HD
BRANCH  17  20
HETATM   20  C   UNL     1      24.123  44.183  50.740  1.00  0.00     0.274 C 
BRANCH  20  21
HETATM   21  C   UNL     1      24.845  45.474  50.757  1.00  0.00     0.004 A 
HETATM   22  C   UNL     1      25.345  46.198  49.689  1.00  0.00     0.122 A 
HETATM   23  N   UNL     1      25.900  47.331  50.220  1.00  0.00    -0.285 N 
HETATM   24  C   UNL     1      26.595  48.386  49.516  1.00  0.00     0.179 C 
HETATM   25  N   UNL     1      25.715  47.424  51.547  1.00  0.00    -0.185 NA
HETATM   26  C   UNL     1      25.149  46.270  51.884  1.00  0.00     0.149 A 
ENDBRANCH  20  21
ENDBRANCH  17  20
ENDBRANCH   9  17
BRANCH   1  27
HETATM   27  C   UNL     1      26.483  38.239  47.373  1.00  0.00     0.180 C 
HETATM   28  C   UNL     1      25.635  36.978  47.541  1.00  0.00     0.039 C 
HETATM   29  C   UNL     1      27.292  38.131  46.079  1.00  0.00     0.039 C 
ENDBRANCH   1  27
TORSDOF 4
ENDMDL
MODEL 8
REMARK VINA RESULT:      -7.7     17.488     19.684
REMARK  4 active torsions:
REMARK  status: ('A' for Active; 'I' for Inactive)
REMARK    1  A    between atoms: C_2  and  N_3 
REMARK    2  A    between atoms: C_11  and  N_12 
REMARK    3  A    between atoms: N_12  and  C_15 
REMARK    4  A    between atoms: C_15  and  C_16 
ROOT
HETATM    1  N   UNL     1      36.630  45.196  67.891  1.00  0.00    -0.067 N 
HETATM    2  H   UNL     1      36.566  44.924  68.885  1.00  0.00     0.280 HD
HETATM    3  C   UNL     1      35.533  44.406  67.200  1.00  0.00     0.238 C 
HETATM    4  C   UNL     1      35.642  44.556  65.685  1.00  0.00     0.066 C 
HETATM    5  C   UNL     1      37.021  44.116  65.132  1.00  0.00     0.073 C 
HETATM    6  O   UNL     1      37.136  42.721  65.432  1.00  0.00    -0.339 OA
HETATM    7  C   UNL     1      37.892  41.925  64.624  1.00  0.00     0.078 A 
HETATM    8  C   UNL     1      38.393  42.304  63.375  1.00  0.00     0.006 A 
HETATM    9  C   UNL     1      38.165  43.684  62.838  1.00  0.00     0.224 C 
HETATM   10  C   UNL     1      37.032  44.376  63.609  1.00  0.00     0.076 C 
HETATM   11  C   UNL     1      38.107  40.634  65.113  1.00  0.00     0.037 A 
HETATM   12  C   UNL     1      38.822  39.705  64.361  1.00  0.00     0.003 A 
HETATM   13  C   UNL     1      39.306  40.058  63.108  1.00  0.00     0.001 A 
HETATM   14  C   UNL     1      39.085  41.345  62.612  1.00  0.00     0.012 A 
HETATM   15  C   UNL     1      38.128  44.852  65.914  1.00  0.00     0.066 C 
HETATM   16  C   UNL     1      37.973  44.679  67.427  1.00  0.00     0.238 C 
ENDROOT
BRANCH   9  17
HETATM   17  N   UNL     1      39.392  44.549  62.871  1.00  0.00    -0.063 N 
HETATM   18  H   UNL     1      39.639  44.857  61.923  1.00  0.00     0.278 HD
HETATM   19  H   UNL     1      39.225  45.391  63.430  1.00  0.00     0.278 HD
BRANCH  17  20
HETATM   20  C   UNL     1      40.651  43.940  63.416  1.00  0.00     0.274 C 
BRANCH  20  21
HETATM   21  C   UNL     1      41.505  45.032  63.933  1.00  0.00     0.004 A 
HETATM   22  C   UNL     1      42.884  45.080  64.025  1.00  0.00     0.122 A 
HETATM   23  N   UNL     1      43.192  46.310  64.541  1.00  0.00    -0.285 N 
HETATM   24  C   UNL     1      44.502  46.826  64.870  1.00  0.00     0.179 C 
HETATM   25  N   UNL     1      42.109  47.086  64.706  1.00  0.00    -0.185 NA
HETATM   26  C   UNL     1      41.084  46.292  64.415  1.00  0.00     0.149 A 
ENDBRANCH  20  21
ENDBRANCH  17  20
ENDBRANCH   9  17
BRANCH   1  27
HETATM   27  C   UNL     1      36.446  46.725  67.903  1.00  0.00     0.180 C 
HETATM   28  C   UNL     1      37.652  47.405  68.554  1.00  0.00     0.039 C 
HETATM   29  C   UNL     1      35.182  47.093  68.682  1.00  0.00     0.039 C 
ENDBRANCH   1  27
TORSDOF 4
ENDMDL
MODEL 9
REMARK VINA RESULT:      -7.6     11.486     14.911
REMARK  4 active torsions:
REMARK  status: ('A' for Active; 'I' for Inactive)
REMARK    1  A    between atoms: C_2  and  N_3 
REMARK    2  A    between atoms: C_11  and  N_12 
REMARK    3  A    between atoms: N_12  and  C_15 
REMARK    4  A    between atoms: C_15  and  C_16 
ROOT
HETATM    1  N   UNL     1      29.878  52.740  39.820  1.00  0.00    -0.067 N 
HETATM    2  H   UNL     1      29.495  53.434  39.158  1.00  0.00     0.280 HD
HETATM    3  C   UNL     1      30.634  53.561  40.850  1.00  0.00     0.238 C 
HETATM    4  C   UNL     1      31.426  52.649  41.782  1.00  0.00     0.066 C 
HETATM    5  C   UNL     1      32.418  51.728  41.027  1.00  0.00     0.073 C 
HETATM    6  O   UNL     1      33.355  52.603  40.389  1.00  0.00    -0.339 OA
HETATM    7  C   UNL     1      34.624  52.163  40.154  1.00  0.00     0.078 A 
HETATM    8  C   UNL     1      35.176  50.997  40.693  1.00  0.00     0.006 A 
HETATM    9  C   UNL     1      34.362  50.087  41.561  1.00  0.00     0.224 C 
HETATM   10  C   UNL     1      33.106  50.811  42.064  1.00  0.00     0.076 C 
HETATM   11  C   UNL     1      35.394  53.008  39.350  1.00  0.00     0.037 A 
HETATM   12  C   UNL     1      36.723  52.699  39.075  1.00  0.00     0.003 A 
HETATM   13  C   UNL     1      37.294  51.557  39.621  1.00  0.00     0.001 A 
HETATM   14  C   UNL     1      36.531  50.716  40.433  1.00  0.00     0.012 A 
HETATM   15  C   UNL     1      31.654  50.976  39.918  1.00  0.00     0.066 C 
HETATM   16  C   UNL     1      30.869  51.932  39.015  1.00  0.00     0.238 C 
ENDROOT
BRANCH   9  17
HETATM   17  N   UNL     1      33.962  48.810  40.879  1.00  0.00    -0.063 N 
HETATM   18  H   UNL     1      33.358  49.009  40.073  1.00  0.00     0.278 HD
HETATM   19  H   UNL     1      34.787  48.316  40.526  1.00  0.00     0.278 HD
BRANCH  17  20
HETATM   20  C   UNL     1      33.200  47.804  41.692  1.00  0.00     0.274 C 
BRANCH  20  21
HETATM   21  C   UNL     1      31.797  47.801  41.223  1.00  0.00     0.004 A 
HETATM   22  C   UNL     1      30.671  48.288  41.862  1.00  0.00     0.122 A 
HETATM   23  N   UNL     1      29.623  48.076  41.008  1.00  0.00    -0.285 N 
HETATM   24  C   UNL     1      28.226  48.368  41.236  1.00  0.00     0.179 C 
HETATM   25  N   UNL     1      30.012  47.564  39.829  1.00  0.00    -0.185 NA
HETATM   26  C   UNL     1      31.310  47.324  39.984  1.00  0.00     0.149 A 
ENDBRANCH  20  21
ENDBRANCH  17  20
ENDBRANCH   9  17
BRANCH   1  27
HETATM   27  C   UNL     1      28.639  51.990  40.343  1.00  0.00     0.180 C 
HETATM   28  C   UNL     1      27.763  51.524  39.179  1.00  0.00     0.039 C 
HETATM   29  C   UNL     1      27.819  52.907  41.252  1.00  0.00     0.039 C 
ENDBRANCH   1  27
TORSDOF 4
ENDMDL
MODEL 10
REMARK VINA RESULT:      -7.6     11.088     12.459
REMARK  4 active torsions:
REMARK  status: ('A' for Active; 'I' for Inactive)
REMARK    1  A    between atoms: C_2  and  N_3 
REMARK    2  A    between atoms: C_11  and  N_12 
REMARK    3  A    between atoms: N_12  and  C_15 
REMARK    4  A    between atoms: C_15  and  C_16 
ROOT
HETATM    1  N   UNL     1      33.118  49.648  40.559  1.00  0.00    -0.067 N 
HETATM    2  H   UNL     1      33.987  49.431  40.046  1.00  0.00     0.280 HD
HETATM    3  C   UNL     1      32.939  48.491  41.526  1.00  0.00     0.238 C 
HETATM    4  C   UNL     1      31.580  48.577  42.214  1.00  0.00     0.066 C 
HETATM    5  C   UNL     1      30.397  48.600  41.212  1.00  0.00     0.073 C 
HETATM    6  O   UNL     1      30.446  47.348  40.519  1.00  0.00    -0.339 OA
HETATM    7  C   UNL     1      29.293  46.810  40.031  1.00  0.00     0.078 A 
HETATM    8  C   UNL     1      28.007  47.261  40.347  1.00  0.00     0.006 A 
HETATM    9  C   UNL     1      27.801  48.445  41.241  1.00  0.00     0.224 C 
HETATM   10  C   UNL     1      29.088  48.756  42.020  1.00  0.00     0.076 C 
HETATM   11  C   UNL     1      29.472  45.701  39.200  1.00  0.00     0.037 A 
HETATM   12  C   UNL     1      28.372  45.028  38.676  1.00  0.00     0.003 A 
HETATM   13  C   UNL     1      27.088  45.448  38.999  1.00  0.00     0.001 A 
HETATM   14  C   UNL     1      26.905  46.550  39.836  1.00  0.00     0.012 A 
HETATM   15  C   UNL     1      30.644  49.716  40.176  1.00  0.00     0.066 C 
HETATM   16  C   UNL     1      32.022  49.592  39.520  1.00  0.00     0.238 C 
ENDROOT
BRANCH   9  17
HETATM   17  N   UNL     1      27.352  49.677  40.509  1.00  0.00    -0.063 N 
HETATM   18  H   UNL     1      28.013  49.907  39.757  1.00  0.00     0.278 HD
HETATM   19  H   UNL     1      26.438  49.524  40.073  1.00  0.00     0.278 HD
BRANCH  17  20
HETATM   20  C   UNL     1      27.220  50.942  41.305  1.00  0.00     0.274 C 
BRANCH  20  21
HETATM   21  C   UNL     1      28.191  51.924  40.774  1.00  0.00     0.004 A 
HETATM   22  C   UNL     1      29.168  52.627  41.455  1.00  0.00     0.122 A 
HETATM   23  N   UNL     1      29.821  53.383  40.518  1.00  0.00    -0.285 N 
HETATM   24  C   UNL     1      30.894  54.327  40.737  1.00  0.00     0.179 C 
HETATM   25  N   UNL     1      29.385  53.148  39.270  1.00  0.00    -0.185 NA
HETATM   26  C   UNL     1      28.350  52.328  39.429  1.00  0.00     0.149 A 
ENDBRANCH  20  21
ENDBRANCH  17  20
ENDBRANCH   9  17
BRANCH   1  27
HETATM   27  C   UNL     1      33.390  51.020  41.203  1.00  0.00     0.180 C 
HETATM   28  C   UNL     1      33.851  52.026  40.146  1.00  0.00     0.039 C 
HETATM   29  C   UNL     1      34.471  50.889  42.276  1.00  0.00     0.039 C 
ENDBRANCH   1  27
TORSDOF 4
ENDMDL
