MODEL 1
REMARK VINA RESULT:     -10.2      0.000      0.000
REMARK  8 active torsions:
REMARK  status: ('A' for Active; 'I' for Inactive)
REMARK    1  A    between atoms: C_2  and  N_3 
REMARK       I    between atoms: N_3  and  C_4 
REMARK       I    between atoms: C_4  and  N_5 
REMARK    2  A    between atoms: N_5  and  C_6 
REMARK    3  A    between atoms: N_5  and  C_21 
REMARK    4  A    between atoms: C_6  and  C_7 
REMARK    5  A    between atoms: C_8  and  O_9 
REMARK    6  A    between atoms: C_21  and  C_22 
REMARK    7  A    between atoms: C_22  and  C_23 
REMARK    8  A    between atoms: C_23  and  N_24 
ROOT
HETATM    1  N   UNL     1      26.409  43.919  50.757  1.00  0.00    -0.309 N 
HETATM    2  C   UNL     1      26.625  45.182  50.261  1.00  0.00     0.323 C 
HETATM    3  N   UNL     1      26.078  46.227  51.022  1.00  0.00    -0.330 N 
HETATM    4  O   UNL     1      27.247  45.436  49.232  1.00  0.00    -0.247 OA
HETATM    5  H   UNL     1      25.584  43.797  51.325  1.00  0.00     0.170 HD
ENDROOT
BRANCH   3   6
HETATM    6  C   UNL     1      25.468  46.016  52.344  1.00  0.00     0.170 C 
BRANCH   6   7
HETATM    7  C   UNL     1      26.407  46.004  53.517  1.00  0.00     0.013 A 
HETATM    8  C   UNL     1      26.495  47.024  54.456  1.00  0.00     0.170 A 
HETATM    9  N   UNL     1      27.345  47.034  55.499  1.00  0.00    -0.224 NA
HETATM   10  C   UNL     1      28.246  46.040  55.596  1.00  0.00     0.072 A 
HETATM   11  C   UNL     1      28.277  44.964  54.669  1.00  0.00    -0.004 A 
HETATM   12  C   UNL     1      29.194  46.067  56.614  1.00  0.00     0.072 A 
HETATM   13  C   UNL     1      27.329  44.959  53.640  1.00  0.00     0.027 A 
HETATM   14  C   UNL     1      29.240  43.944  54.769  1.00  0.00     0.053 A 
HETATM   15  C   UNL     1      30.162  44.029  55.784  1.00  0.00     0.106 A 
HETATM   16  C   UNL     1      30.139  45.063  56.683  1.00  0.00     0.107 A 
HETATM   17  O   UNL     1      31.174  43.155  56.015  1.00  0.00    -0.323 OA
HETATM   18  O   UNL     1      31.139  44.970  57.600  1.00  0.00    -0.323 OA
HETATM   19  C   UNL     1      31.816  43.776  57.150  1.00  0.00     0.352 A 
BRANCH   8  20
HETATM   20  O   UNL     1      25.674  48.117  54.415  1.00  0.00    -0.344 OA
HETATM   21  H   UNL     1      25.134  48.094  55.222  1.00  0.00     0.219 HD
ENDBRANCH   8  20
ENDBRANCH   6   7
ENDBRANCH   3   6
BRANCH   3  22
HETATM   22  C   UNL     1      25.735  47.454  50.283  1.00  0.00     0.129 C 
BRANCH  22  23
HETATM   23  C   UNL     1      24.334  47.500  49.652  1.00  0.00     0.048 C 
BRANCH  23  24
HETATM   24  C   UNL     1      23.899  48.898  49.227  1.00  0.00     0.236 C 
BRANCH  24  25
HETATM   25  N   UNL     1      22.500  49.220  49.716  1.00  0.00    -0.067 N 
HETATM   26  H   UNL     1      22.428  48.919  50.695  1.00  0.00     0.280 HD
HETATM   27  C   UNL     1      22.156  50.709  49.654  1.00  0.00     0.261 C 
HETATM   28  C   UNL     1      20.710  50.915  50.127  1.00  0.00     0.195 C 
HETATM   29  O   UNL     1      19.790  50.149  49.342  1.00  0.00    -0.388 OA
HETATM   30  C   UNL     1      20.058  48.746  49.428  1.00  0.00     0.195 C 
HETATM   31  C   UNL     1      21.464  48.425  48.917  1.00  0.00     0.261 C 
ENDBRANCH  24  25
ENDBRANCH  23  24
ENDBRANCH  22  23
ENDBRANCH   3  22
BRANCH   1  32
HETATM   32  C   UNL     1      26.962  42.708  50.283  1.00  0.00     0.036 A 
HETATM   33  C   UNL     1      26.780  42.226  48.983  1.00  0.00     0.032 A 
HETATM   34  C   UNL     1      27.363  41.017  48.593  1.00  0.00     0.044 A 
HETATM   35  C   UNL     1      28.133  40.296  49.498  1.00  0.00     0.116 A 
HETATM   36  C   UNL     1      28.335  40.766  50.788  1.00  0.00     0.044 A 
HETATM   37  F   UNL     1      28.686  39.137  49.121  1.00  0.00    -0.206 F 
HETATM   38  C   UNL     1      27.753  41.974  51.180  1.00  0.00     0.032 A 
ENDBRANCH   1  32
TORSDOF 8
ENDMDL
MODEL 2
REMARK VINA RESULT:     -10.1      3.384      7.531
REMARK  8 active torsions:
REMARK  status: ('A' for Active; 'I' for Inactive)
REMARK    1  A    between atoms: C_2  and  N_3 
REMARK       I    between atoms: N_3  and  C_4 
REMARK       I    between atoms: C_4  and  N_5 
REMARK    2  A    between atoms: N_5  and  C_6 
REMARK    3  A    between atoms: N_5  and  C_21 
REMARK    4  A    between atoms: C_6  and  C_7 
REMARK    5  A    between atoms: C_8  and  O_9 
REMARK    6  A    between atoms: C_21  and  C_22 
REMARK    7  A    between atoms: C_22  and  C_23 
REMARK    8  A    between atoms: C_23  and  N_24 
ROOT
HETATM    1  N   UNL     1      28.726  44.499  53.881  1.00  0.00    -0.309 N 
HETATM    2  C   UNL     1      27.355  44.578  53.845  1.00  0.00     0.323 C 
HETATM    3  N   UNL     1      26.783  44.478  52.567  1.00  0.00    -0.330 N 
HETATM    4  O   UNL     1      26.632  44.720  54.829  1.00  0.00    -0.247 OA
HETATM    5  H   UNL     1      29.214  44.796  53.049  1.00  0.00     0.170 HD
ENDROOT
BRANCH   3   6
HETATM    6  C   UNL     1      27.565  44.142  51.368  1.00  0.00     0.170 C 
BRANCH   6   7
HETATM    7  C   UNL     1      27.463  42.724  50.882  1.00  0.00     0.013 A 
HETATM    8  C   UNL     1      28.294  41.692  51.305  1.00  0.00     0.170 A 
HETATM    9  N   UNL     1      28.224  40.424  50.862  1.00  0.00    -0.224 NA
HETATM   10  C   UNL     1      27.362  40.141  49.870  1.00  0.00     0.072 A 
HETATM   11  C   UNL     1      26.492  41.125  49.330  1.00  0.00    -0.004 A 
HETATM   12  C   UNL     1      27.329  38.859  49.331  1.00  0.00     0.072 A 
HETATM   13  C   UNL     1      26.550  42.415  49.869  1.00  0.00     0.027 A 
HETATM   14  C   UNL     1      25.612  40.821  48.276  1.00  0.00     0.053 A 
HETATM   15  C   UNL     1      25.633  39.543  47.772  1.00  0.00     0.106 A 
HETATM   16  C   UNL     1      26.468  38.586  48.286  1.00  0.00     0.107 A 
HETATM   17  O   UNL     1      24.876  39.081  46.743  1.00  0.00    -0.323 OA
HETATM   18  O   UNL     1      26.343  37.395  47.644  1.00  0.00    -0.323 OA
HETATM   19  C   UNL     1      25.358  37.723  46.641  1.00  0.00     0.352 A 
BRANCH   8  20
HETATM   20  O   UNL     1      29.252  41.882  52.260  1.00  0.00    -0.344 OA
HETATM   21  H   UNL     1      28.860  42.450  52.944  1.00  0.00     0.219 HD
ENDBRANCH   8  20
ENDBRANCH   6   7
ENDBRANCH   3   6
BRANCH   3  22
HETATM   22  C   UNL     1      25.482  45.146  52.388  1.00  0.00     0.129 C 
BRANCH  22  23
HETATM   23  C   UNL     1      25.527  46.615  51.938  1.00  0.00     0.048 C 
BRANCH  23  24
HETATM   24  C   UNL     1      24.955  46.847  50.544  1.00  0.00     0.236 C 
BRANCH  24  25
HETATM   25  N   UNL     1      25.432  48.161  49.956  1.00  0.00    -0.067 N 
HETATM   26  H   UNL     1      25.410  48.869  50.699  1.00  0.00     0.280 HD
HETATM   27  C   UNL     1      26.856  48.105  49.401  1.00  0.00     0.261 C 
HETATM   28  C   UNL     1      27.218  49.468  48.794  1.00  0.00     0.195 C 
HETATM   29  O   UNL     1      26.290  49.846  47.771  1.00  0.00    -0.388 OA
HETATM   30  C   UNL     1      24.957  49.960  48.279  1.00  0.00     0.195 C 
HETATM   31  C   UNL     1      24.475  48.626  48.854  1.00  0.00     0.261 C 
ENDBRANCH  24  25
ENDBRANCH  23  24
ENDBRANCH  22  23
ENDBRANCH   3  22
BRANCH   1  32
HETATM   32  C   UNL     1      29.548  44.424  55.029  1.00  0.00     0.036 A 
HETATM   33  C   UNL     1      30.384  43.341  55.317  1.00  0.00     0.032 A 
HETATM   34  C   UNL     1      31.167  43.345  56.476  1.00  0.00     0.044 A 
HETATM   35  C   UNL     1      31.119  44.434  57.338  1.00  0.00     0.116 A 
HETATM   36  C   UNL     1      30.305  45.523  57.062  1.00  0.00     0.044 A 
HETATM   37  F   UNL     1      31.868  44.432  58.448  1.00  0.00    -0.206 F 
HETATM   38  C   UNL     1      29.522  45.520  55.904  1.00  0.00     0.032 A 
ENDBRANCH   1  32
TORSDOF 8
ENDMDL
MODEL 3
REMARK VINA RESULT:     -10.0      3.075      6.322
REMARK  8 active torsions:
REMARK  status: ('A' for Active; 'I' for Inactive)
REMARK    1  A    between atoms: C_2  and  N_3 
REMARK       I    between atoms: N_3  and  C_4 
REMARK       I    between atoms: C_4  and  N_5 
REMARK    2  A    between atoms: N_5  and  C_6 
REMARK    3  A    between atoms: N_5  and  C_21 
REMARK    4  A    between atoms: C_6  and  C_7 
REMARK    5  A    between atoms: C_8  and  O_9 
REMARK    6  A    between atoms: C_21  and  C_22 
REMARK    7  A    between atoms: C_22  and  C_23 
REMARK    8  A    between atoms: C_23  and  N_24 
ROOT
HETATM    1  N   UNL     1      27.802  44.957  54.781  1.00  0.00    -0.309 N 
HETATM    2  C   UNL     1      27.273  46.164  54.393  1.00  0.00     0.323 C 
HETATM    3  N   UNL     1      26.008  46.098  53.790  1.00  0.00    -0.330 N 
HETATM    4  O   UNL     1      27.824  47.253  54.541  1.00  0.00    -0.247 OA
HETATM    5  H   UNL     1      27.493  44.146  54.265  1.00  0.00     0.170 HD
ENDROOT
BRANCH   3   6
HETATM    6  C   UNL     1      25.218  44.859  53.728  1.00  0.00     0.170 C 
BRANCH   6   7
HETATM    7  C   UNL     1      25.451  43.979  52.533  1.00  0.00     0.013 A 
HETATM    8  C   UNL     1      24.567  43.858  51.468  1.00  0.00     0.170 A 
HETATM    9  N   UNL     1      24.757  43.058  50.403  1.00  0.00    -0.224 NA
HETATM   10  C   UNL     1      25.823  42.239  50.402  1.00  0.00     0.072 A 
HETATM   11  C   UNL     1      26.773  42.245  51.459  1.00  0.00    -0.004 A 
HETATM   12  C   UNL     1      26.000  41.339  49.357  1.00  0.00     0.072 A 
HETATM   13  C   UNL     1      26.573  43.143  52.513  1.00  0.00     0.027 A 
HETATM   14  C   UNL     1      27.871  41.366  51.457  1.00  0.00     0.053 A 
HETATM   15  C   UNL     1      27.987  40.487  50.407  1.00  0.00     0.106 A 
HETATM   16  C   UNL     1      27.076  40.474  49.384  1.00  0.00     0.107 A 
HETATM   17  O   UNL     1      28.961  39.554  50.255  1.00  0.00    -0.323 OA
HETATM   18  O   UNL     1      27.363  39.527  48.452  1.00  0.00    -0.323 OA
HETATM   19  C   UNL     1      28.540  38.920  49.027  1.00  0.00     0.352 A 
BRANCH   8  20
HETATM   20  O   UNL     1      23.417  44.593  51.397  1.00  0.00    -0.344 OA
HETATM   21  H   UNL     1      23.027  44.591  52.286  1.00  0.00     0.219 HD
ENDBRANCH   8  20
ENDBRANCH   6   7
ENDBRANCH   3   6
BRANCH   3  22
HETATM   22  C   UNL     1      25.687  47.179  52.841  1.00  0.00     0.129 C 
BRANCH  22  23
HETATM   23  C   UNL     1      26.328  47.075  51.448  1.00  0.00     0.048 C 
BRANCH  23  24
HETATM   24  C   UNL     1      25.329  47.201  50.303  1.00  0.00     0.236 C 
BRANCH  24  25
HETATM   25  N   UNL     1      25.404  48.565  49.644  1.00  0.00    -0.067 N 
HETATM   26  H   UNL     1      25.283  49.278  50.372  1.00  0.00     0.280 HD
HETATM   27  C   UNL     1      26.734  48.832  48.938  1.00  0.00     0.261 C 
HETATM   28  C   UNL     1      26.685  50.214  48.271  1.00  0.00     0.195 C 
HETATM   29  O   UNL     1      25.594  50.309  47.348  1.00  0.00    -0.388 OA
HETATM   30  C   UNL     1      24.333  50.117  47.996  1.00  0.00     0.195 C 
HETATM   31  C   UNL     1      24.256  48.733  48.644  1.00  0.00     0.261 C 
ENDBRANCH  24  25
ENDBRANCH  23  24
ENDBRANCH  22  23
ENDBRANCH   3  22
BRANCH   1  32
HETATM   32  C   UNL     1      28.978  44.741  55.535  1.00  0.00     0.036 A 
HETATM   33  C   UNL     1      29.333  45.496  56.656  1.00  0.00     0.032 A 
HETATM   34  C   UNL     1      30.516  45.217  57.347  1.00  0.00     0.044 A 
HETATM   35  C   UNL     1      31.336  44.179  56.922  1.00  0.00     0.116 A 
HETATM   36  C   UNL     1      30.993  43.410  55.819  1.00  0.00     0.044 A 
HETATM   37  F   UNL     1      32.470  43.917  57.584  1.00  0.00    -0.206 F 
HETATM   38  C   UNL     1      29.811  43.688  55.128  1.00  0.00     0.032 A 
ENDBRANCH   1  32
TORSDOF 8
ENDMDL
MODEL 4
REMARK VINA RESULT:      -9.9      3.285      7.091
REMARK  8 active torsions:
REMARK  status: ('A' for Active; 'I' for Inactive)
REMARK    1  A    between atoms: C_2  and  N_3 
REMARK       I    between atoms: N_3  and  C_4 
REMARK       I    between atoms: C_4  and  N_5 
REMARK    2  A    between atoms: N_5  and  C_6 
REMARK    3  A    between atoms: N_5  and  C_21 
REMARK    4  A    between atoms: C_6  and  C_7 
REMARK    5  A    between atoms: C_8  and  O_9 
REMARK    6  A    between atoms: C_21  and  C_22 
REMARK    7  A    between atoms: C_22  and  C_23 
REMARK    8  A    between atoms: C_23  and  N_24 
ROOT
HETATM    1  N   UNL     1      28.508  44.608  53.574  1.00  0.00    -0.309 N 
HETATM    2  C   UNL     1      27.134  44.643  53.576  1.00  0.00     0.323 C 
HETATM    3  N   UNL     1      26.534  44.673  52.307  1.00  0.00    -0.330 N 
HETATM    4  O   UNL     1      26.432  44.644  54.585  1.00  0.00    -0.247 OA
HETATM    5  H   UNL     1      28.964  45.017  52.772  1.00  0.00     0.170 HD
ENDROOT
BRANCH   3   6
HETATM    6  C   UNL     1      27.296  44.507  51.060  1.00  0.00     0.170 C 
BRANCH   6   7
HETATM    7  C   UNL     1      26.973  43.290  50.240  1.00  0.00     0.013 A 
HETATM    8  C   UNL     1      26.019  43.261  49.230  1.00  0.00     0.170 A 
HETATM    9  N   UNL     1      25.708  42.173  48.502  1.00  0.00    -0.224 NA
HETATM   10  C   UNL     1      26.281  41.001  48.830  1.00  0.00     0.072 A 
HETATM   11  C   UNL     1      27.241  40.903  49.872  1.00  0.00    -0.004 A 
HETATM   12  C   UNL     1      25.915  39.842  48.153  1.00  0.00     0.072 A 
HETATM   13  C   UNL     1      27.586  42.073  50.556  1.00  0.00     0.027 A 
HETATM   14  C   UNL     1      27.816  39.667  50.220  1.00  0.00     0.053 A 
HETATM   15  C   UNL     1      27.406  38.553  49.529  1.00  0.00     0.106 A 
HETATM   16  C   UNL     1      26.480  38.637  48.522  1.00  0.00     0.107 A 
HETATM   17  O   UNL     1      27.830  37.281  49.746  1.00  0.00    -0.323 OA
HETATM   18  O   UNL     1      26.204  37.425  47.974  1.00  0.00    -0.323 OA
HETATM   19  C   UNL     1      27.035  36.561  48.779  1.00  0.00     0.352 A 
BRANCH   8  20
HETATM   20  O   UNL     1      25.324  44.378  48.859  1.00  0.00    -0.344 OA
HETATM   21  H   UNL     1      24.838  44.680  49.644  1.00  0.00     0.219 HD
ENDBRANCH   8  20
ENDBRANCH   6   7
ENDBRANCH   3   6
BRANCH   3  22
HETATM   22  C   UNL     1      25.208  45.312  52.235  1.00  0.00     0.129 C 
BRANCH  22  23
HETATM   23  C   UNL     1      25.188  46.798  51.844  1.00  0.00     0.048 C 
BRANCH  23  24
HETATM   24  C   UNL     1      24.645  47.056  50.443  1.00  0.00     0.236 C 
BRANCH  24  25
HETATM   25  N   UNL     1      25.214  48.330  49.849  1.00  0.00    -0.067 N 
HETATM   26  H   UNL     1      25.197  49.055  50.576  1.00  0.00     0.280 HD
HETATM   27  C   UNL     1      26.654  48.189  49.356  1.00  0.00     0.261 C 
HETATM   28  C   UNL     1      27.111  49.518  48.737  1.00  0.00     0.195 C 
HETATM   29  O   UNL     1      26.246  49.920  47.668  1.00  0.00    -0.388 OA
HETATM   30  C   UNL     1      24.902  50.112  48.117  1.00  0.00     0.195 C 
HETATM   31  C   UNL     1      24.328  48.818  48.698  1.00  0.00     0.261 C 
ENDBRANCH  24  25
ENDBRANCH  23  24
ENDBRANCH  22  23
ENDBRANCH   3  22
BRANCH   1  32
HETATM   32  C   UNL     1      29.360  44.427  54.687  1.00  0.00     0.036 A 
HETATM   33  C   UNL     1      30.107  43.268  54.915  1.00  0.00     0.032 A 
HETATM   34  C   UNL     1      30.928  43.170  56.043  1.00  0.00     0.044 A 
HETATM   35  C   UNL     1      31.007  44.232  56.934  1.00  0.00     0.116 A 
HETATM   36  C   UNL     1      30.283  45.396  56.718  1.00  0.00     0.044 A 
HETATM   37  F   UNL     1      31.792  44.133  58.014  1.00  0.00    -0.206 F 
HETATM   38  C   UNL     1      29.462  45.495  55.591  1.00  0.00     0.032 A 
ENDBRANCH   1  32
TORSDOF 8
ENDMDL
MODEL 5
REMARK VINA RESULT:      -9.6      3.296      9.111
REMARK  8 active torsions:
REMARK  status: ('A' for Active; 'I' for Inactive)
REMARK    1  A    between atoms: C_2  and  N_3 
REMARK       I    between atoms: N_3  and  C_4 
REMARK       I    between atoms: C_4  and  N_5 
REMARK    2  A    between atoms: N_5  and  C_6 
REMARK    3  A    between atoms: N_5  and  C_21 
REMARK    4  A    between atoms: C_6  and  C_7 
REMARK    5  A    between atoms: C_8  and  O_9 
REMARK    6  A    between atoms: C_21  and  C_22 
REMARK    7  A    between atoms: C_22  and  C_23 
REMARK    8  A    between atoms: C_23  and  N_24 
ROOT
HETATM    1  N   UNL     1      28.491  43.738  54.326  1.00  0.00    -0.309 N 
HETATM    2  C   UNL     1      28.730  43.534  52.988  1.00  0.00     0.323 C 
HETATM    3  N   UNL     1      27.587  43.504  52.174  1.00  0.00    -0.330 N 
HETATM    4  O   UNL     1      29.842  43.386  52.486  1.00  0.00    -0.247 OA
HETATM    5  H   UNL     1      27.592  43.437  54.671  1.00  0.00     0.170 HD
ENDROOT
BRANCH   3   6
HETATM    6  C   UNL     1      26.244  43.836  52.671  1.00  0.00     0.170 C 
BRANCH   6   7
HETATM    7  C   UNL     1      25.355  44.599  51.731  1.00  0.00     0.013 A 
HETATM    8  C   UNL     1      24.285  44.040  51.042  1.00  0.00     0.170 A 
HETATM    9  N   UNL     1      23.495  44.708  50.183  1.00  0.00    -0.224 NA
HETATM   10  C   UNL     1      23.810  45.981  49.884  1.00  0.00     0.072 A 
HETATM   11  C   UNL     1      24.907  46.644  50.496  1.00  0.00    -0.004 A 
HETATM   12  C   UNL     1      23.064  46.671  48.934  1.00  0.00     0.072 A 
HETATM   13  C   UNL     1      25.660  45.932  51.436  1.00  0.00     0.027 A 
HETATM   14  C   UNL     1      25.240  47.968  50.157  1.00  0.00     0.053 A 
HETATM   15  C   UNL     1      24.479  48.595  49.201  1.00  0.00     0.106 A 
HETATM   16  C   UNL     1      23.418  47.965  48.606  1.00  0.00     0.107 A 
HETATM   17  O   UNL     1      24.670  49.855  48.732  1.00  0.00    -0.323 OA
HETATM   18  O   UNL     1      22.803  48.751  47.682  1.00  0.00    -0.323 OA
HETATM   19  C   UNL     1      23.624  49.938  47.740  1.00  0.00     0.352 A 
BRANCH   8  20
HETATM   20  O   UNL     1      23.917  42.735  51.216  1.00  0.00    -0.344 OA
HETATM   21  H   UNL     1      24.360  42.223  50.520  1.00  0.00     0.219 HD
ENDBRANCH   8  20
ENDBRANCH   6   7
ENDBRANCH   3   6
BRANCH   3  22
HETATM   22  C   UNL     1      27.697  42.711  50.936  1.00  0.00     0.129 C 
BRANCH  22  23
HETATM   23  C   UNL     1      27.247  41.244  51.025  1.00  0.00     0.048 C 
BRANCH  23  24
HETATM   24  C   UNL     1      28.403  40.250  51.067  1.00  0.00     0.236 C 
BRANCH  24  25
HETATM   25  N   UNL     1      28.161  39.073  50.141  1.00  0.00    -0.067 N 
HETATM   26  H   UNL     1      28.267  38.211  50.689  1.00  0.00     0.280 HD
HETATM   27  C   UNL     1      26.767  39.064  49.511  1.00  0.00     0.261 C 
HETATM   28  C   UNL     1      26.647  37.861  48.565  1.00  0.00     0.195 C 
HETATM   29  O   UNL     1      27.661  37.891  47.553  1.00  0.00    -0.388 OA
HETATM   30  C   UNL     1      28.975  37.845  48.117  1.00  0.00     0.195 C 
HETATM   31  C   UNL     1      29.219  39.044  49.035  1.00  0.00     0.261 C 
ENDBRANCH  24  25
ENDBRANCH  23  24
ENDBRANCH  22  23
ENDBRANCH   3  22
BRANCH   1  32
HETATM   32  C   UNL     1      29.449  43.957  55.341  1.00  0.00     0.036 A 
HETATM   33  C   UNL     1      30.461  43.048  55.666  1.00  0.00     0.032 A 
HETATM   34  C   UNL     1      31.371  43.342  56.686  1.00  0.00     0.044 A 
HETATM   35  C   UNL     1      31.274  44.546  57.372  1.00  0.00     0.116 A 
HETATM   36  C   UNL     1      30.285  45.466  57.055  1.00  0.00     0.044 A 
HETATM   37  F   UNL     1      32.146  44.823  58.350  1.00  0.00    -0.206 F 
HETATM   38  C   UNL     1      29.375  45.174  56.036  1.00  0.00     0.032 A 
ENDBRANCH   1  32
TORSDOF 8
ENDMDL
MODEL 6
REMARK VINA RESULT:      -9.4      3.238      9.232
REMARK  8 active torsions:
REMARK  status: ('A' for Active; 'I' for Inactive)
REMARK    1  A    between atoms: C_2  and  N_3 
REMARK       I    between atoms: N_3  and  C_4 
REMARK       I    between atoms: C_4  and  N_5 
REMARK    2  A    between atoms: N_5  and  C_6 
REMARK    3  A    between atoms: N_5  and  C_21 
REMARK    4  A    between atoms: C_6  and  C_7 
REMARK    5  A    between atoms: C_8  and  O_9 
REMARK    6  A    between atoms: C_21  and  C_22 
REMARK    7  A    between atoms: C_22  and  C_23 
REMARK    8  A    between atoms: C_23  and  N_24 
ROOT
HETATM    1  N   UNL     1      28.394  44.154  54.450  1.00  0.00    -0.309 N 
HETATM    2  C   UNL     1      28.592  43.765  53.147  1.00  0.00     0.323 C 
HETATM    3  N   UNL     1      27.467  43.870  52.314  1.00  0.00    -0.330 N 
HETATM    4  O   UNL     1      29.656  43.353  52.689  1.00  0.00    -0.247 OA
HETATM    5  H   UNL     1      27.453  44.070  54.804  1.00  0.00     0.170 HD
ENDROOT
BRANCH   3   6
HETATM    6  C   UNL     1      26.213  44.506  52.743  1.00  0.00     0.170 C 
BRANCH   6   7
HETATM    7  C   UNL     1      25.544  45.403  51.740  1.00  0.00     0.013 A 
HETATM    8  C   UNL     1      25.603  46.791  51.773  1.00  0.00     0.170 A 
HETATM    9  N   UNL     1      24.991  47.604  50.892  1.00  0.00    -0.224 NA
HETATM   10  C   UNL     1      24.183  47.052  49.970  1.00  0.00     0.072 A 
HETATM   11  C   UNL     1      24.013  45.645  49.868  1.00  0.00    -0.004 A 
HETATM   12  C   UNL     1      23.469  47.870  49.101  1.00  0.00     0.072 A 
HETATM   13  C   UNL     1      24.723  44.834  50.760  1.00  0.00     0.027 A 
HETATM   14  C   UNL     1      23.146  45.082  48.914  1.00  0.00     0.053 A 
HETATM   15  C   UNL     1      22.454  45.939  48.093  1.00  0.00     0.106 A 
HETATM   16  C   UNL     1      22.612  47.297  48.182  1.00  0.00     0.107 A 
HETATM   17  O   UNL     1      21.559  45.577  47.138  1.00  0.00    -0.323 OA
HETATM   18  O   UNL     1      21.833  47.966  47.291  1.00  0.00    -0.323 OA
HETATM   19  C   UNL     1      21.139  46.871  46.655  1.00  0.00     0.352 A 
BRANCH   8  20
HETATM   20  O   UNL     1      26.339  47.461  52.709  1.00  0.00    -0.344 OA
HETATM   21  H   UNL     1      26.549  46.823  53.411  1.00  0.00     0.219 HD
ENDBRANCH   8  20
ENDBRANCH   6   7
ENDBRANCH   3   6
BRANCH   3  22
HETATM   22  C   UNL     1      27.424  42.944  51.169  1.00  0.00     0.129 C 
BRANCH  22  23
HETATM   23  C   UNL     1      27.250  41.453  51.504  1.00  0.00     0.048 C 
BRANCH  23  24
HETATM   24  C   UNL     1      26.382  40.698  50.504  1.00  0.00     0.236 C 
BRANCH  24  25
HETATM   25  N   UNL     1      27.000  39.366  50.123  1.00  0.00    -0.067 N 
HETATM   26  H   UNL     1      26.652  38.654  50.776  1.00  0.00     0.280 HD
HETATM   27  C   UNL     1      26.654  38.913  48.703  1.00  0.00     0.261 C 
HETATM   28  C   UNL     1      27.363  37.584  48.409  1.00  0.00     0.195 C 
HETATM   29  O   UNL     1      28.781  37.702  48.571  1.00  0.00    -0.388 OA
HETATM   30  C   UNL     1      29.133  38.072  49.908  1.00  0.00     0.195 C 
HETATM   31  C   UNL     1      28.522  39.425  50.281  1.00  0.00     0.261 C 
ENDBRANCH  24  25
ENDBRANCH  23  24
ENDBRANCH  22  23
ENDBRANCH   3  22
BRANCH   1  32
HETATM   32  C   UNL     1      29.374  44.291  55.459  1.00  0.00     0.036 A 
HETATM   33  C   UNL     1      30.413  43.378  55.665  1.00  0.00     0.032 A 
HETATM   34  C   UNL     1      31.343  43.588  56.687  1.00  0.00     0.044 A 
HETATM   35  C   UNL     1      31.240  44.714  57.495  1.00  0.00     0.116 A 
HETATM   36  C   UNL     1      30.224  45.638  57.297  1.00  0.00     0.044 A 
HETATM   37  F   UNL     1      32.131  44.910  58.474  1.00  0.00    -0.206 F 
HETATM   38  C   UNL     1      29.294  45.429  56.275  1.00  0.00     0.032 A 
ENDBRANCH   1  32
TORSDOF 8
ENDMDL
MODEL 7
REMARK VINA RESULT:      -9.1      3.612      7.778
REMARK  8 active torsions:
REMARK  status: ('A' for Active; 'I' for Inactive)
REMARK    1  A    between atoms: C_2  and  N_3 
REMARK       I    between atoms: N_3  and  C_4 
REMARK       I    between atoms: C_4  and  N_5 
REMARK    2  A    between atoms: N_5  and  C_6 
REMARK    3  A    between atoms: N_5  and  C_21 
REMARK    4  A    between atoms: C_6  and  C_7 
REMARK    5  A    between atoms: C_8  and  O_9 
REMARK    6  A    between atoms: C_21  and  C_22 
REMARK    7  A    between atoms: C_22  and  C_23 
REMARK    8  A    between atoms: C_23  and  N_24 
ROOT
HETATM    1  N   UNL     1      22.384  46.337  48.392  1.00  0.00    -0.309 N 
HETATM    2  C   UNL     1      22.283  45.069  48.911  1.00  0.00     0.323 C 
HETATM    3  N   UNL     1      23.498  44.477  49.288  1.00  0.00    -0.330 N 
HETATM    4  O   UNL     1      21.230  44.452  49.060  1.00  0.00    -0.247 OA
HETATM    5  H   UNL     1      23.258  46.568  47.942  1.00  0.00     0.170 HD
ENDROOT
BRANCH   3   6
HETATM    6  C   UNL     1      24.774  45.209  49.295  1.00  0.00     0.170 C 
BRANCH   6   7
HETATM    7  C   UNL     1      25.240  45.721  50.628  1.00  0.00     0.013 A 
HETATM    8  C   UNL     1      24.928  46.977  51.135  1.00  0.00     0.170 A 
HETATM    9  N   UNL     1      25.357  47.453  52.318  1.00  0.00    -0.224 NA
HETATM   10  C   UNL     1      26.228  46.712  53.026  1.00  0.00     0.072 A 
HETATM   11  C   UNL     1      26.650  45.429  52.586  1.00  0.00    -0.004 A 
HETATM   12  C   UNL     1      26.756  47.215  54.211  1.00  0.00     0.072 A 
HETATM   13  C   UNL     1      26.125  44.944  51.384  1.00  0.00     0.027 A 
HETATM   14  C   UNL     1      27.580  44.675  53.324  1.00  0.00     0.053 A 
HETATM   15  C   UNL     1      28.081  45.228  54.478  1.00  0.00     0.106 A 
HETATM   16  C   UNL     1      27.679  46.464  54.911  1.00  0.00     0.107 A 
HETATM   17  O   UNL     1      29.002  44.659  55.298  1.00  0.00    -0.323 OA
HETATM   18  O   UNL     1      28.298  46.833  56.064  1.00  0.00    -0.323 OA
HETATM   19  C   UNL     1      29.165  45.699  56.287  1.00  0.00     0.352 A 
BRANCH   8  20
HETATM   20  O   UNL     1      24.106  47.841  50.467  1.00  0.00    -0.344 OA
HETATM   21  H   UNL     1      23.210  47.471  50.517  1.00  0.00     0.219 HD
ENDBRANCH   8  20
ENDBRANCH   6   7
ENDBRANCH   3   6
BRANCH   3  22
HETATM   22  C   UNL     1      23.539  43.004  49.249  1.00  0.00     0.129 C 
BRANCH  22  23
HETATM   23  C   UNL     1      24.883  42.370  48.853  1.00  0.00     0.048 C 
BRANCH  23  24
HETATM   24  C   UNL     1      24.815  40.859  48.667  1.00  0.00     0.236 C 
BRANCH  24  25
HETATM   25  N   UNL     1      25.901  40.150  49.454  1.00  0.00    -0.067 N 
HETATM   26  H   UNL     1      25.467  39.719  50.278  1.00  0.00     0.280 HD
HETATM   27  C   UNL     1      26.613  39.050  48.665  1.00  0.00     0.261 C 
HETATM   28  C   UNL     1      27.715  38.433  49.536  1.00  0.00     0.195 C 
HETATM   29  O   UNL     1      28.649  39.426  49.976  1.00  0.00    -0.388 OA
HETATM   30  C   UNL     1      28.016  40.439  50.764  1.00  0.00     0.195 C 
HETATM   31  C   UNL     1      26.934  41.162  49.959  1.00  0.00     0.261 C 
ENDBRANCH  24  25
ENDBRANCH  23  24
ENDBRANCH  22  23
ENDBRANCH   3  22
BRANCH   1  32
HETATM   32  C   UNL     1      21.326  47.216  48.071  1.00  0.00     0.036 A 
HETATM   33  C   UNL     1      20.931  48.287  48.878  1.00  0.00     0.032 A 
HETATM   34  C   UNL     1      19.872  49.112  48.486  1.00  0.00     0.044 A 
HETATM   35  C   UNL     1      19.216  48.870  47.286  1.00  0.00     0.116 A 
HETATM   36  C   UNL     1      19.603  47.820  46.465  1.00  0.00     0.044 A 
HETATM   37  F   UNL     1      18.201  49.660  46.915  1.00  0.00    -0.206 F 
HETATM   38  C   UNL     1      20.661  46.996  46.855  1.00  0.00     0.032 A 
ENDBRANCH   1  32
TORSDOF 8
ENDMDL
MODEL 8
REMARK VINA RESULT:      -9.0      4.162      8.063
REMARK  8 active torsions:
REMARK  status: ('A' for Active; 'I' for Inactive)
REMARK    1  A    between atoms: C_2  and  N_3 
REMARK       I    between atoms: N_3  and  C_4 
REMARK       I    between atoms: C_4  and  N_5 
REMARK    2  A    between atoms: N_5  and  C_6 
REMARK    3  A    between atoms: N_5  and  C_21 
REMARK    4  A    between atoms: C_6  and  C_7 
REMARK    5  A    between atoms: C_8  and  O_9 
REMARK    6  A    between atoms: C_21  and  C_22 
REMARK    7  A    between atoms: C_22  and  C_23 
REMARK    8  A    between atoms: C_23  and  N_24 
ROOT
HETATM    1  N   UNL     1      28.581  44.114  53.801  1.00  0.00    -0.309 N 
HETATM    2  C   UNL     1      27.234  43.844  53.790  1.00  0.00     0.323 C 
HETATM    3  N   UNL     1      26.666  43.676  52.518  1.00  0.00    -0.330 N 
HETATM    4  O   UNL     1      26.529  43.741  54.792  1.00  0.00    -0.247 OA
HETATM    5  H   UNL     1      28.951  44.573  52.982  1.00  0.00     0.170 HD
ENDROOT
BRANCH   3   6
HETATM    6  C   UNL     1      27.470  43.620  51.287  1.00  0.00     0.170 C 
BRANCH   6   7
HETATM    7  C   UNL     1      27.679  42.257  50.690  1.00  0.00     0.013 A 
HETATM    8  C   UNL     1      28.339  41.216  51.332  1.00  0.00     0.170 A 
HETATM    9  N   UNL     1      28.549  39.998  50.800  1.00  0.00    -0.224 NA
HETATM   10  C   UNL     1      28.188  39.791  49.521  1.00  0.00     0.072 A 
HETATM   11  C   UNL     1      27.542  40.796  48.753  1.00  0.00    -0.004 A 
HETATM   12  C   UNL     1      28.470  38.571  48.915  1.00  0.00     0.072 A 
HETATM   13  C   UNL     1      27.281  42.024  49.369  1.00  0.00     0.027 A 
HETATM   14  C   UNL     1      27.191  40.574  47.409  1.00  0.00     0.053 A 
HETATM   15  C   UNL     1      27.508  39.356  46.857  1.00  0.00     0.106 A 
HETATM   16  C   UNL     1      28.130  38.380  47.590  1.00  0.00     0.107 A 
HETATM   17  O   UNL     1      27.271  38.978  45.574  1.00  0.00    -0.323 OA
HETATM   18  O   UNL     1      28.365  37.258  46.859  1.00  0.00    -0.323 OA
HETATM   19  C   UNL     1      27.851  37.655  45.570  1.00  0.00     0.352 A 
BRANCH   8  20
HETATM   20  O   UNL     1      28.810  41.338  52.610  1.00  0.00    -0.344 OA
HETATM   21  H   UNL     1      29.712  40.979  52.612  1.00  0.00     0.219 HD
ENDBRANCH   8  20
ENDBRANCH   6   7
ENDBRANCH   3   6
BRANCH   3  22
HETATM   22  C   UNL     1      25.234  44.001  52.401  1.00  0.00     0.129 C 
BRANCH  22  23
HETATM   23  C   UNL     1      24.677  44.124  50.973  1.00  0.00     0.048 C 
BRANCH  23  24
HETATM   24  C   UNL     1      23.873  42.910  50.523  1.00  0.00     0.236 C 
BRANCH  24  25
HETATM   25  N   UNL     1      23.814  42.809  49.010  1.00  0.00    -0.067 N 
HETATM   26  H   UNL     1      24.776  42.745  48.658  1.00  0.00     0.280 HD
HETATM   27  C   UNL     1      23.044  41.587  48.506  1.00  0.00     0.261 C 
HETATM   28  C   UNL     1      23.009  41.608  46.972  1.00  0.00     0.195 C 
HETATM   29  O   UNL     1      22.420  42.817  46.480  1.00  0.00    -0.388 OA
HETATM   30  C   UNL     1      23.155  43.973  46.893  1.00  0.00     0.195 C 
HETATM   31  C   UNL     1      23.196  44.079  48.419  1.00  0.00     0.261 C 
ENDBRANCH  24  25
ENDBRANCH  23  24
ENDBRANCH  22  23
ENDBRANCH   3  22
BRANCH   1  32
HETATM   32  C   UNL     1      29.430  44.183  54.929  1.00  0.00     0.036 A 
HETATM   33  C   UNL     1      30.345  43.186  55.276  1.00  0.00     0.032 A 
HETATM   34  C   UNL     1      31.151  43.332  56.410  1.00  0.00     0.044 A 
HETATM   35  C   UNL     1      31.045  44.478  57.188  1.00  0.00     0.116 A 
HETATM   36  C   UNL     1      30.152  45.485  56.852  1.00  0.00     0.044 A 
HETATM   37  F   UNL     1      31.816  44.613  58.275  1.00  0.00    -0.206 F 
HETATM   38  C   UNL     1      29.347  45.339  55.719  1.00  0.00     0.032 A 
ENDBRANCH   1  32
TORSDOF 8
ENDMDL
MODEL 9
REMARK VINA RESULT:      -9.0      3.027      7.184
REMARK  8 active torsions:
REMARK  status: ('A' for Active; 'I' for Inactive)
REMARK    1  A    between atoms: C_2  and  N_3 
REMARK       I    between atoms: N_3  and  C_4 
REMARK       I    between atoms: C_4  and  N_5 
REMARK    2  A    between atoms: N_5  and  C_6 
REMARK    3  A    between atoms: N_5  and  C_21 
REMARK    4  A    between atoms: C_6  and  C_7 
REMARK    5  A    between atoms: C_8  and  O_9 
REMARK    6  A    between atoms: C_21  and  C_22 
REMARK    7  A    between atoms: C_22  and  C_23 
REMARK    8  A    between atoms: C_23  and  N_24 
ROOT
HETATM    1  N   UNL     1      24.014  46.846  50.107  1.00  0.00    -0.309 N 
HETATM    2  C   UNL     1      24.696  45.753  49.631  1.00  0.00     0.323 C 
HETATM    3  N   UNL     1      25.115  44.837  50.607  1.00  0.00    -0.330 N 
HETATM    4  O   UNL     1      24.946  45.541  48.446  1.00  0.00    -0.247 OA
HETATM    5  H   UNL     1      24.223  47.127  51.053  1.00  0.00     0.170 HD
ENDROOT
BRANCH   3   6
HETATM    6  C   UNL     1      24.713  44.935  52.018  1.00  0.00     0.170 C 
BRANCH   6   7
HETATM    7  C   UNL     1      25.804  45.250  53.002  1.00  0.00     0.013 A 
HETATM    8  C   UNL     1      26.082  46.526  53.478  1.00  0.00     0.170 A 
HETATM    9  N   UNL     1      27.069  46.822  54.344  1.00  0.00    -0.224 NA
HETATM   10  C   UNL     1      27.915  45.841  54.706  1.00  0.00     0.072 A 
HETATM   11  C   UNL     1      27.753  44.506  54.250  1.00  0.00    -0.004 A 
HETATM   12  C   UNL     1      28.996  46.134  55.531  1.00  0.00     0.072 A 
HETATM   13  C   UNL     1      26.671  44.229  53.406  1.00  0.00     0.027 A 
HETATM   14  C   UNL     1      28.658  43.494  54.617  1.00  0.00     0.053 A 
HETATM   15  C   UNL     1      29.717  43.844  55.421  1.00  0.00     0.106 A 
HETATM   16  C   UNL     1      29.881  45.129  55.866  1.00  0.00     0.107 A 
HETATM   17  O   UNL     1      30.699  43.010  55.850  1.00  0.00    -0.323 OA
HETATM   18  O   UNL     1      30.992  45.268  56.638  1.00  0.00    -0.323 OA
HETATM   19  C   UNL     1      31.529  43.928  56.595  1.00  0.00     0.352 A 
BRANCH   8  20
HETATM   20  O   UNL     1      25.330  47.609  53.122  1.00  0.00    -0.344 OA
HETATM   21  H   UNL     1      25.139  48.100  53.938  1.00  0.00     0.219 HD
ENDBRANCH   8  20
ENDBRANCH   6   7
ENDBRANCH   3   6
BRANCH   3  22
HETATM   22  C   UNL     1      26.311  44.041  50.276  1.00  0.00     0.129 C 
BRANCH  22  23
HETATM   23  C   UNL     1      26.076  42.551  49.980  1.00  0.00     0.048 C 
BRANCH  23  24
HETATM   24  C   UNL     1      27.015  41.982  48.923  1.00  0.00     0.236 C 
BRANCH  24  25
HETATM   25  N   UNL     1      27.470  40.579  49.276  1.00  0.00    -0.067 N 
HETATM   26  H   UNL     1      27.788  40.584  50.252  1.00  0.00     0.280 HD
HETATM   27  C   UNL     1      26.370  39.525  49.143  1.00  0.00     0.261 C 
HETATM   28  C   UNL     1      26.948  38.143  49.480  1.00  0.00     0.195 C 
HETATM   29  O   UNL     1      28.060  37.824  48.637  1.00  0.00    -0.388 OA
HETATM   30  C   UNL     1      29.126  38.766  48.784  1.00  0.00     0.195 C 
HETATM   31  C   UNL     1      28.666  40.176  48.409  1.00  0.00     0.261 C 
ENDBRANCH  24  25
ENDBRANCH  23  24
ENDBRANCH  22  23
ENDBRANCH   3  22
BRANCH   1  32
HETATM   32  C   UNL     1      23.357  47.841  49.347  1.00  0.00     0.036 A 
HETATM   33  C   UNL     1      23.937  49.064  48.999  1.00  0.00     0.032 A 
HETATM   34  C   UNL     1      23.217  49.995  48.243  1.00  0.00     0.044 A 
HETATM   35  C   UNL     1      21.924  49.699  47.830  1.00  0.00     0.116 A 
HETATM   36  C   UNL     1      21.337  48.484  48.155  1.00  0.00     0.044 A 
HETATM   37  F   UNL     1      21.238  50.594  47.110  1.00  0.00    -0.206 F 
HETATM   38  C   UNL     1      22.055  47.553  48.910  1.00  0.00     0.032 A 
ENDBRANCH   1  32
TORSDOF 8
ENDMDL
MODEL 10
REMARK VINA RESULT:      -9.0      3.319      9.313
REMARK  8 active torsions:
REMARK  status: ('A' for Active; 'I' for Inactive)
REMARK    1  A    between atoms: C_2  and  N_3 
REMARK       I    between atoms: N_3  and  C_4 
REMARK       I    between atoms: C_4  and  N_5 
REMARK    2  A    between atoms: N_5  and  C_6 
REMARK    3  A    between atoms: N_5  and  C_21 
REMARK    4  A    between atoms: C_6  and  C_7 
REMARK    5  A    between atoms: C_8  and  O_9 
REMARK    6  A    between atoms: C_21  and  C_22 
REMARK    7  A    between atoms: C_22  and  C_23 
REMARK    8  A    between atoms: C_23  and  N_24 
ROOT
HETATM    1  N   UNL     1      25.502  45.952  51.864  1.00  0.00    -0.309 N 
HETATM    2  C   UNL     1      24.684  44.878  51.611  1.00  0.00     0.323 C 
HETATM    3  N   UNL     1      24.172  44.809  50.305  1.00  0.00    -0.330 N 
HETATM    4  O   UNL     1      24.390  44.008  52.428  1.00  0.00    -0.247 OA
HETATM    5  H   UNL     1      25.344  46.776  51.304  1.00  0.00     0.170 HD
ENDROOT
BRANCH   3   6
HETATM    6  C   UNL     1      24.606  45.713  49.230  1.00  0.00     0.170 C 
BRANCH   6   7
HETATM    7  C   UNL     1      23.936  47.057  49.178  1.00  0.00     0.013 A 
HETATM    8  C   UNL     1      24.529  48.241  49.600  1.00  0.00     0.170 A 
HETATM    9  N   UNL     1      23.931  49.447  49.577  1.00  0.00    -0.224 NA
HETATM   10  C   UNL     1      22.638  49.510  49.215  1.00  0.00     0.072 A 
HETATM   11  C   UNL     1      21.918  48.358  48.803  1.00  0.00    -0.004 A 
HETATM   12  C   UNL     1      21.968  50.729  49.263  1.00  0.00     0.072 A 
HETATM   13  C   UNL     1      22.599  47.136  48.776  1.00  0.00     0.027 A 
HETATM   14  C   UNL     1      20.558  48.434  48.449  1.00  0.00     0.053 A 
HETATM   15  C   UNL     1      19.944  49.660  48.531  1.00  0.00     0.106 A 
HETATM   16  C   UNL     1      20.630  50.778  48.927  1.00  0.00     0.107 A 
HETATM   17  O   UNL     1      18.639  49.916  48.257  1.00  0.00    -0.323 OA
HETATM   18  O   UNL     1      19.841  51.885  48.951  1.00  0.00    -0.323 OA
HETATM   19  C   UNL     1      18.568  51.326  48.561  1.00  0.00     0.352 A 
BRANCH   8  20
HETATM   20  O   UNL     1      25.817  48.283  50.053  1.00  0.00    -0.344 OA
HETATM   21  H   UNL     1      25.864  49.004  50.703  1.00  0.00     0.219 HD
ENDBRANCH   8  20
ENDBRANCH   6   7
ENDBRANCH   3   6
BRANCH   3  22
HETATM   22  C   UNL     1      22.883  44.111  50.152  1.00  0.00     0.129 C 
BRANCH  22  23
HETATM   23  C   UNL     1      22.944  42.690  49.569  1.00  0.00     0.048 C 
BRANCH  23  24
HETATM   24  C   UNL     1      24.185  42.428  48.722  1.00  0.00     0.236 C 
BRANCH  24  25
HETATM   25  N   UNL     1      24.945  41.209  49.208  1.00  0.00    -0.067 N 
HETATM   26  H   UNL     1      24.269  40.554  49.618  1.00  0.00     0.280 HD
HETATM   27  C   UNL     1      25.701  40.475  48.100  1.00  0.00     0.261 C 
HETATM   28  C   UNL     1      26.467  39.291  48.707  1.00  0.00     0.195 C 
HETATM   29  O   UNL     1      27.367  39.724  49.733  1.00  0.00    -0.388 OA
HETATM   30  C   UNL     1      26.677  40.365  50.809  1.00  0.00     0.195 C 
HETATM   31  C   UNL     1      25.926  41.604  50.316  1.00  0.00     0.261 C 
ENDBRANCH  24  25
ENDBRANCH  23  24
ENDBRANCH  22  23
ENDBRANCH   3  22
BRANCH   1  32
HETATM   32  C   UNL     1      26.263  46.190  53.031  1.00  0.00     0.036 A 
HETATM   33  C   UNL     1      26.126  47.329  53.830  1.00  0.00     0.032 A 
HETATM   34  C   UNL     1      26.919  47.488  54.971  1.00  0.00     0.044 A 
HETATM   35  C   UNL     1      27.839  46.505  55.316  1.00  0.00     0.116 A 
HETATM   36  C   UNL     1      27.979  45.362  54.542  1.00  0.00     0.044 A 
HETATM   37  F   UNL     1      28.598  46.663  56.407  1.00  0.00    -0.206 F 
HETATM   38  C   UNL     1      27.187  45.202  53.402  1.00  0.00     0.032 A 
ENDBRANCH   1  32
TORSDOF 8
ENDMDL
