MODEL 1
REMARK VINA RESULT:      -8.8      0.000      0.000
REMARK  8 active torsions:
REMARK  status: ('A' for Active; 'I' for Inactive)
REMARK    1  A    between atoms: O_2  and  C_3 
REMARK    2  A    between atoms: C_5  and  C_6 
REMARK    3  A    between atoms: C_10  and  C_11 
REMARK       I    between atoms: C_11  and  N_12 
REMARK    4  A    between atoms: N_12  and  C_13 
REMARK    5  A    between atoms: C_13  and  C_14 
REMARK    6  A    between atoms: C_15  and  C_16 
REMARK    7  A    between atoms: C_16  and  O_17 
REMARK    8  A    between atoms: O_17  and  C_18 
ROOT
HETATM    1  C   UNL     1      23.928  43.664  50.040  1.00  0.00     0.270 C 
HETATM    2  N   UNL     1      23.754  44.113  48.757  1.00  0.00    -0.345 N 
HETATM    3  O   UNL     1      23.014  43.182  50.700  1.00  0.00    -0.266 OA
HETATM    4  H   UNL     1      24.523  44.538  48.261  1.00  0.00     0.163 HD
ENDROOT
BRANCH   1   5
HETATM    5  C   UNL     1      25.265  43.790  50.553  1.00  0.00     0.120 A 
HETATM    6  N   UNL     1      26.266  44.367  49.823  1.00  0.00    -0.272 N 
HETATM    7  N   UNL     1      27.443  44.440  50.463  1.00  0.00    -0.174 NA
HETATM    8  H   UNL     1      26.193  44.743  48.883  1.00  0.00     0.189 HD
HETATM    9  C   UNL     1      27.218  43.865  51.654  1.00  0.00     0.089 A 
HETATM   10  C   UNL     1      25.864  43.441  51.748  1.00  0.00     0.071 A 
BRANCH   9  11
HETATM   11  C   UNL     1      28.266  43.749  52.671  1.00  0.00    -0.003 A 
HETATM   12  C   UNL     1      28.202  44.511  53.847  1.00  0.00     0.050 A 
HETATM   13  C   UNL     1      29.173  44.385  54.845  1.00  0.00     0.069 A 
HETATM   14  C   UNL     1      30.236  43.500  54.658  1.00  0.00     0.037 A 
HETATM   15  C   UNL     1      30.320  42.745  53.486  1.00  0.00     0.004 A 
HETATM   16  C   UNL     1      29.340  42.867  52.498  1.00  0.00     0.014 A 
BRANCH  13  17
HETATM   17  O   UNL     1      28.971  45.173  55.944  1.00  0.00    -0.356 OA
HETATM   18  C   UNL     1      30.116  45.801  56.507  1.00  0.00     0.210 C 
ENDBRANCH  13  17
ENDBRANCH   9  11
ENDBRANCH   1   5
BRANCH   2  19
HETATM   19  C   UNL     1      22.471  44.055  48.107  1.00  0.00     0.217 C 
BRANCH  19  20
HETATM   20  C   UNL     1      21.854  45.384  48.135  1.00  0.00    -0.085 C 
HETATM   21  C   UNL     1      21.355  46.476  48.189  1.00  0.00    -0.078 C 
BRANCH  21  22
HETATM   22  C   UNL     1      20.749  47.811  48.281  1.00  0.00     0.269 C 
BRANCH  22  23
HETATM   23  O   UNL     1      21.444  48.571  49.267  1.00  0.00    -0.339 OA
BRANCH  23  24
HETATM   24  C   UNL     1      22.733  48.933  48.977  1.00  0.00     0.072 A 
HETATM   25  C   UNL     1      23.887  48.342  49.500  1.00  0.00     0.076 A 
HETATM   26  C   UNL     1      25.107  48.847  49.094  1.00  0.00     0.107 A 
HETATM   27  C   UNL     1      25.208  49.891  48.207  1.00  0.00     0.105 A 
HETATM   28  O   UNL     1      26.323  48.396  49.503  1.00  0.00    -0.323 OA
HETATM   29  O   UNL     1      26.498  50.228  47.944  1.00  0.00    -0.323 OA
HETATM   30  C   UNL     1      24.092  50.495  47.672  1.00  0.00     0.042 A 
HETATM   31  C   UNL     1      27.200  49.277  48.769  1.00  0.00     0.352 A 
HETATM   32  C   UNL     1      22.842  50.005  48.068  1.00  0.00     0.040 A 
ENDBRANCH  23  24
ENDBRANCH  22  23
ENDBRANCH  21  22
ENDBRANCH  19  20
ENDBRANCH   2  19
TORSDOF 8
ENDMDL
MODEL 2
REMARK VINA RESULT:      -8.7      2.721      4.332
REMARK  8 active torsions:
REMARK  status: ('A' for Active; 'I' for Inactive)
REMARK    1  A    between atoms: O_2  and  C_3 
REMARK    2  A    between atoms: C_5  and  C_6 
REMARK    3  A    between atoms: C_10  and  C_11 
REMARK       I    between atoms: C_11  and  N_12 
REMARK    4  A    between atoms: N_12  and  C_13 
REMARK    5  A    between atoms: C_13  and  C_14 
REMARK    6  A    between atoms: C_15  and  C_16 
REMARK    7  A    between atoms: C_16  and  O_17 
REMARK    8  A    between atoms: O_17  and  C_18 
ROOT
HETATM    1  C   UNL     1      24.601  44.699  51.373  1.00  0.00     0.270 C 
HETATM    2  N   UNL     1      24.666  45.856  50.640  1.00  0.00    -0.345 N 
HETATM    3  O   UNL     1      23.818  43.793  51.108  1.00  0.00    -0.266 OA
HETATM    4  H   UNL     1      25.297  46.593  50.914  1.00  0.00     0.163 HD
ENDROOT
BRANCH   1   5
HETATM    5  C   UNL     1      25.526  44.621  52.471  1.00  0.00     0.120 A 
HETATM    6  N   UNL     1      25.106  44.665  53.771  1.00  0.00    -0.272 N 
HETATM    7  N   UNL     1      26.092  44.542  54.672  1.00  0.00    -0.174 NA
HETATM    8  H   UNL     1      24.150  44.765  54.098  1.00  0.00     0.189 HD
HETATM    9  C   UNL     1      27.211  44.437  53.940  1.00  0.00     0.089 A 
HETATM   10  C   UNL     1      26.898  44.486  52.553  1.00  0.00     0.071 A 
BRANCH   9  11
HETATM   11  C   UNL     1      28.529  44.275  54.556  1.00  0.00    -0.003 A 
HETATM   12  C   UNL     1      28.969  45.172  55.541  1.00  0.00     0.050 A 
HETATM   13  C   UNL     1      30.210  45.010  56.166  1.00  0.00     0.069 A 
HETATM   14  C   UNL     1      31.033  43.948  55.789  1.00  0.00     0.037 A 
HETATM   15  C   UNL     1      30.615  43.056  54.800  1.00  0.00     0.004 A 
HETATM   16  C   UNL     1      29.370  43.216  54.187  1.00  0.00     0.014 A 
BRANCH  13  17
HETATM   17  O   UNL     1      30.496  45.946  57.122  1.00  0.00    -0.356 OA
HETATM   18  C   UNL     1      29.783  45.853  58.349  1.00  0.00     0.210 C 
ENDBRANCH  13  17
ENDBRANCH   9  11
ENDBRANCH   1   5
BRANCH   2  19
HETATM   19  C   UNL     1      23.801  46.080  49.512  1.00  0.00     0.217 C 
BRANCH  19  20
HETATM   20  C   UNL     1      23.640  47.522  49.306  1.00  0.00    -0.085 C 
HETATM   21  C   UNL     1      23.506  48.709  49.168  1.00  0.00    -0.078 C 
BRANCH  21  22
HETATM   22  C   UNL     1      23.342  50.162  49.027  1.00  0.00     0.269 C 
BRANCH  22  23
HETATM   23  O   UNL     1      22.377  50.617  49.972  1.00  0.00    -0.339 OA
BRANCH  23  24
HETATM   24  C   UNL     1      21.095  50.786  49.518  1.00  0.00     0.072 A 
HETATM   25  C   UNL     1      19.962  50.973  50.315  1.00  0.00     0.076 A 
HETATM   26  C   UNL     1      18.746  51.122  49.677  1.00  0.00     0.107 A 
HETATM   27  C   UNL     1      18.630  51.093  48.308  1.00  0.00     0.105 A 
HETATM   28  O   UNL     1      17.549  51.308  50.294  1.00  0.00    -0.323 OA
HETATM   29  O   UNL     1      17.347  51.259  47.891  1.00  0.00    -0.323 OA
HETATM   30  C   UNL     1      19.726  50.912  47.494  1.00  0.00     0.042 A 
HETATM   31  C   UNL     1      16.666  51.395  49.155  1.00  0.00     0.352 A 
HETATM   32  C   UNL     1      20.970  50.756  48.113  1.00  0.00     0.040 A 
ENDBRANCH  23  24
ENDBRANCH  22  23
ENDBRANCH  21  22
ENDBRANCH  19  20
ENDBRANCH   2  19
TORSDOF 8
ENDMDL
MODEL 3
REMARK VINA RESULT:      -8.7      1.473      1.954
REMARK  8 active torsions:
REMARK  status: ('A' for Active; 'I' for Inactive)
REMARK    1  A    between atoms: O_2  and  C_3 
REMARK    2  A    between atoms: C_5  and  C_6 
REMARK    3  A    between atoms: C_10  and  C_11 
REMARK       I    between atoms: C_11  and  N_12 
REMARK    4  A    between atoms: N_12  and  C_13 
REMARK    5  A    between atoms: C_13  and  C_14 
REMARK    6  A    between atoms: C_15  and  C_16 
REMARK    7  A    between atoms: C_16  and  O_17 
REMARK    8  A    between atoms: O_17  and  C_18 
ROOT
HETATM    1  C   UNL     1      25.321  44.311  49.946  1.00  0.00     0.270 C 
HETATM    2  N   UNL     1      24.118  43.663  49.837  1.00  0.00    -0.345 N 
HETATM    3  O   UNL     1      25.828  44.923  49.012  1.00  0.00    -0.266 OA
HETATM    4  H   UNL     1      23.754  43.138  50.617  1.00  0.00     0.163 HD
ENDROOT
BRANCH   1   5
HETATM    5  C   UNL     1      25.942  44.228  51.240  1.00  0.00     0.120 A 
HETATM    6  N   UNL     1      25.586  43.273  52.151  1.00  0.00    -0.272 N 
HETATM    7  N   UNL     1      26.288  43.312  53.293  1.00  0.00    -0.174 NA
HETATM    8  H   UNL     1      24.875  42.557  52.035  1.00  0.00     0.189 HD
HETATM    9  C   UNL     1      27.125  44.350  53.142  1.00  0.00     0.089 A 
HETATM   10  C   UNL     1      26.935  44.953  51.868  1.00  0.00     0.071 A 
BRANCH   9  11
HETATM   11  C   UNL     1      28.084  44.732  54.180  1.00  0.00    -0.003 A 
HETATM   12  C   UNL     1      29.099  43.845  54.571  1.00  0.00     0.050 A 
HETATM   13  C   UNL     1      30.047  44.208  55.533  1.00  0.00     0.069 A 
HETATM   14  C   UNL     1      29.969  45.466  56.130  1.00  0.00     0.037 A 
HETATM   15  C   UNL     1      28.956  46.354  55.762  1.00  0.00     0.004 A 
HETATM   16  C   UNL     1      28.020  45.991  54.791  1.00  0.00     0.014 A 
BRANCH  13  17
HETATM   17  O   UNL     1      30.989  43.252  55.798  1.00  0.00    -0.356 OA
HETATM   18  C   UNL     1      31.677  43.351  57.039  1.00  0.00     0.210 C 
ENDBRANCH  13  17
ENDBRANCH   9  11
ENDBRANCH   1   5
BRANCH   2  19
HETATM   19  C   UNL     1      23.379  43.654  48.602  1.00  0.00     0.217 C 
BRANCH  19  20
HETATM   20  C   UNL     1      22.662  44.924  48.459  1.00  0.00    -0.085 C 
HETATM   21  C   UNL     1      22.082  45.972  48.372  1.00  0.00    -0.078 C 
BRANCH  21  22
HETATM   22  C   UNL     1      21.380  47.261  48.290  1.00  0.00     0.269 C 
BRANCH  22  23
HETATM   23  O   UNL     1      21.931  48.154  49.254  1.00  0.00    -0.339 OA
BRANCH  23  24
HETATM   24  C   UNL     1      23.199  48.618  49.018  1.00  0.00     0.072 A 
HETATM   25  C   UNL     1      24.374  48.110  49.579  1.00  0.00     0.076 A 
HETATM   26  C   UNL     1      25.566  48.712  49.226  1.00  0.00     0.107 A 
HETATM   27  C   UNL     1      25.620  49.772  48.353  1.00  0.00     0.105 A 
HETATM   28  O   UNL     1      26.797  48.350  49.677  1.00  0.00    -0.323 OA
HETATM   29  O   UNL     1      26.889  50.210  48.144  1.00  0.00    -0.323 OA
HETATM   30  C   UNL     1      24.481  50.295  47.782  1.00  0.00     0.042 A 
HETATM   31  C   UNL     1      27.631  49.305  48.986  1.00  0.00     0.352 A 
HETATM   32  C   UNL     1      23.260  49.707  48.124  1.00  0.00     0.040 A 
ENDBRANCH  23  24
ENDBRANCH  22  23
ENDBRANCH  21  22
ENDBRANCH  19  20
ENDBRANCH   2  19
TORSDOF 8
ENDMDL
MODEL 4
REMARK VINA RESULT:      -8.6      3.482     10.218
REMARK  8 active torsions:
REMARK  status: ('A' for Active; 'I' for Inactive)
REMARK    1  A    between atoms: O_2  and  C_3 
REMARK    2  A    between atoms: C_5  and  C_6 
REMARK    3  A    between atoms: C_10  and  C_11 
REMARK       I    between atoms: C_11  and  N_12 
REMARK    4  A    between atoms: N_12  and  C_13 
REMARK    5  A    between atoms: C_13  and  C_14 
REMARK    6  A    between atoms: C_15  and  C_16 
REMARK    7  A    between atoms: C_16  and  O_17 
REMARK    8  A    between atoms: O_17  and  C_18 
ROOT
HETATM    1  C   UNL     1      24.972  49.834  48.285  1.00  0.00     0.270 C 
HETATM    2  N   UNL     1      25.483  48.935  49.184  1.00  0.00    -0.345 N 
HETATM    3  O   UNL     1      25.624  50.264  47.338  1.00  0.00    -0.266 OA
HETATM    4  H   UNL     1      24.927  48.636  49.971  1.00  0.00     0.163 HD
ENDROOT
BRANCH   1   5
HETATM    5  C   UNL     1      23.611  50.231  48.525  1.00  0.00     0.120 A 
HETATM    6  N   UNL     1      23.183  50.622  49.762  1.00  0.00    -0.272 N 
HETATM    7  N   UNL     1      21.895  50.996  49.807  1.00  0.00    -0.174 NA
HETATM    8  H   UNL     1      23.737  50.666  50.612  1.00  0.00     0.189 HD
HETATM    9  C   UNL     1      21.447  50.821  48.555  1.00  0.00     0.089 A 
HETATM   10  C   UNL     1      22.494  50.338  47.721  1.00  0.00     0.071 A 
BRANCH   9  11
HETATM   11  C   UNL     1      20.067  51.128  48.173  1.00  0.00    -0.003 A 
HETATM   12  C   UNL     1      19.257  51.912  49.008  1.00  0.00     0.050 A 
HETATM   13  C   UNL     1      17.949  52.246  48.642  1.00  0.00     0.069 A 
HETATM   14  C   UNL     1      17.435  51.775  47.433  1.00  0.00     0.037 A 
HETATM   15  C   UNL     1      18.225  50.982  46.599  1.00  0.00     0.004 A 
HETATM   16  C   UNL     1      19.535  50.661  46.964  1.00  0.00     0.014 A 
BRANCH  13  17
HETATM   17  O   UNL     1      17.285  53.033  49.543  1.00  0.00    -0.356 OA
HETATM   18  C   UNL     1      15.909  52.748  49.756  1.00  0.00     0.210 C 
ENDBRANCH  13  17
ENDBRANCH   9  11
ENDBRANCH   1   5
BRANCH   2  19
HETATM   19  C   UNL     1      26.833  48.447  49.075  1.00  0.00     0.217 C 
BRANCH  19  20
HETATM   20  C   UNL     1      26.883  47.058  49.540  1.00  0.00    -0.085 C 
HETATM   21  C   UNL     1      26.904  45.926  49.943  1.00  0.00    -0.078 C 
BRANCH  21  22
HETATM   22  C   UNL     1      26.909  44.549  50.454  1.00  0.00     0.269 C 
BRANCH  22  23
HETATM   23  O   UNL     1      26.324  44.531  51.753  1.00  0.00    -0.339 OA
BRANCH  23  24
HETATM   24  C   UNL     1      27.176  44.648  52.820  1.00  0.00     0.072 A 
HETATM   25  C   UNL     1      27.055  45.564  53.868  1.00  0.00     0.076 A 
HETATM   26  C   UNL     1      28.017  45.538  54.859  1.00  0.00     0.107 A 
HETATM   27  C   UNL     1      29.066  44.649  54.836  1.00  0.00     0.105 A 
HETATM   28  O   UNL     1      28.055  46.355  55.945  1.00  0.00    -0.323 OA
HETATM   29  O   UNL     1      29.893  44.794  55.904  1.00  0.00    -0.323 OA
HETATM   30  C   UNL     1      29.214  43.733  53.819  1.00  0.00     0.042 A 
HETATM   31  C   UNL     1      29.248  45.878  56.603  1.00  0.00     0.352 A 
HETATM   32  C   UNL     1      28.254  43.739  52.801  1.00  0.00     0.040 A 
ENDBRANCH  23  24
ENDBRANCH  22  23
ENDBRANCH  21  22
ENDBRANCH  19  20
ENDBRANCH   2  19
TORSDOF 8
ENDMDL
MODEL 5
REMARK VINA RESULT:      -8.5      3.875     10.744
REMARK  8 active torsions:
REMARK  status: ('A' for Active; 'I' for Inactive)
REMARK    1  A    between atoms: O_2  and  C_3 
REMARK    2  A    between atoms: C_5  and  C_6 
REMARK    3  A    between atoms: C_10  and  C_11 
REMARK       I    between atoms: C_11  and  N_12 
REMARK    4  A    between atoms: N_12  and  C_13 
REMARK    5  A    between atoms: C_13  and  C_14 
REMARK    6  A    between atoms: C_15  and  C_16 
REMARK    7  A    between atoms: C_16  and  O_17 
REMARK    8  A    between atoms: O_17  and  C_18 
ROOT
HETATM    1  C   UNL     1      23.017  49.269  49.424  1.00  0.00     0.270 C 
HETATM    2  N   UNL     1      23.554  48.012  49.512  1.00  0.00    -0.345 N 
HETATM    3  O   UNL     1      23.707  50.283  49.420  1.00  0.00    -0.266 OA
HETATM    4  H   UNL     1      22.950  47.205  49.551  1.00  0.00     0.163 HD
ENDROOT
BRANCH   1   5
HETATM    5  C   UNL     1      21.583  49.314  49.329  1.00  0.00     0.120 A 
HETATM    6  N   UNL     1      20.815  48.195  49.489  1.00  0.00    -0.272 N 
HETATM    7  N   UNL     1      19.494  48.417  49.406  1.00  0.00    -0.174 NA
HETATM    8  H   UNL     1      21.145  47.252  49.672  1.00  0.00     0.189 HD
HETATM    9  C   UNL     1      19.386  49.730  49.157  1.00  0.00     0.089 A 
HETATM   10  C   UNL     1      20.675  50.328  49.097  1.00  0.00     0.071 A 
BRANCH   9  11
HETATM   11  C   UNL     1      18.086  50.387  49.003  1.00  0.00    -0.003 A 
HETATM   12  C   UNL     1      17.790  51.554  49.722  1.00  0.00     0.050 A 
HETATM   13  C   UNL     1      16.568  52.215  49.558  1.00  0.00     0.069 A 
HETATM   14  C   UNL     1      15.619  51.692  48.679  1.00  0.00     0.037 A 
HETATM   15  C   UNL     1      15.894  50.523  47.968  1.00  0.00     0.004 A 
HETATM   16  C   UNL     1      17.121  49.874  48.126  1.00  0.00     0.014 A 
BRANCH  13  17
HETATM   17  O   UNL     1      16.427  53.351  50.307  1.00  0.00    -0.356 OA
HETATM   18  C   UNL     1      15.199  54.058  50.181  1.00  0.00     0.210 C 
ENDBRANCH  13  17
ENDBRANCH   9  11
ENDBRANCH   1   5
BRANCH   2  19
HETATM   19  C   UNL     1      24.975  47.807  49.616  1.00  0.00     0.217 C 
BRANCH  19  20
HETATM   20  C   UNL     1      25.277  47.156  50.894  1.00  0.00    -0.085 C 
HETATM   21  C   UNL     1      25.494  46.615  51.945  1.00  0.00    -0.078 C 
BRANCH  21  22
HETATM   22  C   UNL     1      25.732  45.947  53.232  1.00  0.00     0.269 C 
BRANCH  22  23
HETATM   23  O   UNL     1      26.812  46.593  53.900  1.00  0.00    -0.339 OA
BRANCH  23  24
HETATM   24  C   UNL     1      27.817  45.792  54.376  1.00  0.00     0.072 A 
HETATM   25  C   UNL     1      28.688  46.105  55.424  1.00  0.00     0.076 A 
HETATM   26  C   UNL     1      29.646  45.171  55.763  1.00  0.00     0.107 A 
HETATM   27  C   UNL     1      29.758  43.967  55.109  1.00  0.00     0.105 A 
HETATM   28  O   UNL     1      30.572  45.311  56.750  1.00  0.00    -0.323 OA
HETATM   29  O   UNL     1      30.765  43.199  55.601  1.00  0.00    -0.323 OA
HETATM   30  C   UNL     1      28.916  43.627  54.074  1.00  0.00     0.042 A 
HETATM   31  C   UNL     1      31.277  44.057  56.642  1.00  0.00     0.352 A 
HETATM   32  C   UNL     1      27.937  44.556  53.708  1.00  0.00     0.040 A 
ENDBRANCH  23  24
ENDBRANCH  22  23
ENDBRANCH  21  22
ENDBRANCH  19  20
ENDBRANCH   2  19
TORSDOF 8
ENDMDL
MODEL 6
REMARK VINA RESULT:      -8.2      2.494      8.342
REMARK  8 active torsions:
REMARK  status: ('A' for Active; 'I' for Inactive)
REMARK    1  A    between atoms: O_2  and  C_3 
REMARK    2  A    between atoms: C_5  and  C_6 
REMARK    3  A    between atoms: C_10  and  C_11 
REMARK       I    between atoms: C_11  and  N_12 
REMARK    4  A    between atoms: N_12  and  C_13 
REMARK    5  A    between atoms: C_13  and  C_14 
REMARK    6  A    between atoms: C_15  and  C_16 
REMARK    7  A    between atoms: C_16  and  O_17 
REMARK    8  A    between atoms: O_17  and  C_18 
ROOT
HETATM    1  C   UNL     1      24.887  44.350  49.648  1.00  0.00     0.270 C 
HETATM    2  N   UNL     1      26.225  44.159  49.426  1.00  0.00    -0.345 N 
HETATM    3  O   UNL     1      24.105  43.418  49.812  1.00  0.00    -0.266 OA
HETATM    4  H   UNL     1      26.828  44.950  49.257  1.00  0.00     0.163 HD
ENDROOT
BRANCH   1   5
HETATM    5  C   UNL     1      24.465  45.724  49.682  1.00  0.00     0.120 A 
HETATM    6  N   UNL     1      25.152  46.671  50.389  1.00  0.00    -0.272 N 
HETATM    7  N   UNL     1      24.647  47.909  50.286  1.00  0.00    -0.174 NA
HETATM    8  H   UNL     1      25.986  46.525  50.950  1.00  0.00     0.189 HD
HETATM    9  C   UNL     1      23.568  47.772  49.500  1.00  0.00     0.089 A 
HETATM   10  C   UNL     1      23.418  46.414  49.104  1.00  0.00     0.071 A 
BRANCH   9  11
HETATM   11  C   UNL     1      22.727  48.911  49.129  1.00  0.00    -0.003 A 
HETATM   12  C   UNL     1      21.329  48.809  49.182  1.00  0.00     0.050 A 
HETATM   13  C   UNL     1      20.511  49.899  48.867  1.00  0.00     0.069 A 
HETATM   14  C   UNL     1      21.096  51.104  48.476  1.00  0.00     0.037 A 
HETATM   15  C   UNL     1      22.486  51.216  48.405  1.00  0.00     0.004 A 
HETATM   16  C   UNL     1      23.298  50.128  48.732  1.00  0.00     0.014 A 
BRANCH  13  17
HETATM   17  O   UNL     1      19.169  49.660  48.984  1.00  0.00    -0.356 OA
HETATM   18  C   UNL     1      18.514  50.202  50.124  1.00  0.00     0.210 C 
ENDBRANCH  13  17
ENDBRANCH   9  11
ENDBRANCH   1   5
BRANCH   2  19
HETATM   19  C   UNL     1      26.796  42.839  49.362  1.00  0.00     0.217 C 
BRANCH  19  20
HETATM   20  C   UNL     1      27.471  42.542  50.628  1.00  0.00    -0.085 C 
HETATM   21  C   UNL     1      28.024  42.329  51.674  1.00  0.00    -0.078 C 
BRANCH  21  22
HETATM   22  C   UNL     1      28.699  42.096  52.958  1.00  0.00     0.269 C 
BRANCH  22  23
HETATM   23  O   UNL     1      27.773  42.322  54.019  1.00  0.00    -0.339 OA
BRANCH  23  24
HETATM   24  C   UNL     1      27.370  43.615  54.225  1.00  0.00     0.072 A 
HETATM   25  C   UNL     1      28.199  44.686  54.572  1.00  0.00     0.076 A 
HETATM   26  C   UNL     1      27.611  45.923  54.745  1.00  0.00     0.107 A 
HETATM   27  C   UNL     1      26.260  46.120  54.585  1.00  0.00     0.105 A 
HETATM   28  O   UNL     1      28.264  47.067  55.083  1.00  0.00    -0.323 OA
HETATM   29  O   UNL     1      25.893  47.410  54.801  1.00  0.00    -0.323 OA
HETATM   30  C   UNL     1      25.416  45.087  54.244  1.00  0.00     0.042 A 
HETATM   31  C   UNL     1      27.168  48.006  55.117  1.00  0.00     0.352 A 
HETATM   32  C   UNL     1      25.984  43.822  54.064  1.00  0.00     0.040 A 
ENDBRANCH  23  24
ENDBRANCH  22  23
ENDBRANCH  21  22
ENDBRANCH  19  20
ENDBRANCH   2  19
TORSDOF 8
ENDMDL
MODEL 7
REMARK VINA RESULT:      -8.1      3.243      5.736
REMARK  8 active torsions:
REMARK  status: ('A' for Active; 'I' for Inactive)
REMARK    1  A    between atoms: O_2  and  C_3 
REMARK    2  A    between atoms: C_5  and  C_6 
REMARK    3  A    between atoms: C_10  and  C_11 
REMARK       I    between atoms: C_11  and  N_12 
REMARK    4  A    between atoms: N_12  and  C_13 
REMARK    5  A    between atoms: C_13  and  C_14 
REMARK    6  A    between atoms: C_15  and  C_16 
REMARK    7  A    between atoms: C_16  and  O_17 
REMARK    8  A    between atoms: O_17  and  C_18 
ROOT
HETATM    1  C   UNL     1      23.961  47.496  49.577  1.00  0.00     0.270 C 
HETATM    2  N   UNL     1      24.413  48.775  49.383  1.00  0.00    -0.345 N 
HETATM    3  O   UNL     1      23.066  47.002  48.899  1.00  0.00    -0.266 OA
HETATM    4  H   UNL     1      25.123  49.157  49.988  1.00  0.00     0.163 HD
ENDROOT
BRANCH   1   5
HETATM    5  C   UNL     1      24.619  46.770  50.629  1.00  0.00     0.120 A 
HETATM    6  N   UNL     1      24.266  45.489  50.951  1.00  0.00    -0.272 N 
HETATM    7  N   UNL     1      25.004  44.944  51.930  1.00  0.00    -0.174 NA
HETATM    8  H   UNL     1      23.533  44.934  50.520  1.00  0.00     0.189 HD
HETATM    9  C   UNL     1      25.863  45.911  52.286  1.00  0.00     0.089 A 
HETATM   10  C   UNL     1      25.651  47.074  51.496  1.00  0.00     0.071 A 
BRANCH   9  11
HETATM   11  C   UNL     1      26.864  45.712  53.337  1.00  0.00    -0.003 A 
HETATM   12  C   UNL     1      27.567  44.501  53.428  1.00  0.00     0.050 A 
HETATM   13  C   UNL     1      28.553  44.308  54.401  1.00  0.00     0.069 A 
HETATM   14  C   UNL     1      28.828  45.331  55.309  1.00  0.00     0.037 A 
HETATM   15  C   UNL     1      28.126  46.536  55.239  1.00  0.00     0.004 A 
HETATM   16  C   UNL     1      27.151  46.728  54.258  1.00  0.00     0.014 A 
BRANCH  13  17
HETATM   17  O   UNL     1      29.170  43.088  54.357  1.00  0.00    -0.356 OA
HETATM   18  C   UNL     1      30.048  42.849  53.263  1.00  0.00     0.210 C 
ENDBRANCH  13  17
ENDBRANCH   9  11
ENDBRANCH   1   5
BRANCH   2  19
HETATM   19  C   UNL     1      23.848  49.626  48.368  1.00  0.00     0.217 C 
BRANCH  19  20
HETATM   20  C   UNL     1      22.589  50.192  48.858  1.00  0.00    -0.085 C 
HETATM   21  C   UNL     1      21.549  50.667  49.230  1.00  0.00    -0.078 C 
BRANCH  21  22
HETATM   22  C   UNL     1      20.272  51.254  49.659  1.00  0.00     0.269 C 
BRANCH  22  23
HETATM   23  O   UNL     1      19.496  50.254  50.314  1.00  0.00    -0.339 OA
BRANCH  23  24
HETATM   24  C   UNL     1      18.456  49.712  49.604  1.00  0.00     0.072 A 
HETATM   25  C   UNL     1      17.596  50.409  48.750  1.00  0.00     0.076 A 
HETATM   26  C   UNL     1      16.597  49.693  48.120  1.00  0.00     0.107 A 
HETATM   27  C   UNL     1      16.437  48.341  48.308  1.00  0.00     0.105 A 
HETATM   28  O   UNL     1      15.675  50.209  47.264  1.00  0.00    -0.323 OA
HETATM   29  O   UNL     1      15.396  47.836  47.595  1.00  0.00    -0.323 OA
HETATM   30  C   UNL     1      17.267  47.625  49.141  1.00  0.00     0.042 A 
HETATM   31  C   UNL     1      14.917  49.026  46.935  1.00  0.00     0.352 A 
HETATM   32  C   UNL     1      18.286  48.325  49.794  1.00  0.00     0.040 A 
ENDBRANCH  23  24
ENDBRANCH  22  23
ENDBRANCH  21  22
ENDBRANCH  19  20
ENDBRANCH   2  19
TORSDOF 8
ENDMDL
MODEL 8
REMARK VINA RESULT:      -8.0      2.184      3.445
REMARK  8 active torsions:
REMARK  status: ('A' for Active; 'I' for Inactive)
REMARK    1  A    between atoms: O_2  and  C_3 
REMARK    2  A    between atoms: C_5  and  C_6 
REMARK    3  A    between atoms: C_10  and  C_11 
REMARK       I    between atoms: C_11  and  N_12 
REMARK    4  A    between atoms: N_12  and  C_13 
REMARK    5  A    between atoms: C_13  and  C_14 
REMARK    6  A    between atoms: C_15  and  C_16 
REMARK    7  A    between atoms: C_16  and  O_17 
REMARK    8  A    between atoms: O_17  and  C_18 
ROOT
HETATM    1  C   UNL     1      26.453  41.393  50.697  1.00  0.00     0.270 C 
HETATM    2  N   UNL     1      26.316  42.380  49.756  1.00  0.00    -0.345 N 
HETATM    3  O   UNL     1      25.919  40.294  50.584  1.00  0.00    -0.266 OA
HETATM    4  H   UNL     1      26.739  43.283  49.904  1.00  0.00     0.163 HD
ENDROOT
BRANCH   1   5
HETATM    5  C   UNL     1      27.277  41.736  51.823  1.00  0.00     0.120 A 
HETATM    6  N   UNL     1      27.947  40.785  52.542  1.00  0.00    -0.272 N 
HETATM    7  N   UNL     1      28.700  41.276  53.538  1.00  0.00    -0.174 NA
HETATM    8  H   UNL     1      27.934  39.782  52.384  1.00  0.00     0.189 HD
HETATM    9  C   UNL     1      28.502  42.602  53.491  1.00  0.00     0.089 A 
HETATM   10  C   UNL     1      27.612  42.930  52.431  1.00  0.00     0.071 A 
BRANCH   9  11
HETATM   11  C   UNL     1      29.163  43.519  54.421  1.00  0.00    -0.003 A 
HETATM   12  C   UNL     1      28.597  44.770  54.709  1.00  0.00     0.050 A 
HETATM   13  C   UNL     1      29.195  45.643  55.624  1.00  0.00     0.069 A 
HETATM   14  C   UNL     1      30.387  45.270  56.247  1.00  0.00     0.037 A 
HETATM   15  C   UNL     1      30.970  44.034  55.960  1.00  0.00     0.004 A 
HETATM   16  C   UNL     1      30.362  43.162  55.054  1.00  0.00     0.014 A 
BRANCH  13  17
HETATM   17  O   UNL     1      28.520  46.816  55.821  1.00  0.00    -0.356 OA
HETATM   18  C   UNL     1      27.425  47.083  54.954  1.00  0.00     0.210 C 
ENDBRANCH  13  17
ENDBRANCH   9  11
ENDBRANCH   1   5
BRANCH   2  19
HETATM   19  C   UNL     1      25.518  42.185  48.573  1.00  0.00     0.217 C 
BRANCH  19  20
HETATM   20  C   UNL     1      24.269  42.940  48.703  1.00  0.00    -0.085 C 
HETATM   21  C   UNL     1      23.243  43.551  48.839  1.00  0.00    -0.078 C 
BRANCH  21  22
HETATM   22  C   UNL     1      21.988  44.290  49.033  1.00  0.00     0.269 C 
BRANCH  22  23
HETATM   23  O   UNL     1      21.856  45.263  48.000  1.00  0.00    -0.339 OA
BRANCH  23  24
HETATM   24  C   UNL     1      21.701  46.567  48.392  1.00  0.00     0.072 A 
HETATM   25  C   UNL     1      22.728  47.436  48.771  1.00  0.00     0.076 A 
HETATM   26  C   UNL     1      22.379  48.720  49.142  1.00  0.00     0.107 A 
HETATM   27  C   UNL     1      21.074  49.151  49.145  1.00  0.00     0.105 A 
HETATM   28  O   UNL     1      23.246  49.690  49.538  1.00  0.00    -0.323 OA
HETATM   29  O   UNL     1      20.955  50.445  49.542  1.00  0.00    -0.323 OA
HETATM   30  C   UNL     1      20.039  48.321  48.778  1.00  0.00     0.042 A 
HETATM   31  C   UNL     1      22.336  50.782  49.791  1.00  0.00     0.352 A 
HETATM   32  C   UNL     1      20.363  47.015  48.399  1.00  0.00     0.040 A 
ENDBRANCH  23  24
ENDBRANCH  22  23
ENDBRANCH  21  22
ENDBRANCH  19  20
ENDBRANCH   2  19
TORSDOF 8
ENDMDL
MODEL 9
REMARK VINA RESULT:      -8.0      3.430     10.367
REMARK  8 active torsions:
REMARK  status: ('A' for Active; 'I' for Inactive)
REMARK    1  A    between atoms: O_2  and  C_3 
REMARK    2  A    between atoms: C_5  and  C_6 
REMARK    3  A    between atoms: C_10  and  C_11 
REMARK       I    between atoms: C_11  and  N_12 
REMARK    4  A    between atoms: N_12  and  C_13 
REMARK    5  A    between atoms: C_13  and  C_14 
REMARK    6  A    between atoms: C_15  and  C_16 
REMARK    7  A    between atoms: C_16  and  O_17 
REMARK    8  A    between atoms: O_17  and  C_18 
ROOT
HETATM    1  C   UNL     1      23.763  47.874  49.203  1.00  0.00     0.270 C 
HETATM    2  N   UNL     1      23.192  46.677  49.547  1.00  0.00    -0.345 N 
HETATM    3  O   UNL     1      24.950  47.981  48.915  1.00  0.00    -0.266 OA
HETATM    4  H   UNL     1      22.220  46.638  49.814  1.00  0.00     0.163 HD
ENDROOT
BRANCH   1   5
HETATM    5  C   UNL     1      22.865  48.998  49.196  1.00  0.00     0.120 A 
HETATM    6  N   UNL     1      23.302  50.270  49.435  1.00  0.00    -0.272 N 
HETATM    7  N   UNL     1      22.344  51.206  49.354  1.00  0.00    -0.174 NA
HETATM    8  H   UNL     1      24.253  50.557  49.646  1.00  0.00     0.189 HD
HETATM    9  C   UNL     1      21.224  50.522  49.075  1.00  0.00     0.089 A 
HETATM   10  C   UNL     1      21.509  49.132  48.971  1.00  0.00     0.071 A 
BRANCH   9  11
HETATM   11  C   UNL     1      19.932  51.187  48.894  1.00  0.00    -0.003 A 
HETATM   12  C   UNL     1      19.405  51.377  47.608  1.00  0.00     0.050 A 
HETATM   13  C   UNL     1      18.155  51.976  47.420  1.00  0.00     0.069 A 
HETATM   14  C   UNL     1      17.430  52.411  48.529  1.00  0.00     0.037 A 
HETATM   15  C   UNL     1      17.949  52.242  49.814  1.00  0.00     0.004 A 
HETATM   16  C   UNL     1      19.192  51.632  49.997  1.00  0.00     0.014 A 
BRANCH  13  17
HETATM   17  O   UNL     1      17.758  52.075  46.114  1.00  0.00    -0.356 OA
HETATM   18  C   UNL     1      17.950  50.930  45.294  1.00  0.00     0.210 C 
ENDBRANCH  13  17
ENDBRANCH   9  11
ENDBRANCH   1   5
BRANCH   2  19
HETATM   19  C   UNL     1      23.965  45.464  49.601  1.00  0.00     0.217 C 
BRANCH  19  20
HETATM   20  C   UNL     1      24.659  45.390  50.889  1.00  0.00    -0.085 C 
HETATM   21  C   UNL     1      25.246  45.306  51.934  1.00  0.00    -0.078 C 
BRANCH  21  22
HETATM   22  C   UNL     1      25.981  45.185  53.201  1.00  0.00     0.269 C 
BRANCH  22  23
HETATM   23  O   UNL     1      27.317  44.772  52.928  1.00  0.00    -0.339 OA
BRANCH  23  24
HETATM   24  C   UNL     1      28.203  44.806  53.973  1.00  0.00     0.072 A 
HETATM   25  C   UNL     1      29.130  43.810  54.293  1.00  0.00     0.076 A 
HETATM   26  C   UNL     1      29.942  44.017  55.391  1.00  0.00     0.107 A 
HETATM   27  C   UNL     1      29.860  45.156  56.157  1.00  0.00     0.105 A 
HETATM   28  O   UNL     1      30.892  43.156  55.845  1.00  0.00    -0.323 OA
HETATM   29  O   UNL     1      30.747  45.156  57.186  1.00  0.00    -0.323 OA
HETATM   30  C   UNL     1      28.958  46.156  55.869  1.00  0.00     0.042 A 
HETATM   31  C   UNL     1      31.399  43.885  56.983  1.00  0.00     0.352 A 
HETATM   32  C   UNL     1      28.122  45.971  54.763  1.00  0.00     0.040 A 
ENDBRANCH  23  24
ENDBRANCH  22  23
ENDBRANCH  21  22
ENDBRANCH  19  20
ENDBRANCH   2  19
TORSDOF 8
ENDMDL
MODEL 10
REMARK VINA RESULT:      -8.0      3.394     10.119
REMARK  8 active torsions:
REMARK  status: ('A' for Active; 'I' for Inactive)
REMARK    1  A    between atoms: O_2  and  C_3 
REMARK    2  A    between atoms: C_5  and  C_6 
REMARK    3  A    between atoms: C_10  and  C_11 
REMARK       I    between atoms: C_11  and  N_12 
REMARK    4  A    between atoms: N_12  and  C_13 
REMARK    5  A    between atoms: C_13  and  C_14 
REMARK    6  A    between atoms: C_15  and  C_16 
REMARK    7  A    between atoms: C_16  and  O_17 
REMARK    8  A    between atoms: O_17  and  C_18 
ROOT
HETATM    1  C   UNL     1      23.746  47.087  49.346  1.00  0.00     0.270 C 
HETATM    2  N   UNL     1      24.754  47.932  49.729  1.00  0.00    -0.345 N 
HETATM    3  O   UNL     1      23.881  45.868  49.317  1.00  0.00    -0.266 OA
HETATM    4  H   UNL     1      24.615  48.930  49.702  1.00  0.00     0.163 HD
ENDROOT
BRANCH   1   5
HETATM    5  C   UNL     1      22.512  47.733  48.988  1.00  0.00     0.120 A 
HETATM    6  N   UNL     1      21.329  47.050  48.940  1.00  0.00    -0.272 N 
HETATM    7  N   UNL     1      20.267  47.808  48.627  1.00  0.00    -0.174 NA
HETATM    8  H   UNL     1      21.189  46.061  49.128  1.00  0.00     0.189 HD
HETATM    9  C   UNL     1      20.772  49.036  48.436  1.00  0.00     0.089 A 
HETATM   10  C   UNL     1      22.178  49.029  48.650  1.00  0.00     0.071 A 
BRANCH   9  11
HETATM   11  C   UNL     1      19.926  50.177  48.080  1.00  0.00    -0.003 A 
HETATM   12  C   UNL     1      19.026  50.087  47.008  1.00  0.00     0.050 A 
HETATM   13  C   UNL     1      18.183  51.154  46.679  1.00  0.00     0.069 A 
HETATM   14  C   UNL     1      18.254  52.335  47.418  1.00  0.00     0.037 A 
HETATM   15  C   UNL     1      19.155  52.444  48.479  1.00  0.00     0.004 A 
HETATM   16  C   UNL     1      19.985  51.371  48.811  1.00  0.00     0.014 A 
BRANCH  13  17
HETATM   17  O   UNL     1      17.344  50.916  45.625  1.00  0.00    -0.356 OA
HETATM   18  C   UNL     1      17.413  51.821  44.530  1.00  0.00     0.210 C 
ENDBRANCH  13  17
ENDBRANCH   9  11
ENDBRANCH   1   5
BRANCH   2  19
HETATM   19  C   UNL     1      26.049  47.432  50.113  1.00  0.00     0.217 C 
BRANCH  19  20
HETATM   20  C   UNL     1      26.114  47.331  51.573  1.00  0.00    -0.085 C 
HETATM   21  C   UNL     1      26.154  47.219  52.769  1.00  0.00    -0.078 C 
BRANCH  21  22
HETATM   22  C   UNL     1      26.191  47.058  54.229  1.00  0.00     0.269 C 
BRANCH  22  23
HETATM   23  O   UNL     1      25.872  45.709  54.558  1.00  0.00    -0.339 OA
BRANCH  23  24
HETATM   24  C   UNL     1      26.793  44.753  54.219  1.00  0.00     0.072 A 
HETATM   25  C   UNL     1      26.556  43.639  53.408  1.00  0.00     0.076 A 
HETATM   26  C   UNL     1      27.609  42.776  53.179  1.00  0.00     0.107 A 
HETATM   27  C   UNL     1      28.857  42.985  53.716  1.00  0.00     0.105 A 
HETATM   28  O   UNL     1      27.555  41.647  52.421  1.00  0.00    -0.323 OA
HETATM   29  O   UNL     1      29.744  42.018  53.365  1.00  0.00    -0.323 OA
HETATM   30  C   UNL     1      29.124  44.073  54.518  1.00  0.00     0.042 A 
HETATM   31  C   UNL     1      28.913  41.172  52.544  1.00  0.00     0.352 A 
HETATM   32  C   UNL     1      28.074  44.962  54.768  1.00  0.00     0.040 A 
ENDBRANCH  23  24
ENDBRANCH  22  23
ENDBRANCH  21  22
ENDBRANCH  19  20
ENDBRANCH   2  19
TORSDOF 8
ENDMDL
