MODEL 1
REMARK VINA RESULT:      -8.4      0.000      0.000
REMARK  6 active torsions:
REMARK  status: ('A' for Active; 'I' for Inactive)
REMARK    1  A    between atoms: C_2  and  N_3 
REMARK    2  A    between atoms: C_4  and  C_20 
REMARK    3  A    between atoms: C_10  and  C_11 
REMARK    4  A    between atoms: C_14  and  C_15 
REMARK    5  A    between atoms: C_15  and  N_16 
REMARK    6  A    between atoms: C_24  and  N_25 
ROOT
HETATM    1  N   UNL     1      28.532  44.692  54.622  1.00  0.00    -0.327 N 
HETATM    2  C   UNL     1      29.259  45.162  55.704  1.00  0.00     0.166 A 
HETATM    3  N   UNL     1      28.842  46.366  56.054  1.00  0.00    -0.225 NA
HETATM    4  C   UNL     1      27.824  46.683  55.197  1.00  0.00     0.104 A 
HETATM    5  C   UNL     1      27.035  47.838  55.167  1.00  0.00     0.150 A 
HETATM    6  N   UNL     1      26.067  47.989  54.235  1.00  0.00    -0.270 NA
HETATM    7  C   UNL     1      25.896  46.998  53.331  1.00  0.00     0.131 A 
HETATM    8  C   UNL     1      26.626  45.802  53.260  1.00  0.00     0.021 A 
HETATM    9  C   UNL     1      27.614  45.667  54.258  1.00  0.00     0.079 A 
ENDROOT
BRANCH   8  10
HETATM   10  C   UNL     1      26.358  44.838  52.201  1.00  0.00    -0.022 A 
HETATM   11  C   UNL     1      27.062  44.893  50.988  1.00  0.00     0.013 A 
HETATM   12  C   UNL     1      26.773  44.004  49.949  1.00  0.00     0.010 A 
HETATM   13  C   UNL     1      25.765  43.040  50.091  1.00  0.00    -0.031 A 
HETATM   14  C   UNL     1      25.044  43.003  51.292  1.00  0.00     0.010 A 
HETATM   15  C   UNL     1      25.341  43.884  52.336  1.00  0.00     0.013 A 
BRANCH  13  16
HETATM   16  C   UNL     1      25.416  42.143  48.928  1.00  0.00     0.305 C 
BRANCH  16  17
HETATM   17  N   UNL     1      26.529  41.944  48.005  1.00  0.00     0.082 N 
HETATM   18  H   UNL     1      26.717  42.823  47.525  1.00  0.00     0.313 HD
HETATM   19  H   UNL     1      26.250  41.278  47.288  1.00  0.00     0.313 HD
ENDBRANCH  16  17
ENDBRANCH  13  16
ENDBRANCH   8  10
BRANCH   1  20
HETATM   20  C   UNL     1      28.677  43.381  54.015  1.00  0.00     0.126 C 
HETATM   21  C   UNL     1      29.673  43.377  52.869  1.00  0.00     0.027 C 
ENDBRANCH   1  20
BRANCH   2  22
HETATM   22  C   UNL     1      30.376  44.478  56.440  1.00  0.00     0.179 A 
HETATM   23  N   UNL     1      31.031  43.401  56.000  1.00  0.00    -0.097 NA
HETATM   24  O   UNL     1      31.985  43.136  56.977  1.00  0.00    -0.104 OA
HETATM   25  N   UNL     1      31.916  44.055  58.016  1.00  0.00    -0.085 NA
HETATM   26  C   UNL     1      30.917  44.872  57.693  1.00  0.00     0.186 A 
BRANCH  26  27
HETATM   27  N   UNL     1      30.500  45.912  58.441  1.00  0.00    -0.380 N 
HETATM   28  H   UNL     1      30.239  46.785  58.001  1.00  0.00     0.158 HD
HETATM   29  H   UNL     1      30.089  45.736  59.358  1.00  0.00     0.158 HD
ENDBRANCH  26  27
ENDBRANCH   2  22
TORSDOF 6
ENDMDL
MODEL 2
REMARK VINA RESULT:      -8.0      4.115      7.838
REMARK  6 active torsions:
REMARK  status: ('A' for Active; 'I' for Inactive)
REMARK    1  A    between atoms: C_2  and  N_3 
REMARK    2  A    between atoms: C_4  and  C_20 
REMARK    3  A    between atoms: C_10  and  C_11 
REMARK    4  A    between atoms: C_14  and  C_15 
REMARK    5  A    between atoms: C_15  and  N_16 
REMARK    6  A    between atoms: C_24  and  N_25 
ROOT
HETATM    1  N   UNL     1      25.199  46.158  50.676  1.00  0.00    -0.327 N 
HETATM    2  C   UNL     1      24.323  46.776  49.797  1.00  0.00     0.166 A 
HETATM    3  N   UNL     1      23.559  45.881  49.198  1.00  0.00    -0.225 NA
HETATM    4  C   UNL     1      23.932  44.662  49.698  1.00  0.00     0.104 A 
HETATM    5  C   UNL     1      23.408  43.400  49.402  1.00  0.00     0.150 A 
HETATM    6  N   UNL     1      23.908  42.290  49.990  1.00  0.00    -0.270 NA
HETATM    7  C   UNL     1      24.934  42.438  50.858  1.00  0.00     0.131 A 
HETATM    8  C   UNL     1      25.542  43.648  51.227  1.00  0.00     0.021 A 
HETATM    9  C   UNL     1      24.984  44.787  50.612  1.00  0.00     0.079 A 
ENDROOT
BRANCH   8  10
HETATM   10  C   UNL     1      26.671  43.653  52.148  1.00  0.00    -0.022 A 
HETATM   11  C   UNL     1      27.986  43.539  51.669  1.00  0.00     0.013 A 
HETATM   12  C   UNL     1      29.070  43.491  52.551  1.00  0.00     0.010 A 
HETATM   13  C   UNL     1      28.868  43.546  53.936  1.00  0.00    -0.031 A 
HETATM   14  C   UNL     1      27.553  43.633  54.416  1.00  0.00     0.010 A 
HETATM   15  C   UNL     1      26.470  43.694  53.533  1.00  0.00     0.013 A 
BRANCH  13  16
HETATM   16  C   UNL     1      30.046  43.412  54.872  1.00  0.00     0.305 C 
BRANCH  16  17
HETATM   17  N   UNL     1      30.193  44.552  55.772  1.00  0.00     0.082 N 
HETATM   18  H   UNL     1      29.350  44.634  56.338  1.00  0.00     0.313 HD
HETATM   19  H   UNL     1      30.251  45.405  55.219  1.00  0.00     0.313 HD
ENDBRANCH  16  17
ENDBRANCH  13  16
ENDBRANCH   8  10
BRANCH   1  20
HETATM   20  C   UNL     1      26.137  46.839  51.549  1.00  0.00     0.126 C 
HETATM   21  C   UNL     1      25.557  47.116  52.925  1.00  0.00     0.027 C 
ENDBRANCH   1  20
BRANCH   2  22
HETATM   22  C   UNL     1      24.187  48.243  49.501  1.00  0.00     0.179 A 
HETATM   23  N   UNL     1      25.208  49.074  49.281  1.00  0.00    -0.097 NA
HETATM   24  O   UNL     1      24.620  50.308  49.024  1.00  0.00    -0.104 OA
HETATM   25  N   UNL     1      23.235  50.232  49.084  1.00  0.00    -0.085 NA
HETATM   26  C   UNL     1      22.969  48.964  49.392  1.00  0.00     0.186 A 
BRANCH  26  27
HETATM   27  N   UNL     1      21.732  48.457  49.561  1.00  0.00    -0.380 N 
HETATM   28  H   UNL     1      21.092  48.881  50.220  1.00  0.00     0.158 HD
HETATM   29  H   UNL     1      21.303  47.922  48.806  1.00  0.00     0.158 HD
ENDBRANCH  26  27
ENDBRANCH   2  22
TORSDOF 6
ENDMDL
MODEL 3
REMARK VINA RESULT:      -7.9      5.254      8.601
REMARK  6 active torsions:
REMARK  status: ('A' for Active; 'I' for Inactive)
REMARK    1  A    between atoms: C_2  and  N_3 
REMARK    2  A    between atoms: C_4  and  C_20 
REMARK    3  A    between atoms: C_10  and  C_11 
REMARK    4  A    between atoms: C_14  and  C_15 
REMARK    5  A    between atoms: C_15  and  N_16 
REMARK    6  A    between atoms: C_24  and  N_25 
ROOT
HETATM    1  N   UNL     1      23.366  45.215  49.573  1.00  0.00    -0.327 N 
HETATM    2  C   UNL     1      22.342  45.776  48.826  1.00  0.00     0.166 A 
HETATM    3  N   UNL     1      22.587  47.053  48.589  1.00  0.00    -0.225 NA
HETATM    4  C   UNL     1      23.791  47.328  49.180  1.00  0.00     0.104 A 
HETATM    5  C   UNL     1      24.501  48.532  49.194  1.00  0.00     0.150 A 
HETATM    6  N   UNL     1      25.685  48.628  49.841  1.00  0.00    -0.270 NA
HETATM    7  C   UNL     1      26.150  47.531  50.480  1.00  0.00     0.131 A 
HETATM    8  C   UNL     1      25.525  46.276  50.539  1.00  0.00     0.021 A 
HETATM    9  C   UNL     1      24.304  46.204  49.837  1.00  0.00     0.079 A 
ENDROOT
BRANCH   8  10
HETATM   10  C   UNL     1      26.125  45.190  51.303  1.00  0.00    -0.022 A 
HETATM   11  C   UNL     1      25.722  44.936  52.623  1.00  0.00     0.013 A 
HETATM   12  C   UNL     1      26.331  43.929  53.379  1.00  0.00     0.010 A 
HETATM   13  C   UNL     1      27.366  43.155  52.838  1.00  0.00    -0.031 A 
HETATM   14  C   UNL     1      27.787  43.427  51.529  1.00  0.00     0.010 A 
HETATM   15  C   UNL     1      27.170  44.425  50.768  1.00  0.00     0.013 A 
BRANCH  13  16
HETATM   16  C   UNL     1      28.063  42.127  53.698  1.00  0.00     0.305 C 
BRANCH  16  17
HETATM   17  N   UNL     1      27.643  40.760  53.407  1.00  0.00     0.082 N 
HETATM   18  H   UNL     1      28.337  40.326  52.800  1.00  0.00     0.313 HD
HETATM   19  H   UNL     1      26.774  40.786  52.878  1.00  0.00     0.313 HD
ENDBRANCH  16  17
ENDBRANCH  13  16
ENDBRANCH   8  10
BRANCH   1  20
HETATM   20  C   UNL     1      23.458  43.819  49.961  1.00  0.00     0.126 C 
HETATM   21  C   UNL     1      24.251  42.990  48.965  1.00  0.00     0.027 C 
ENDBRANCH   1  20
BRANCH   2  22
HETATM   22  C   UNL     1      21.095  45.112  48.313  1.00  0.00     0.179 A 
HETATM   23  N   UNL     1      21.076  44.042  47.515  1.00  0.00    -0.097 NA
HETATM   24  O   UNL     1      19.727  43.761  47.324  1.00  0.00    -0.104 OA
HETATM   25  N   UNL     1      18.919  44.660  48.007  1.00  0.00    -0.085 NA
HETATM   26  C   UNL     1      19.761  45.500  48.604  1.00  0.00     0.186 A 
BRANCH  26  27
HETATM   27  N   UNL     1      19.392  46.546  49.370  1.00  0.00    -0.380 N 
HETATM   28  H   UNL     1      20.020  46.908  50.076  1.00  0.00     0.158 HD
HETATM   29  H   UNL     1      18.691  47.199  49.021  1.00  0.00     0.158 HD
ENDBRANCH  26  27
ENDBRANCH   2  22
TORSDOF 6
ENDMDL
MODEL 4
REMARK VINA RESULT:      -7.7      3.953      6.332
REMARK  6 active torsions:
REMARK  status: ('A' for Active; 'I' for Inactive)
REMARK    1  A    between atoms: C_2  and  N_3 
REMARK    2  A    between atoms: C_4  and  C_20 
REMARK    3  A    between atoms: C_10  and  C_11 
REMARK    4  A    between atoms: C_14  and  C_15 
REMARK    5  A    between atoms: C_15  and  N_16 
REMARK    6  A    between atoms: C_24  and  N_25 
ROOT
HETATM    1  N   UNL     1      26.281  45.689  50.858  1.00  0.00    -0.327 N 
HETATM    2  C   UNL     1      26.012  47.034  51.060  1.00  0.00     0.166 A 
HETATM    3  N   UNL     1      26.090  47.333  52.344  1.00  0.00    -0.225 NA
HETATM    4  C   UNL     1      26.424  46.173  52.989  1.00  0.00     0.104 A 
HETATM    5  C   UNL     1      26.652  45.968  54.354  1.00  0.00     0.150 A 
HETATM    6  N   UNL     1      26.969  44.740  54.823  1.00  0.00    -0.270 NA
HETATM    7  C   UNL     1      27.046  43.721  53.936  1.00  0.00     0.131 A 
HETATM    8  C   UNL     1      26.834  43.806  52.552  1.00  0.00     0.021 A 
HETATM    9  C   UNL     1      26.526  45.104  52.093  1.00  0.00     0.079 A 
ENDROOT
BRANCH   8  10
HETATM   10  C   UNL     1      26.910  42.612  51.721  1.00  0.00    -0.022 A 
HETATM   11  C   UNL     1      25.752  42.059  51.155  1.00  0.00     0.013 A 
HETATM   12  C   UNL     1      25.811  40.884  50.400  1.00  0.00     0.010 A 
HETATM   13  C   UNL     1      27.031  40.225  50.197  1.00  0.00    -0.031 A 
HETATM   14  C   UNL     1      28.185  40.763  50.785  1.00  0.00     0.010 A 
HETATM   15  C   UNL     1      28.127  41.945  51.530  1.00  0.00     0.013 A 
BRANCH  13  16
HETATM   16  C   UNL     1      27.061  38.915  49.446  1.00  0.00     0.305 C 
BRANCH  16  17
HETATM   17  N   UNL     1      26.295  37.861  50.105  1.00  0.00     0.082 N 
HETATM   18  H   UNL     1      25.414  38.254  50.433  1.00  0.00     0.313 HD
HETATM   19  H   UNL     1      26.800  37.554  50.933  1.00  0.00     0.313 HD
ENDBRANCH  16  17
ENDBRANCH  13  16
ENDBRANCH   8  10
BRANCH   1  20
HETATM   20  C   UNL     1      26.346  45.028  49.567  1.00  0.00     0.126 C 
HETATM   21  C   UNL     1      24.971  44.700  49.011  1.00  0.00     0.027 C 
ENDBRANCH   1  20
BRANCH   2  22
HETATM   22  C   UNL     1      25.671  48.077  50.034  1.00  0.00     0.179 A 
HETATM   23  N   UNL     1      24.458  48.605  49.858  1.00  0.00    -0.097 NA
HETATM   24  O   UNL     1      24.615  49.536  48.836  1.00  0.00    -0.104 OA
HETATM   25  N   UNL     1      25.928  49.579  48.386  1.00  0.00    -0.085 NA
HETATM   26  C   UNL     1      26.575  48.672  49.114  1.00  0.00     0.186 A 
BRANCH  26  27
HETATM   27  N   UNL     1      27.885  48.379  48.993  1.00  0.00    -0.380 N 
HETATM   28  H   UNL     1      28.500  48.997  48.478  1.00  0.00     0.158 HD
HETATM   29  H   UNL     1      28.333  47.788  49.693  1.00  0.00     0.158 HD
ENDBRANCH  26  27
ENDBRANCH   2  22
TORSDOF 6
ENDMDL
MODEL 5
REMARK VINA RESULT:      -7.7      3.403      7.655
REMARK  6 active torsions:
REMARK  status: ('A' for Active; 'I' for Inactive)
REMARK    1  A    between atoms: C_2  and  N_3 
REMARK    2  A    between atoms: C_4  and  C_20 
REMARK    3  A    between atoms: C_10  and  C_11 
REMARK    4  A    between atoms: C_14  and  C_15 
REMARK    5  A    between atoms: C_15  and  N_16 
REMARK    6  A    between atoms: C_24  and  N_25 
ROOT
HETATM    1  N   UNL     1      26.773  45.516  52.271  1.00  0.00    -0.327 N 
HETATM    2  C   UNL     1      26.063  45.573  51.081  1.00  0.00     0.166 A 
HETATM    3  N   UNL     1      25.998  44.377  50.524  1.00  0.00    -0.225 NA
HETATM    4  C   UNL     1      26.664  43.526  51.363  1.00  0.00     0.104 A 
HETATM    5  C   UNL     1      26.856  42.146  51.235  1.00  0.00     0.150 A 
HETATM    6  N   UNL     1      27.554  41.457  52.166  1.00  0.00    -0.270 NA
HETATM    7  C   UNL     1      28.069  42.144  53.211  1.00  0.00     0.131 A 
HETATM    8  C   UNL     1      27.946  43.522  53.441  1.00  0.00     0.021 A 
HETATM    9  C   UNL     1      27.195  44.207  52.464  1.00  0.00     0.079 A 
ENDROOT
BRANCH   8  10
HETATM   10  C   UNL     1      28.590  44.136  54.595  1.00  0.00    -0.022 A 
HETATM   11  C   UNL     1      27.906  45.076  55.381  1.00  0.00     0.013 A 
HETATM   12  C   UNL     1      28.536  45.707  56.458  1.00  0.00     0.010 A 
HETATM   13  C   UNL     1      29.872  45.422  56.772  1.00  0.00    -0.031 A 
HETATM   14  C   UNL     1      30.564  44.503  55.970  1.00  0.00     0.010 A 
HETATM   15  C   UNL     1      29.930  43.863  54.901  1.00  0.00     0.013 A 
BRANCH  13  16
HETATM   16  C   UNL     1      30.557  46.174  57.889  1.00  0.00     0.305 C 
BRANCH  16  17
HETATM   17  N   UNL     1      31.318  45.303  58.780  1.00  0.00     0.082 N 
HETATM   18  H   UNL     1      31.886  45.882  59.397  1.00  0.00     0.313 HD
HETATM   19  H   UNL     1      31.969  44.750  58.226  1.00  0.00     0.313 HD
ENDBRANCH  16  17
ENDBRANCH  13  16
ENDBRANCH   8  10
BRANCH   1  20
HETATM   20  C   UNL     1      26.986  46.629  53.179  1.00  0.00     0.126 C 
HETATM   21  C   UNL     1      25.692  47.139  53.788  1.00  0.00     0.027 C 
ENDBRANCH   1  20
BRANCH   2  22
HETATM   22  C   UNL     1      25.424  46.771  50.438  1.00  0.00     0.179 A 
HETATM   23  N   UNL     1      26.009  47.962  50.296  1.00  0.00    -0.097 NA
HETATM   24  O   UNL     1      25.072  48.746  49.630  1.00  0.00    -0.104 OA
HETATM   25  N   UNL     1      23.912  48.032  49.362  1.00  0.00    -0.085 NA
HETATM   26  C   UNL     1      24.123  46.821  49.872  1.00  0.00     0.186 A 
BRANCH  26  27
HETATM   27  N   UNL     1      23.235  45.807  49.840  1.00  0.00    -0.380 N 
HETATM   28  H   UNL     1      23.529  44.865  50.064  1.00  0.00     0.158 HD
HETATM   29  H   UNL     1      22.244  46.006  49.968  1.00  0.00     0.158 HD
ENDBRANCH  26  27
ENDBRANCH   2  22
TORSDOF 6
ENDMDL
MODEL 6
REMARK VINA RESULT:      -7.5      5.971      9.033
REMARK  6 active torsions:
REMARK  status: ('A' for Active; 'I' for Inactive)
REMARK    1  A    between atoms: C_2  and  N_3 
REMARK    2  A    between atoms: C_4  and  C_20 
REMARK    3  A    between atoms: C_10  and  C_11 
REMARK    4  A    between atoms: C_14  and  C_15 
REMARK    5  A    between atoms: C_15  and  N_16 
REMARK    6  A    between atoms: C_24  and  N_25 
ROOT
HETATM    1  N   UNL     1      23.586  47.372  49.013  1.00  0.00    -0.327 N 
HETATM    2  C   UNL     1      22.719  48.187  48.302  1.00  0.00     0.166 A 
HETATM    3  N   UNL     1      23.338  49.283  47.901  1.00  0.00    -0.225 NA
HETATM    4  C   UNL     1      24.628  49.179  48.346  1.00  0.00     0.104 A 
HETATM    5  C   UNL     1      25.690  50.069  48.158  1.00  0.00     0.150 A 
HETATM    6  N   UNL     1      26.910  49.808  48.679  1.00  0.00    -0.270 NA
HETATM    7  C   UNL     1      27.065  48.671  49.395  1.00  0.00     0.131 A 
HETATM    8  C   UNL     1      26.076  47.710  49.652  1.00  0.00     0.021 A 
HETATM    9  C   UNL     1      24.821  48.002  49.077  1.00  0.00     0.079 A 
ENDROOT
BRANCH   8  10
HETATM   10  C   UNL     1      26.376  46.547  50.477  1.00  0.00    -0.022 A 
HETATM   11  C   UNL     1      26.116  46.561  51.856  1.00  0.00     0.013 A 
HETATM   12  C   UNL     1      26.450  45.469  52.661  1.00  0.00     0.010 A 
HETATM   13  C   UNL     1      27.062  44.335  52.111  1.00  0.00    -0.031 A 
HETATM   14  C   UNL     1      27.346  44.331  50.738  1.00  0.00     0.010 A 
HETATM   15  C   UNL     1      27.001  45.418  49.930  1.00  0.00     0.013 A 
BRANCH  13  16
HETATM   16  C   UNL     1      27.487  43.199  53.012  1.00  0.00     0.305 C 
BRANCH  16  17
HETATM   17  N   UNL     1      26.649  43.069  54.200  1.00  0.00     0.082 N 
HETATM   18  H   UNL     1      26.416  42.086  54.330  1.00  0.00     0.313 HD
HETATM   19  H   UNL     1      25.769  43.555  54.039  1.00  0.00     0.313 HD
ENDBRANCH  16  17
ENDBRANCH  13  16
ENDBRANCH   8  10
BRANCH   1  20
HETATM   20  C   UNL     1      23.263  46.061  49.547  1.00  0.00     0.126 C 
HETATM   21  C   UNL     1      23.559  44.943  48.562  1.00  0.00     0.027 C 
ENDBRANCH   1  20
BRANCH   2  22
HETATM   22  C   UNL     1      21.270  47.947  47.983  1.00  0.00     0.179 A 
HETATM   23  N   UNL     1      20.821  47.376  46.863  1.00  0.00    -0.097 NA
HETATM   24  O   UNL     1      19.439  47.332  47.011  1.00  0.00    -0.104 OA
HETATM   25  N   UNL     1      19.041  47.876  48.225  1.00  0.00    -0.085 NA
HETATM   26  C   UNL     1      20.166  48.267  48.817  1.00  0.00     0.186 A 
BRANCH  26  27
HETATM   27  N   UNL     1      20.234  48.864  50.024  1.00  0.00    -0.380 N 
HETATM   28  H   UNL     1      19.388  49.101  50.524  1.00  0.00     0.158 HD
HETATM   29  H   UNL     1      21.069  48.742  50.596  1.00  0.00     0.158 HD
ENDBRANCH  26  27
ENDBRANCH   2  22
TORSDOF 6
ENDMDL
MODEL 7
REMARK VINA RESULT:      -7.5      8.122     10.819
REMARK  6 active torsions:
REMARK  status: ('A' for Active; 'I' for Inactive)
REMARK    1  A    between atoms: C_2  and  N_3 
REMARK    2  A    between atoms: C_4  and  C_20 
REMARK    3  A    between atoms: C_10  and  C_11 
REMARK    4  A    between atoms: C_14  and  C_15 
REMARK    5  A    between atoms: C_15  and  N_16 
REMARK    6  A    between atoms: C_24  and  N_25 
ROOT
HETATM    1  N   UNL     1      21.963  48.666  48.811  1.00  0.00    -0.327 N 
HETATM    2  C   UNL     1      22.980  47.728  48.722  1.00  0.00     0.166 A 
HETATM    3  N   UNL     1      22.704  46.834  47.790  1.00  0.00    -0.225 NA
HETATM    4  C   UNL     1      21.497  47.197  47.255  1.00  0.00     0.104 A 
HETATM    5  C   UNL     1      20.783  46.587  46.218  1.00  0.00     0.150 A 
HETATM    6  N   UNL     1      19.590  47.081  45.819  1.00  0.00    -0.270 NA
HETATM    7  C   UNL     1      19.106  48.170  46.460  1.00  0.00     0.131 A 
HETATM    8  C   UNL     1      19.727  48.859  47.513  1.00  0.00     0.021 A 
HETATM    9  C   UNL     1      20.980  48.330  47.890  1.00  0.00     0.079 A 
ENDROOT
BRANCH   8  10
HETATM   10  C   UNL     1      19.067  49.997  48.139  1.00  0.00    -0.022 A 
HETATM   11  C   UNL     1      18.231  49.816  49.251  1.00  0.00     0.013 A 
HETATM   12  C   UNL     1      17.553  50.896  49.824  1.00  0.00     0.010 A 
HETATM   13  C   UNL     1      17.687  52.186  49.294  1.00  0.00    -0.031 A 
HETATM   14  C   UNL     1      18.501  52.363  48.166  1.00  0.00     0.010 A 
HETATM   15  C   UNL     1      19.188  51.284  47.601  1.00  0.00     0.013 A 
BRANCH  13  16
HETATM   16  C   UNL     1      16.884  53.324  49.879  1.00  0.00     0.305 C 
BRANCH  16  17
HETATM   17  N   UNL     1      15.748  53.708  49.047  1.00  0.00     0.082 N 
HETATM   18  H   UNL     1      15.985  54.561  48.542  1.00  0.00     0.313 HD
HETATM   19  H   UNL     1      14.960  53.940  49.648  1.00  0.00     0.313 HD
ENDBRANCH  16  17
ENDBRANCH  13  16
ENDBRANCH   8  10
BRANCH   1  20
HETATM   20  C   UNL     1      21.962  49.827  49.684  1.00  0.00     0.126 C 
HETATM   21  C   UNL     1      22.577  51.049  49.026  1.00  0.00     0.027 C 
ENDBRANCH   1  20
BRANCH   2  22
HETATM   22  C   UNL     1      24.248  47.654  49.524  1.00  0.00     0.179 A 
HETATM   23  N   UNL     1      25.189  48.601  49.550  1.00  0.00    -0.097 NA
HETATM   24  O   UNL     1      26.152  48.127  50.436  1.00  0.00    -0.104 OA
HETATM   25  N   UNL     1      25.798  46.889  50.955  1.00  0.00    -0.085 NA
HETATM   26  C   UNL     1      24.633  46.592  50.384  1.00  0.00     0.186 A 
BRANCH  26  27
HETATM   27  N   UNL     1      23.935  45.460  50.603  1.00  0.00    -0.380 N 
HETATM   28  H   UNL     1      23.964  44.705  49.930  1.00  0.00     0.158 HD
HETATM   29  H   UNL     1      23.697  45.196  51.558  1.00  0.00     0.158 HD
ENDBRANCH  26  27
ENDBRANCH   2  22
TORSDOF 6
ENDMDL
MODEL 8
REMARK VINA RESULT:      -7.5     12.872     14.096
REMARK  6 active torsions:
REMARK  status: ('A' for Active; 'I' for Inactive)
REMARK    1  A    between atoms: C_2  and  N_3 
REMARK    2  A    between atoms: C_4  and  C_20 
REMARK    3  A    between atoms: C_10  and  C_11 
REMARK    4  A    between atoms: C_14  and  C_15 
REMARK    5  A    between atoms: C_15  and  N_16 
REMARK    6  A    between atoms: C_24  and  N_25 
ROOT
HETATM    1  N   UNL     1      31.146  50.295  41.498  1.00  0.00    -0.327 N 
HETATM    2  C   UNL     1      31.624  51.464  42.069  1.00  0.00     0.166 A 
HETATM    3  N   UNL     1      30.671  52.378  42.118  1.00  0.00    -0.225 NA
HETATM    4  C   UNL     1      29.554  51.797  41.583  1.00  0.00     0.104 A 
HETATM    5  C   UNL     1      28.274  52.341  41.432  1.00  0.00     0.150 A 
HETATM    6  N   UNL     1      27.280  51.619  40.868  1.00  0.00    -0.270 NA
HETATM    7  C   UNL     1      27.565  50.366  40.446  1.00  0.00     0.131 A 
HETATM    8  C   UNL     1      28.807  49.720  40.540  1.00  0.00     0.021 A 
HETATM    9  C   UNL     1      29.816  50.492  41.151  1.00  0.00     0.079 A 
ENDROOT
BRANCH   8  10
HETATM   10  C   UNL     1      28.979  48.376  40.004  1.00  0.00    -0.022 A 
HETATM   11  C   UNL     1      29.628  48.173  38.776  1.00  0.00     0.013 A 
HETATM   12  C   UNL     1      29.751  46.892  38.231  1.00  0.00     0.010 A 
HETATM   13  C   UNL     1      29.220  45.778  38.896  1.00  0.00    -0.031 A 
HETATM   14  C   UNL     1      28.548  45.984  40.109  1.00  0.00     0.010 A 
HETATM   15  C   UNL     1      28.436  47.264  40.660  1.00  0.00     0.013 A 
BRANCH  13  16
HETATM   16  C   UNL     1      29.294  44.414  38.251  1.00  0.00     0.305 C 
BRANCH  16  17
HETATM   17  N   UNL     1      29.915  44.440  36.930  1.00  0.00     0.082 N 
HETATM   18  H   UNL     1      30.371  45.342  36.800  1.00  0.00     0.313 HD
HETATM   19  H   UNL     1      29.187  44.381  36.221  1.00  0.00     0.313 HD
ENDBRANCH  16  17
ENDBRANCH  13  16
ENDBRANCH   8  10
BRANCH   1  20
HETATM   20  C   UNL     1      31.899  49.064  41.344  1.00  0.00     0.126 C 
HETATM   21  C   UNL     1      31.784  48.155  42.555  1.00  0.00     0.027 C 
ENDBRANCH   1  20
BRANCH   2  22
HETATM   22  C   UNL     1      33.006  51.747  42.586  1.00  0.00     0.179 A 
HETATM   23  N   UNL     1      34.091  51.893  41.822  1.00  0.00    -0.097 NA
HETATM   24  O   UNL     1      35.124  52.168  42.711  1.00  0.00    -0.104 OA
HETATM   25  N   UNL     1      34.670  52.192  44.024  1.00  0.00    -0.085 NA
HETATM   26  C   UNL     1      33.370  51.919  43.948  1.00  0.00     0.186 A 
BRANCH  26  27
HETATM   27  N   UNL     1      32.539  51.833  45.005  1.00  0.00    -0.380 N 
HETATM   28  H   UNL     1      31.600  52.205  44.948  1.00  0.00     0.158 HD
HETATM   29  H   UNL     1      32.684  51.098  45.697  1.00  0.00     0.158 HD
ENDBRANCH  26  27
ENDBRANCH   2  22
TORSDOF 6
ENDMDL
MODEL 9
REMARK VINA RESULT:      -7.4     12.997     14.883
REMARK  6 active torsions:
REMARK  status: ('A' for Active; 'I' for Inactive)
REMARK    1  A    between atoms: C_2  and  N_3 
REMARK    2  A    between atoms: C_4  and  C_20 
REMARK    3  A    between atoms: C_10  and  C_11 
REMARK    4  A    between atoms: C_14  and  C_15 
REMARK    5  A    between atoms: C_15  and  N_16 
REMARK    6  A    between atoms: C_24  and  N_25 
ROOT
HETATM    1  N   UNL     1      29.980  49.005  41.067  1.00  0.00    -0.327 N 
HETATM    2  C   UNL     1      28.838  48.294  40.729  1.00  0.00     0.166 A 
HETATM    3  N   UNL     1      27.787  49.094  40.703  1.00  0.00    -0.225 NA
HETATM    4  C   UNL     1      28.248  50.343  41.017  1.00  0.00     0.104 A 
HETATM    5  C   UNL     1      27.532  51.543  41.097  1.00  0.00     0.150 A 
HETATM    6  N   UNL     1      28.153  52.696  41.433  1.00  0.00    -0.270 NA
HETATM    7  C   UNL     1      29.479  52.649  41.699  1.00  0.00     0.131 A 
HETATM    8  C   UNL     1      30.295  51.509  41.656  1.00  0.00     0.021 A 
HETATM    9  C   UNL     1      29.621  50.328  41.283  1.00  0.00     0.079 A 
ENDROOT
BRANCH   8  10
HETATM   10  C   UNL     1      31.706  51.601  42.009  1.00  0.00    -0.022 A 
HETATM   11  C   UNL     1      32.696  51.561  41.015  1.00  0.00     0.013 A 
HETATM   12  C   UNL     1      34.053  51.596  41.351  1.00  0.00     0.010 A 
HETATM   13  C   UNL     1      34.456  51.663  42.691  1.00  0.00    -0.031 A 
HETATM   14  C   UNL     1      33.468  51.676  43.685  1.00  0.00     0.010 A 
HETATM   15  C   UNL     1      32.111  51.653  43.349  1.00  0.00     0.013 A 
BRANCH  13  16
HETATM   16  C   UNL     1      35.927  51.619  43.035  1.00  0.00     0.305 C 
BRANCH  16  17
HETATM   17  N   UNL     1      36.212  52.096  44.385  1.00  0.00     0.082 N 
HETATM   18  H   UNL     1      37.099  51.700  44.691  1.00  0.00     0.313 HD
HETATM   19  H   UNL     1      35.502  51.737  45.019  1.00  0.00     0.313 HD
ENDBRANCH  16  17
ENDBRANCH  13  16
ENDBRANCH   8  10
BRANCH   1  20
HETATM   20  C   UNL     1      31.324  48.459  41.127  1.00  0.00     0.126 C 
HETATM   21  C   UNL     1      31.766  48.156  42.548  1.00  0.00     0.027 C 
ENDBRANCH   1  20
BRANCH   2  22
HETATM   22  C   UNL     1      28.714  46.829  40.420  1.00  0.00     0.179 A 
HETATM   23  N   UNL     1      29.594  46.123  39.706  1.00  0.00    -0.097 NA
HETATM   24  O   UNL     1      29.096  44.825  39.702  1.00  0.00    -0.104 OA
HETATM   25  N   UNL     1      27.908  44.735  40.417  1.00  0.00    -0.085 NA
HETATM   26  C   UNL     1      27.666  45.971  40.846  1.00  0.00     0.186 A 
BRANCH  26  27
HETATM   27  N   UNL     1      26.595  46.335  41.579  1.00  0.00    -0.380 N 
HETATM   28  H   UNL     1      25.917  46.986  41.203  1.00  0.00     0.158 HD
HETATM   29  H   UNL     1      26.255  45.713  42.312  1.00  0.00     0.158 HD
ENDBRANCH  26  27
ENDBRANCH   2  22
TORSDOF 6
ENDMDL
MODEL 10
REMARK VINA RESULT:      -7.4      2.250      3.958
REMARK  6 active torsions:
REMARK  status: ('A' for Active; 'I' for Inactive)
REMARK    1  A    between atoms: C_2  and  N_3 
REMARK    2  A    between atoms: C_4  and  C_20 
REMARK    3  A    between atoms: C_10  and  C_11 
REMARK    4  A    between atoms: C_14  and  C_15 
REMARK    5  A    between atoms: C_15  and  N_16 
REMARK    6  A    between atoms: C_24  and  N_25 
ROOT
HETATM    1  N   UNL     1      28.218  44.555  53.880  1.00  0.00    -0.327 N 
HETATM    2  C   UNL     1      29.076  44.159  54.894  1.00  0.00     0.166 A 
HETATM    3  N   UNL     1      29.522  42.936  54.672  1.00  0.00    -0.225 NA
HETATM    4  C   UNL     1      28.958  42.530  53.493  1.00  0.00     0.104 A 
HETATM    5  C   UNL     1      29.134  41.322  52.812  1.00  0.00     0.150 A 
HETATM    6  N   UNL     1      28.484  41.083  51.651  1.00  0.00    -0.270 NA
HETATM    7  C   UNL     1      27.654  42.042  51.179  1.00  0.00     0.131 A 
HETATM    8  C   UNL     1      27.396  43.285  51.775  1.00  0.00     0.021 A 
HETATM    9  C   UNL     1      28.105  43.510  52.974  1.00  0.00     0.079 A 
ENDROOT
BRANCH   8  10
HETATM   10  C   UNL     1      26.442  44.206  51.172  1.00  0.00    -0.022 A 
HETATM   11  C   UNL     1      25.068  44.083  51.428  1.00  0.00     0.013 A 
HETATM   12  C   UNL     1      24.143  44.931  50.812  1.00  0.00     0.010 A 
HETATM   13  C   UNL     1      24.567  45.921  49.915  1.00  0.00    -0.031 A 
HETATM   14  C   UNL     1      25.937  46.027  49.639  1.00  0.00     0.010 A 
HETATM   15  C   UNL     1      26.863  45.187  50.265  1.00  0.00     0.013 A 
BRANCH  13  16
HETATM   16  C   UNL     1      23.545  46.773  49.200  1.00  0.00     0.305 C 
BRANCH  16  17
HETATM   17  N   UNL     1      23.291  48.043  49.872  1.00  0.00     0.082 N 
HETATM   18  H   UNL     1      22.784  47.861  50.737  1.00  0.00     0.313 HD
HETATM   19  H   UNL     1      22.674  48.607  49.291  1.00  0.00     0.313 HD
ENDBRANCH  16  17
ENDBRANCH  13  16
ENDBRANCH   8  10
BRANCH   1  20
HETATM   20  C   UNL     1      27.594  45.861  53.766  1.00  0.00     0.126 C 
HETATM   21  C   UNL     1      26.193  45.890  54.352  1.00  0.00     0.027 C 
ENDBRANCH   1  20
BRANCH   2  22
HETATM   22  C   UNL     1      29.498  44.937  56.110  1.00  0.00     0.179 A 
HETATM   23  N   UNL     1      28.807  45.945  56.647  1.00  0.00    -0.097 NA
HETATM   24  O   UNL     1      29.548  46.338  57.756  1.00  0.00    -0.104 OA
HETATM   25  N   UNL     1      30.695  45.567  57.900  1.00  0.00    -0.085 NA
HETATM   26  C   UNL     1      30.671  44.714  56.878  1.00  0.00     0.186 A 
BRANCH  26  27
HETATM   27  N   UNL     1      31.614  43.784  56.630  1.00  0.00    -0.380 N 
HETATM   28  H   UNL     1      32.546  43.890  57.008  1.00  0.00     0.158 HD
HETATM   29  H   UNL     1      31.330  42.831  56.407  1.00  0.00     0.158 HD
ENDBRANCH  26  27
ENDBRANCH   2  22
TORSDOF 6
ENDMDL
