MODEL 1
REMARK VINA RESULT:      -8.0      0.000      0.000
REMARK  8 active torsions:
REMARK  status: ('A' for Active; 'I' for Inactive)
REMARK    1  A    between atoms: C_2  and  N_3 
REMARK    2  A    between atoms: C_2  and  C_17 
REMARK    3  A    between atoms: N_3  and  N_4 
REMARK       I    between atoms: N_4  and  C_5 
REMARK    4  A    between atoms: C_5  and  C_6 
REMARK    5  A    between atoms: C_6  and  N_7 
REMARK    6  A    between atoms: N_7  and  C_8 
REMARK    7  A    between atoms: C_9  and  O_10 
REMARK       I    between atoms: C_17  and  N_18 
REMARK    8  A    between atoms: N_18  and  C_19 
ROOT
HETATM    1  N   UNL     1      26.631  40.736  51.793  1.00  0.00    -0.225 NA
HETATM    2  H   UNL     1      26.562  40.684  52.820  1.00  0.00     0.147 HD
ENDROOT
BRANCH   1   3
HETATM    3  C   UNL     1      28.047  41.112  51.502  1.00  0.00     0.165 C 
HETATM    4  C   UNL     1      29.068  40.108  52.032  1.00  0.00     0.038 C 
BRANCH   3   5
HETATM    5  C   UNL     1      28.335  42.492  52.149  1.00  0.00     0.241 C 
HETATM    6  N   UNL     1      28.921  42.385  53.401  1.00  0.00    -0.326 N 
HETATM    7  H   UNL     1      29.034  41.424  53.716  1.00  0.00     0.169 HD
HETATM    8  O   UNL     1      28.082  43.538  51.558  1.00  0.00    -0.271 OA
BRANCH   6   9
HETATM    9  C   UNL     1      29.298  43.407  54.288  1.00  0.00     0.036 A 
HETATM   10  C   UNL     1      28.560  44.574  54.492  1.00  0.00     0.053 A 
HETATM   11  C   UNL     1      29.012  45.532  55.402  1.00  0.00     0.036 A 
HETATM   12 CL   UNL     1      28.105  46.977  55.645  1.00  0.00    -0.084 Cl
HETATM   13  C   UNL     1      30.192  45.339  56.119  1.00  0.00     0.024 A 
HETATM   14  C   UNL     1      30.934  44.179  55.917  1.00  0.00     0.004 A 
HETATM   15  C   UNL     1      30.491  43.221  55.001  1.00  0.00     0.029 A 
ENDBRANCH   6   9
ENDBRANCH   3   5
ENDBRANCH   1   3
BRANCH   1  16
HETATM   16  N   UNL     1      25.703  41.726  51.380  1.00  0.00    -0.290 N 
HETATM   17  C   UNL     1      25.190  41.690  50.086  1.00  0.00     0.245 C 
HETATM   18  O   UNL     1      25.269  40.711  49.346  1.00  0.00    -0.271 OA
HETATM   19  H   UNL     1      25.801  42.677  51.755  1.00  0.00     0.183 HD
BRANCH  17  20
HETATM   20  C   UNL     1      24.510  43.003  49.683  1.00  0.00     0.196 C 
BRANCH  20  21
HETATM   21  N   UNL     1      23.967  43.708  50.859  1.00  0.00    -0.282 NA
HETATM   22  H   UNL     1      22.949  43.813  50.828  1.00  0.00     0.128 HD
BRANCH  21  23
HETATM   23  C   UNL     1      24.515  44.959  51.228  1.00  0.00     0.042 A 
HETATM   24  C   UNL     1      25.103  45.084  52.512  1.00  0.00     0.089 A 
HETATM   25  C   UNL     1      25.742  46.271  52.886  1.00  0.00     0.038 A 
HETATM   26  C   UNL     1      25.826  47.335  51.988  1.00  0.00     0.003 A 
HETATM   27  C   UNL     1      25.279  47.215  50.716  1.00  0.00     0.002 A 
HETATM   28  C   UNL     1      24.639  46.033  50.335  1.00  0.00     0.026 A 
BRANCH  24  29
HETATM   29  O   UNL     1      24.961  43.981  53.326  1.00  0.00    -0.354 OA
HETATM   30  C   UNL     1      25.051  44.202  54.729  1.00  0.00     0.210 C 
ENDBRANCH  24  29
ENDBRANCH  21  23
ENDBRANCH  20  21
ENDBRANCH  17  20
ENDBRANCH   1  16
TORSDOF 8
ENDMDL
MODEL 2
REMARK VINA RESULT:      -7.9      2.467      3.631
REMARK  8 active torsions:
REMARK  status: ('A' for Active; 'I' for Inactive)
REMARK    1  A    between atoms: C_2  and  N_3 
REMARK    2  A    between atoms: C_2  and  C_17 
REMARK    3  A    between atoms: N_3  and  N_4 
REMARK       I    between atoms: N_4  and  C_5 
REMARK    4  A    between atoms: C_5  and  C_6 
REMARK    5  A    between atoms: C_6  and  N_7 
REMARK    6  A    between atoms: N_7  and  C_8 
REMARK    7  A    between atoms: C_9  and  O_10 
REMARK       I    between atoms: C_17  and  N_18 
REMARK    8  A    between atoms: N_18  and  C_19 
ROOT
HETATM    1  N   UNL     1      25.884  42.372  51.389  1.00  0.00    -0.225 NA
HETATM    2  H   UNL     1      25.640  42.585  52.368  1.00  0.00     0.147 HD
ENDROOT
BRANCH   1   3
HETATM    3  C   UNL     1      27.342  42.052  51.398  1.00  0.00     0.165 C 
HETATM    4  C   UNL     1      27.675  40.725  52.077  1.00  0.00     0.038 C 
BRANCH   3   5
HETATM    5  C   UNL     1      28.092  43.187  52.145  1.00  0.00     0.241 C 
HETATM    6  N   UNL     1      28.436  42.837  53.442  1.00  0.00    -0.326 N 
HETATM    7  H   UNL     1      28.111  41.913  53.714  1.00  0.00     0.169 HD
HETATM    8  O   UNL     1      28.357  44.248  51.589  1.00  0.00    -0.271 OA
BRANCH   6   9
HETATM    9  C   UNL     1      29.093  43.607  54.417  1.00  0.00     0.036 A 
HETATM   10  C   UNL     1      30.185  43.157  55.161  1.00  0.00     0.053 A 
HETATM   11  C   UNL     1      30.778  43.999  56.104  1.00  0.00     0.036 A 
HETATM   12 CL   UNL     1      32.119  43.438  57.029  1.00  0.00    -0.084 Cl
HETATM   13  C   UNL     1      30.299  45.291  56.312  1.00  0.00     0.024 A 
HETATM   14  C   UNL     1      29.209  45.745  55.575  1.00  0.00     0.004 A 
HETATM   15  C   UNL     1      28.606  44.903  54.636  1.00  0.00     0.029 A 
ENDBRANCH   6   9
ENDBRANCH   3   5
ENDBRANCH   1   3
BRANCH   1  16
HETATM   16  N   UNL     1      25.579  43.535  50.638  1.00  0.00    -0.290 N 
HETATM   17  C   UNL     1      24.746  44.508  51.187  1.00  0.00     0.245 C 
HETATM   18  O   UNL     1      24.463  44.572  52.381  1.00  0.00    -0.271 OA
HETATM   19  H   UNL     1      25.496  43.453  49.618  1.00  0.00     0.183 HD
BRANCH  17  20
HETATM   20  C   UNL     1      24.224  45.497  50.138  1.00  0.00     0.196 C 
BRANCH  20  21
HETATM   21  N   UNL     1      24.369  46.890  50.597  1.00  0.00    -0.282 NA
HETATM   22  H   UNL     1      23.474  47.332  50.824  1.00  0.00     0.128 HD
BRANCH  21  23
HETATM   23  C   UNL     1      25.109  47.803  49.808  1.00  0.00     0.042 A 
HETATM   24  C   UNL     1      24.400  48.793  49.083  1.00  0.00     0.089 A 
HETATM   25  C   UNL     1      25.092  49.777  48.366  1.00  0.00     0.038 A 
HETATM   26  C   UNL     1      26.486  49.804  48.379  1.00  0.00     0.003 A 
HETATM   27  C   UNL     1      27.192  48.856  49.111  1.00  0.00     0.002 A 
HETATM   28  C   UNL     1      26.509  47.871  49.828  1.00  0.00     0.026 A 
BRANCH  24  29
HETATM   29  O   UNL     1      23.028  48.678  49.128  1.00  0.00    -0.354 OA
HETATM   30  C   UNL     1      22.313  49.042  47.953  1.00  0.00     0.210 C 
ENDBRANCH  24  29
ENDBRANCH  21  23
ENDBRANCH  20  21
ENDBRANCH  17  20
ENDBRANCH   1  16
TORSDOF 8
ENDMDL
MODEL 3
REMARK VINA RESULT:      -7.8      2.607      3.686
REMARK  8 active torsions:
REMARK  status: ('A' for Active; 'I' for Inactive)
REMARK    1  A    between atoms: C_2  and  N_3 
REMARK    2  A    between atoms: C_2  and  C_17 
REMARK    3  A    between atoms: N_3  and  N_4 
REMARK       I    between atoms: N_4  and  C_5 
REMARK    4  A    between atoms: C_5  and  C_6 
REMARK    5  A    between atoms: C_6  and  N_7 
REMARK    6  A    between atoms: N_7  and  C_8 
REMARK    7  A    between atoms: C_9  and  O_10 
REMARK       I    between atoms: C_17  and  N_18 
REMARK    8  A    between atoms: N_18  and  C_19 
ROOT
HETATM    1  N   UNL     1      25.657  43.664  52.458  1.00  0.00    -0.225 NA
HETATM    2  H   UNL     1      25.409  43.891  53.433  1.00  0.00     0.147 HD
ENDROOT
BRANCH   1   3
HETATM    3  C   UNL     1      27.147  43.585  52.428  1.00  0.00     0.165 C 
HETATM    4  C   UNL     1      27.680  42.376  51.662  1.00  0.00     0.038 C 
BRANCH   3   5
HETATM    5  C   UNL     1      27.667  43.508  53.888  1.00  0.00     0.241 C 
HETATM    6  N   UNL     1      28.937  44.045  54.033  1.00  0.00    -0.326 N 
HETATM    7  H   UNL     1      29.344  44.367  53.159  1.00  0.00     0.169 HD
HETATM    8  O   UNL     1      26.973  43.043  54.787  1.00  0.00    -0.271 OA
BRANCH   6   9
HETATM    9  C   UNL     1      29.731  44.129  55.189  1.00  0.00     0.036 A 
HETATM   10  C   UNL     1      29.667  45.180  56.106  1.00  0.00     0.053 A 
HETATM   11  C   UNL     1      30.492  45.171  57.232  1.00  0.00     0.036 A 
HETATM   12 CL   UNL     1      30.419  46.475  58.357  1.00  0.00    -0.084 Cl
HETATM   13  C   UNL     1      31.381  44.122  57.461  1.00  0.00     0.024 A 
HETATM   14  C   UNL     1      31.452  43.072  56.549  1.00  0.00     0.004 A 
HETATM   15  C   UNL     1      30.634  43.081  55.416  1.00  0.00     0.029 A 
ENDBRANCH   6   9
ENDBRANCH   3   5
ENDBRANCH   1   3
BRANCH   1  16
HETATM   16  N   UNL     1      25.145  44.719  51.661  1.00  0.00    -0.290 N 
HETATM   17  C   UNL     1      24.083  44.472  50.794  1.00  0.00     0.245 C 
HETATM   18  O   UNL     1      23.368  43.474  50.856  1.00  0.00    -0.271 OA
HETATM   19  H   UNL     1      25.797  45.434  51.316  1.00  0.00     0.183 HD
BRANCH  17  20
HETATM   20  C   UNL     1      23.895  45.585  49.757  1.00  0.00     0.196 C 
BRANCH  20  21
HETATM   21  N   UNL     1      24.153  46.913  50.343  1.00  0.00    -0.282 NA
HETATM   22  H   UNL     1      23.295  47.413  50.594  1.00  0.00     0.128 HD
BRANCH  21  23
HETATM   23  C   UNL     1      24.992  47.821  49.655  1.00  0.00     0.042 A 
HETATM   24  C   UNL     1      24.399  48.958  49.049  1.00  0.00     0.089 A 
HETATM   25  C   UNL     1      25.197  49.933  48.441  1.00  0.00     0.038 A 
HETATM   26  C   UNL     1      26.586  49.805  48.445  1.00  0.00     0.003 A 
HETATM   27  C   UNL     1      27.181  48.710  49.061  1.00  0.00     0.002 A 
HETATM   28  C   UNL     1      26.391  47.732  49.670  1.00  0.00     0.026 A 
BRANCH  24  29
HETATM   29  O   UNL     1      23.023  48.989  49.093  1.00  0.00    -0.354 OA
HETATM   30  C   UNL     1      22.335  48.726  47.876  1.00  0.00     0.210 C 
ENDBRANCH  24  29
ENDBRANCH  21  23
ENDBRANCH  20  21
ENDBRANCH  17  20
ENDBRANCH   1  16
TORSDOF 8
ENDMDL
MODEL 4
REMARK VINA RESULT:      -7.7      4.609      8.755
REMARK  8 active torsions:
REMARK  status: ('A' for Active; 'I' for Inactive)
REMARK    1  A    between atoms: C_2  and  N_3 
REMARK    2  A    between atoms: C_2  and  C_17 
REMARK    3  A    between atoms: N_3  and  N_4 
REMARK       I    between atoms: N_4  and  C_5 
REMARK    4  A    between atoms: C_5  and  C_6 
REMARK    5  A    between atoms: C_6  and  N_7 
REMARK    6  A    between atoms: N_7  and  C_8 
REMARK    7  A    between atoms: C_9  and  O_10 
REMARK       I    between atoms: C_17  and  N_18 
REMARK    8  A    between atoms: N_18  and  C_19 
ROOT
HETATM    1  N   UNL     1      24.915  47.492  51.920  1.00  0.00    -0.225 NA
HETATM    2  H   UNL     1      24.082  47.036  52.320  1.00  0.00     0.147 HD
ENDROOT
BRANCH   1   3
HETATM    3  C   UNL     1      24.979  47.041  50.498  1.00  0.00     0.165 C 
HETATM    4  C   UNL     1      26.399  46.784  50.000  1.00  0.00     0.038 C 
BRANCH   3   5
HETATM    5  C   UNL     1      24.336  48.134  49.604  1.00  0.00     0.241 C 
HETATM    6  N   UNL     1      22.959  48.202  49.748  1.00  0.00    -0.326 N 
HETATM    7  H   UNL     1      22.582  47.503  50.383  1.00  0.00     0.169 HD
HETATM    8  O   UNL     1      25.024  48.857  48.889  1.00  0.00    -0.271 OA
BRANCH   6   9
HETATM    9  C   UNL     1      22.045  49.043  49.090  1.00  0.00     0.036 A 
HETATM   10  C   UNL     1      21.124  48.601  48.140  1.00  0.00     0.053 A 
HETATM   11  C   UNL     1      20.249  49.512  47.544  1.00  0.00     0.036 A 
HETATM   12 CL   UNL     1      19.119  48.966  46.363  1.00  0.00    -0.084 Cl
HETATM   13  C   UNL     1      20.275  50.862  47.890  1.00  0.00     0.024 A 
HETATM   14  C   UNL     1      21.194  51.309  48.835  1.00  0.00     0.004 A 
HETATM   15  C   UNL     1      22.078  50.403  49.427  1.00  0.00     0.029 A 
ENDBRANCH   6   9
ENDBRANCH   3   5
ENDBRANCH   1   3
BRANCH   1  16
HETATM   16  N   UNL     1      26.021  47.050  52.688  1.00  0.00    -0.290 N 
HETATM   17  C   UNL     1      26.243  47.597  53.950  1.00  0.00     0.245 C 
HETATM   18  O   UNL     1      25.404  48.243  54.573  1.00  0.00    -0.271 OA
HETATM   19  H   UNL     1      26.885  46.787  52.199  1.00  0.00     0.183 HD
BRANCH  17  20
HETATM   20  C   UNL     1      27.649  47.299  54.484  1.00  0.00     0.196 C 
BRANCH  20  21
HETATM   21  N   UNL     1      27.669  46.059  55.280  1.00  0.00    -0.282 NA
HETATM   22  H   UNL     1      27.646  46.231  56.289  1.00  0.00     0.128 HD
BRANCH  21  23
HETATM   23  C   UNL     1      28.676  45.096  55.034  1.00  0.00     0.042 A 
HETATM   24  C   UNL     1      29.808  45.072  55.888  1.00  0.00     0.089 A 
HETATM   25  C   UNL     1      30.783  44.079  55.744  1.00  0.00     0.038 A 
HETATM   26  C   UNL     1      30.637  43.089  54.773  1.00  0.00     0.003 A 
HETATM   27  C   UNL     1      29.518  43.084  53.949  1.00  0.00     0.002 A 
HETATM   28  C   UNL     1      28.540  44.073  54.086  1.00  0.00     0.026 A 
BRANCH  24  29
HETATM   29  O   UNL     1      29.862  46.095  56.810  1.00  0.00    -0.354 OA
HETATM   30  C   UNL     1      30.099  45.728  58.164  1.00  0.00     0.210 C 
ENDBRANCH  24  29
ENDBRANCH  21  23
ENDBRANCH  20  21
ENDBRANCH  17  20
ENDBRANCH   1  16
TORSDOF 8
ENDMDL
MODEL 5
REMARK VINA RESULT:      -7.6      3.005      4.211
REMARK  8 active torsions:
REMARK  status: ('A' for Active; 'I' for Inactive)
REMARK    1  A    between atoms: C_2  and  N_3 
REMARK    2  A    between atoms: C_2  and  C_17 
REMARK    3  A    between atoms: N_3  and  N_4 
REMARK       I    between atoms: N_4  and  C_5 
REMARK    4  A    between atoms: C_5  and  C_6 
REMARK    5  A    between atoms: C_6  and  N_7 
REMARK    6  A    between atoms: N_7  and  C_8 
REMARK    7  A    between atoms: C_9  and  O_10 
REMARK       I    between atoms: C_17  and  N_18 
REMARK    8  A    between atoms: N_18  and  C_19 
ROOT
HETATM    1  N   UNL     1      26.974  43.331  49.126  1.00  0.00    -0.225 NA
HETATM    2  H   UNL     1      27.357  43.111  48.194  1.00  0.00     0.147 HD
ENDROOT
BRANCH   1   3
HETATM    3  C   UNL     1      26.760  42.014  49.795  1.00  0.00     0.165 C 
HETATM    4  C   UNL     1      25.316  41.520  49.729  1.00  0.00     0.038 C 
BRANCH   3   5
HETATM    5  C   UNL     1      27.165  42.147  51.287  1.00  0.00     0.241 C 
HETATM    6  N   UNL     1      27.609  43.420  51.610  1.00  0.00    -0.326 N 
HETATM    7  H   UNL     1      27.639  44.053  50.815  1.00  0.00     0.169 HD
HETATM    8  O   UNL     1      27.052  41.203  52.064  1.00  0.00    -0.271 OA
BRANCH   6   9
HETATM    9  C   UNL     1      28.077  43.903  52.844  1.00  0.00     0.036 A 
HETATM   10  C   UNL     1      29.178  43.377  53.520  1.00  0.00     0.053 A 
HETATM   11  C   UNL     1      29.574  43.930  54.740  1.00  0.00     0.036 A 
HETATM   12 CL   UNL     1      30.927  43.273  55.580  1.00  0.00    -0.084 Cl
HETATM   13  C   UNL     1      28.887  45.009  55.294  1.00  0.00     0.024 A 
HETATM   14  C   UNL     1      27.785  45.537  54.625  1.00  0.00     0.004 A 
HETATM   15  C   UNL     1      27.380  44.981  53.408  1.00  0.00     0.029 A 
ENDBRANCH   6   9
ENDBRANCH   3   5
ENDBRANCH   1   3
BRANCH   1  16
HETATM   16  N   UNL     1      25.765  44.038  48.903  1.00  0.00    -0.290 N 
HETATM   17  C   UNL     1      25.584  45.289  49.489  1.00  0.00     0.245 C 
HETATM   18  O   UNL     1      26.496  45.958  49.969  1.00  0.00    -0.271 OA
HETATM   19  H   UNL     1      24.895  43.503  48.804  1.00  0.00     0.183 HD
BRANCH  17  20
HETATM   20  C   UNL     1      24.121  45.746  49.463  1.00  0.00     0.196 C 
BRANCH  20  21
HETATM   21  N   UNL     1      23.961  47.067  50.098  1.00  0.00    -0.282 NA
HETATM   22  H   UNL     1      23.400  47.034  50.955  1.00  0.00     0.128 HD
BRANCH  21  23
HETATM   23  C   UNL     1      23.493  48.154  49.323  1.00  0.00     0.042 A 
HETATM   24  C   UNL     1      24.425  49.145  48.922  1.00  0.00     0.089 A 
HETATM   25  C   UNL     1      24.030  50.187  48.075  1.00  0.00     0.038 A 
HETATM   26  C   UNL     1      22.720  50.246  47.600  1.00  0.00     0.003 A 
HETATM   27  C   UNL     1      21.805  49.265  47.963  1.00  0.00     0.002 A 
HETATM   28  C   UNL     1      22.191  48.222  48.808  1.00  0.00     0.026 A 
BRANCH  24  29
HETATM   29  O   UNL     1      25.690  49.001  49.448  1.00  0.00    -0.354 OA
HETATM   30  C   UNL     1      26.779  49.394  48.621  1.00  0.00     0.210 C 
ENDBRANCH  24  29
ENDBRANCH  21  23
ENDBRANCH  20  21
ENDBRANCH  17  20
ENDBRANCH   1  16
TORSDOF 8
ENDMDL
MODEL 6
REMARK VINA RESULT:      -7.6      2.226      3.217
REMARK  8 active torsions:
REMARK  status: ('A' for Active; 'I' for Inactive)
REMARK    1  A    between atoms: C_2  and  N_3 
REMARK    2  A    between atoms: C_2  and  C_17 
REMARK    3  A    between atoms: N_3  and  N_4 
REMARK       I    between atoms: N_4  and  C_5 
REMARK    4  A    between atoms: C_5  and  C_6 
REMARK    5  A    between atoms: C_6  and  N_7 
REMARK    6  A    between atoms: N_7  and  C_8 
REMARK    7  A    between atoms: C_9  and  O_10 
REMARK       I    between atoms: C_17  and  N_18 
REMARK    8  A    between atoms: N_18  and  C_19 
ROOT
HETATM    1  N   UNL     1      24.342  43.517  51.243  1.00  0.00    -0.225 NA
HETATM    2  H   UNL     1      24.661  43.712  52.204  1.00  0.00     0.147 HD
ENDROOT
BRANCH   1   3
HETATM    3  C   UNL     1      25.534  42.977  50.524  1.00  0.00     0.165 C 
HETATM    4  C   UNL     1      25.625  41.453  50.548  1.00  0.00     0.038 C 
BRANCH   3   5
HETATM    5  C   UNL     1      26.813  43.555  51.186  1.00  0.00     0.241 C 
HETATM    6  N   UNL     1      26.931  43.202  52.522  1.00  0.00    -0.326 N 
HETATM    7  H   UNL     1      26.146  42.658  52.869  1.00  0.00     0.169 HD
HETATM    8  O   UNL     1      27.620  44.218  50.541  1.00  0.00    -0.271 OA
BRANCH   6   9
HETATM    9  C   UNL     1      27.933  43.557  53.441  1.00  0.00     0.036 A 
HETATM   10  C   UNL     1      27.847  44.649  54.305  1.00  0.00     0.053 A 
HETATM   11  C   UNL     1      28.892  44.918  55.191  1.00  0.00     0.036 A 
HETATM   12 CL   UNL     1      28.790  46.273  56.250  1.00  0.00    -0.084 Cl
HETATM   13  C   UNL     1      30.024  44.105  55.232  1.00  0.00     0.024 A 
HETATM   14  C   UNL     1      30.117  43.015  54.370  1.00  0.00     0.004 A 
HETATM   15  C   UNL     1      29.078  42.748  53.475  1.00  0.00     0.029 A 
ENDBRANCH   6   9
ENDBRANCH   3   5
ENDBRANCH   1   3
BRANCH   1  16
HETATM   16  N   UNL     1      23.893  44.753  50.713  1.00  0.00    -0.290 N 
HETATM   17  C   UNL     1      23.063  44.759  49.594  1.00  0.00     0.245 C 
HETATM   18  O   UNL     1      22.464  43.769  49.180  1.00  0.00    -0.271 OA
HETATM   19  H   UNL     1      24.519  45.565  50.762  1.00  0.00     0.183 HD
BRANCH  17  20
HETATM   20  C   UNL     1      22.972  46.140  48.934  1.00  0.00     0.196 C 
BRANCH  20  21
HETATM   21  N   UNL     1      23.420  47.204  49.852  1.00  0.00    -0.282 NA
HETATM   22  H   UNL     1      22.644  47.736  50.256  1.00  0.00     0.128 HD
BRANCH  21  23
HETATM   23  C   UNL     1      24.393  48.132  49.413  1.00  0.00     0.042 A 
HETATM   24  C   UNL     1      25.742  47.925  49.796  1.00  0.00     0.089 A 
HETATM   25  C   UNL     1      26.753  48.760  49.308  1.00  0.00     0.038 A 
HETATM   26  C   UNL     1      26.443  49.790  48.420  1.00  0.00     0.003 A 
HETATM   27  C   UNL     1      25.128  49.986  48.014  1.00  0.00     0.002 A 
HETATM   28  C   UNL     1      24.114  49.156  48.497  1.00  0.00     0.026 A 
BRANCH  24  29
HETATM   29  O   UNL     1      25.943  46.887  50.679  1.00  0.00    -0.354 OA
HETATM   30  C   UNL     1      26.170  47.234  52.040  1.00  0.00     0.210 C 
ENDBRANCH  24  29
ENDBRANCH  21  23
ENDBRANCH  20  21
ENDBRANCH  17  20
ENDBRANCH   1  16
TORSDOF 8
ENDMDL
MODEL 7
REMARK VINA RESULT:      -7.6      4.370      8.542
REMARK  8 active torsions:
REMARK  status: ('A' for Active; 'I' for Inactive)
REMARK    1  A    between atoms: C_2  and  N_3 
REMARK    2  A    between atoms: C_2  and  C_17 
REMARK    3  A    between atoms: N_3  and  N_4 
REMARK       I    between atoms: N_4  and  C_5 
REMARK    4  A    between atoms: C_5  and  C_6 
REMARK    5  A    between atoms: C_6  and  N_7 
REMARK    6  A    between atoms: N_7  and  C_8 
REMARK    7  A    between atoms: C_9  and  O_10 
REMARK       I    between atoms: C_17  and  N_18 
REMARK    8  A    between atoms: N_18  and  C_19 
ROOT
HETATM    1  N   UNL     1      24.909  47.534  51.844  1.00  0.00    -0.225 NA
HETATM    2  H   UNL     1      23.946  47.229  52.051  1.00  0.00     0.147 HD
ENDROOT
BRANCH   1   3
HETATM    3  C   UNL     1      25.133  47.209  50.404  1.00  0.00     0.165 C 
HETATM    4  C   UNL     1      26.228  48.049  49.750  1.00  0.00     0.038 C 
BRANCH   3   5
HETATM    5  C   UNL     1      23.808  47.444  49.632  1.00  0.00     0.241 C 
HETATM    6  N   UNL     1      23.407  48.771  49.648  1.00  0.00    -0.326 N 
HETATM    7  H   UNL     1      24.018  49.374  50.194  1.00  0.00     0.169 HD
HETATM    8  O   UNL     1      23.234  46.524  49.057  1.00  0.00    -0.271 OA
BRANCH   6   9
HETATM    9  C   UNL     1      22.259  49.352  49.083  1.00  0.00     0.036 A 
HETATM   10  C   UNL     1      21.325  48.650  48.321  1.00  0.00     0.053 A 
HETATM   11  C   UNL     1      20.208  49.312  47.807  1.00  0.00     0.036 A 
HETATM   12 CL   UNL     1      19.061  48.446  46.856  1.00  0.00    -0.084 Cl
HETATM   13  C   UNL     1      20.006  50.670  48.048  1.00  0.00     0.024 A 
HETATM   14  C   UNL     1      20.936  51.377  48.806  1.00  0.00     0.004 A 
HETATM   15  C   UNL     1      22.060  50.720  49.315  1.00  0.00     0.029 A 
ENDBRANCH   6   9
ENDBRANCH   3   5
ENDBRANCH   1   3
BRANCH   1  16
HETATM   16  N   UNL     1      25.755  46.800  52.712  1.00  0.00    -0.290 N 
HETATM   17  C   UNL     1      26.106  47.340  53.948  1.00  0.00     0.245 C 
HETATM   18  O   UNL     1      25.525  48.290  54.469  1.00  0.00    -0.271 OA
HETATM   19  H   UNL     1      26.489  46.211  52.301  1.00  0.00     0.183 HD
BRANCH  17  20
HETATM   20  C   UNL     1      27.294  46.617  54.593  1.00  0.00     0.196 C 
BRANCH  20  21
HETATM   21  N   UNL     1      27.093  45.156  54.598  1.00  0.00    -0.282 NA
HETATM   22  H   UNL     1      26.727  44.807  55.488  1.00  0.00     0.128 HD
BRANCH  21  23
HETATM   23  C   UNL     1      28.160  44.311  54.213  1.00  0.00     0.042 A 
HETATM   24  C   UNL     1      28.208  43.856  52.872  1.00  0.00     0.089 A 
HETATM   25  C   UNL     1      29.293  43.098  52.419  1.00  0.00     0.038 A 
HETATM   26  C   UNL     1      30.350  42.803  53.280  1.00  0.00     0.003 A 
HETATM   27  C   UNL     1      30.329  43.267  54.590  1.00  0.00     0.002 A 
HETATM   28  C   UNL     1      29.249  44.025  55.049  1.00  0.00     0.026 A 
BRANCH  24  29
HETATM   29  O   UNL     1      27.116  44.195  52.103  1.00  0.00    -0.354 OA
HETATM   30  C   UNL     1      27.304  44.223  50.694  1.00  0.00     0.210 C 
ENDBRANCH  24  29
ENDBRANCH  21  23
ENDBRANCH  20  21
ENDBRANCH  17  20
ENDBRANCH   1  16
TORSDOF 8
ENDMDL
MODEL 8
REMARK VINA RESULT:      -7.6      2.815      4.005
REMARK  8 active torsions:
REMARK  status: ('A' for Active; 'I' for Inactive)
REMARK    1  A    between atoms: C_2  and  N_3 
REMARK    2  A    between atoms: C_2  and  C_17 
REMARK    3  A    between atoms: N_3  and  N_4 
REMARK       I    between atoms: N_4  and  C_5 
REMARK    4  A    between atoms: C_5  and  C_6 
REMARK    5  A    between atoms: C_6  and  N_7 
REMARK    6  A    between atoms: N_7  and  C_8 
REMARK    7  A    between atoms: C_9  and  O_10 
REMARK       I    between atoms: C_17  and  N_18 
REMARK    8  A    between atoms: N_18  and  C_19 
ROOT
HETATM    1  N   UNL     1      23.675  43.747  51.252  1.00  0.00    -0.225 NA
HETATM    2  H   UNL     1      23.424  43.945  52.231  1.00  0.00     0.147 HD
ENDROOT
BRANCH   1   3
HETATM    3  C   UNL     1      25.166  43.813  51.196  1.00  0.00     0.165 C 
HETATM    4  C   UNL     1      25.818  42.525  50.698  1.00  0.00     0.038 C 
BRANCH   3   5
HETATM    5  C   UNL     1      25.700  44.114  52.621  1.00  0.00     0.241 C 
HETATM    6  N   UNL     1      27.053  44.418  52.632  1.00  0.00    -0.326 N 
HETATM    7  H   UNL     1      27.490  44.358  51.717  1.00  0.00     0.169 HD
HETATM    8  O   UNL     1      24.954  44.104  53.596  1.00  0.00    -0.271 OA
BRANCH   6   9
HETATM    9  C   UNL     1      27.879  44.717  53.729  1.00  0.00     0.036 A 
HETATM   10  C   UNL     1      28.882  43.871  54.204  1.00  0.00     0.053 A 
HETATM   11  C   UNL     1      29.659  44.259  55.297  1.00  0.00     0.036 A 
HETATM   12 CL   UNL     1      30.890  43.208  55.889  1.00  0.00    -0.084 Cl
HETATM   13  C   UNL     1      29.453  45.488  55.923  1.00  0.00     0.024 A 
HETATM   14  C   UNL     1      28.452  46.335  55.456  1.00  0.00     0.004 A 
HETATM   15  C   UNL     1      27.666  45.947  54.367  1.00  0.00     0.029 A 
ENDBRANCH   6   9
ENDBRANCH   3   5
ENDBRANCH   1   3
BRANCH   1  16
HETATM   16  N   UNL     1      23.049  44.748  50.467  1.00  0.00    -0.290 N 
HETATM   17  C   UNL     1      22.549  44.422  49.209  1.00  0.00     0.245 C 
HETATM   18  O   UNL     1      22.363  43.270  48.824  1.00  0.00    -0.271 OA
HETATM   19  H   UNL     1      23.399  45.711  50.532  1.00  0.00     0.183 HD
BRANCH  17  20
HETATM   20  C   UNL     1      22.249  45.659  48.355  1.00  0.00     0.196 C 
BRANCH  20  21
HETATM   21  N   UNL     1      22.024  46.850  49.195  1.00  0.00    -0.282 NA
HETATM   22  H   UNL     1      21.032  47.029  49.377  1.00  0.00     0.128 HD
BRANCH  21  23
HETATM   23  C   UNL     1      22.620  48.078  48.826  1.00  0.00     0.042 A 
HETATM   24  C   UNL     1      23.947  48.337  49.252  1.00  0.00     0.089 A 
HETATM   25  C   UNL     1      24.613  49.494  48.832  1.00  0.00     0.038 A 
HETATM   26  C   UNL     1      23.982  50.393  47.972  1.00  0.00     0.003 A 
HETATM   27  C   UNL     1      22.691  50.136  47.524  1.00  0.00     0.002 A 
HETATM   28  C   UNL     1      22.020  48.983  47.939  1.00  0.00     0.026 A 
BRANCH  24  29
HETATM   29  O   UNL     1      24.479  47.393  50.103  1.00  0.00    -0.354 OA
HETATM   30  C   UNL     1      25.898  47.319  50.174  1.00  0.00     0.210 C 
ENDBRANCH  24  29
ENDBRANCH  21  23
ENDBRANCH  20  21
ENDBRANCH  17  20
ENDBRANCH   1  16
TORSDOF 8
ENDMDL
MODEL 9
REMARK VINA RESULT:      -7.6      2.206      4.514
REMARK  8 active torsions:
REMARK  status: ('A' for Active; 'I' for Inactive)
REMARK    1  A    between atoms: C_2  and  N_3 
REMARK    2  A    between atoms: C_2  and  C_17 
REMARK    3  A    between atoms: N_3  and  N_4 
REMARK       I    between atoms: N_4  and  C_5 
REMARK    4  A    between atoms: C_5  and  C_6 
REMARK    5  A    between atoms: C_6  and  N_7 
REMARK    6  A    between atoms: N_7  and  C_8 
REMARK    7  A    between atoms: C_9  and  O_10 
REMARK       I    between atoms: C_17  and  N_18 
REMARK    8  A    between atoms: N_18  and  C_19 
ROOT
HETATM    1  N   UNL     1      24.883  43.452  52.557  1.00  0.00    -0.225 NA
HETATM    2  H   UNL     1      23.859  43.569  52.583  1.00  0.00     0.147 HD
ENDROOT
BRANCH   1   3
HETATM    3  C   UNL     1      25.446  44.675  53.203  1.00  0.00     0.165 C 
HETATM    4  C   UNL     1      26.192  45.590  52.234  1.00  0.00     0.038 C 
BRANCH   3   5
HETATM    5  C   UNL     1      26.430  44.235  54.319  1.00  0.00     0.241 C 
HETATM    6  N   UNL     1      27.665  44.857  54.219  1.00  0.00    -0.326 N 
HETATM    7  H   UNL     1      27.747  45.470  53.411  1.00  0.00     0.169 HD
HETATM    8  O   UNL     1      26.089  43.444  55.193  1.00  0.00    -0.271 OA
BRANCH   6   9
HETATM    9  C   UNL     1      28.802  44.692  55.028  1.00  0.00     0.036 A 
HETATM   10  C   UNL     1      29.117  45.518  56.108  1.00  0.00     0.053 A 
HETATM   11  C   UNL     1      30.268  45.270  56.859  1.00  0.00     0.036 A 
HETATM   12 CL   UNL     1      30.661  46.297  58.186  1.00  0.00    -0.084 Cl
HETATM   13  C   UNL     1      31.109  44.202  56.552  1.00  0.00     0.024 A 
HETATM   14  C   UNL     1      30.801  43.376  55.474  1.00  0.00     0.004 A 
HETATM   15  C   UNL     1      29.656  43.626  54.713  1.00  0.00     0.029 A 
ENDBRANCH   6   9
ENDBRANCH   3   5
ENDBRANCH   1   3
BRANCH   1  16
HETATM   16  N   UNL     1      25.237  43.339  51.189  1.00  0.00    -0.290 N 
HETATM   17  C   UNL     1      24.274  42.953  50.259  1.00  0.00     0.245 C 
HETATM   18  O   UNL     1      23.065  42.961  50.484  1.00  0.00    -0.271 OA
HETATM   19  H   UNL     1      26.184  43.020  50.952  1.00  0.00     0.183 HD
BRANCH  17  20
HETATM   20  C   UNL     1      24.884  42.524  48.920  1.00  0.00     0.196 C 
BRANCH  20  21
HETATM   21  N   UNL     1      26.350  42.682  48.923  1.00  0.00    -0.282 NA
HETATM   22  H   UNL     1      26.672  43.431  48.304  1.00  0.00     0.128 HD
BRANCH  21  23
HETATM   23  C   UNL     1      27.167  41.552  48.689  1.00  0.00     0.042 A 
HETATM   24  C   UNL     1      27.623  40.808  49.806  1.00  0.00     0.089 A 
HETATM   25  C   UNL     1      28.353  39.628  49.622  1.00  0.00     0.038 A 
HETATM   26  C   UNL     1      28.620  39.163  48.335  1.00  0.00     0.003 A 
HETATM   27  C   UNL     1      28.154  39.868  47.231  1.00  0.00     0.002 A 
HETATM   28  C   UNL     1      27.425  41.046  47.407  1.00  0.00     0.026 A 
BRANCH  24  29
HETATM   29  O   UNL     1      27.313  41.352  51.033  1.00  0.00    -0.354 OA
HETATM   30  C   UNL     1      28.405  41.683  51.884  1.00  0.00     0.210 C 
ENDBRANCH  24  29
ENDBRANCH  21  23
ENDBRANCH  20  21
ENDBRANCH  17  20
ENDBRANCH   1  16
TORSDOF 8
ENDMDL
MODEL 10
REMARK VINA RESULT:      -7.5      2.206      5.642
REMARK  8 active torsions:
REMARK  status: ('A' for Active; 'I' for Inactive)
REMARK    1  A    between atoms: C_2  and  N_3 
REMARK    2  A    between atoms: C_2  and  C_17 
REMARK    3  A    between atoms: N_3  and  N_4 
REMARK       I    between atoms: N_4  and  C_5 
REMARK    4  A    between atoms: C_5  and  C_6 
REMARK    5  A    between atoms: C_6  and  N_7 
REMARK    6  A    between atoms: N_7  and  C_8 
REMARK    7  A    between atoms: C_9  and  O_10 
REMARK       I    between atoms: C_17  and  N_18 
REMARK    8  A    between atoms: N_18  and  C_19 
ROOT
HETATM    1  N   UNL     1      26.707  40.297  51.572  1.00  0.00    -0.225 NA
HETATM    2  H   UNL     1      26.903  39.294  51.439  1.00  0.00     0.147 HD
ENDROOT
BRANCH   1   3
HETATM    3  C   UNL     1      26.019  40.743  50.325  1.00  0.00     0.165 C 
HETATM    4  C   UNL     1      26.518  40.039  49.065  1.00  0.00     0.038 C 
BRANCH   3   5
HETATM    5  C   UNL     1      26.244  42.269  50.155  1.00  0.00     0.241 C 
HETATM    6  N   UNL     1      25.472  43.024  51.025  1.00  0.00    -0.326 N 
HETATM    7  H   UNL     1      24.851  42.466  51.606  1.00  0.00     0.169 HD
HETATM    8  O   UNL     1      27.058  42.707  49.347  1.00  0.00    -0.271 OA
BRANCH   6   9
HETATM    9  C   UNL     1      25.390  44.422  51.144  1.00  0.00     0.036 A 
HETATM   10  C   UNL     1      24.591  45.228  50.333  1.00  0.00     0.053 A 
HETATM   11  C   UNL     1      24.570  46.611  50.532  1.00  0.00     0.036 A 
HETATM   12 CL   UNL     1      23.591  47.607  49.523  1.00  0.00    -0.084 Cl
HETATM   13  C   UNL     1      25.334  47.201  51.537  1.00  0.00     0.024 A 
HETATM   14  C   UNL     1      26.136  46.402  52.348  1.00  0.00     0.004 A 
HETATM   15  C   UNL     1      26.167  45.019  52.146  1.00  0.00     0.029 A 
ENDBRANCH   6   9
ENDBRANCH   3   5
ENDBRANCH   1   3
BRANCH   1  16
HETATM   16  N   UNL     1      27.962  40.927  51.765  1.00  0.00    -0.290 N 
HETATM   17  C   UNL     1      28.297  41.422  53.023  1.00  0.00     0.245 C 
HETATM   18  O   UNL     1      27.703  41.121  54.057  1.00  0.00    -0.271 OA
HETATM   19  H   UNL     1      28.361  41.472  50.992  1.00  0.00     0.183 HD
BRANCH  17  20
HETATM   20  C   UNL     1      29.492  42.380  52.982  1.00  0.00     0.196 C 
BRANCH  20  21
HETATM   21  N   UNL     1      29.192  43.643  53.683  1.00  0.00    -0.282 NA
HETATM   22  H   UNL     1      29.260  44.463  53.075  1.00  0.00     0.128 HD
BRANCH  21  23
HETATM   23  C   UNL     1      29.873  43.944  54.886  1.00  0.00     0.042 A 
HETATM   24  C   UNL     1      29.561  45.156  55.551  1.00  0.00     0.089 A 
HETATM   25  C   UNL     1      30.137  45.452  56.791  1.00  0.00     0.038 A 
HETATM   26  C   UNL     1      31.007  44.544  57.395  1.00  0.00     0.003 A 
HETATM   27  C   UNL     1      31.299  43.339  56.767  1.00  0.00     0.002 A 
HETATM   28  C   UNL     1      30.728  43.037  55.528  1.00  0.00     0.026 A 
BRANCH  24  29
HETATM   29  O   UNL     1      28.697  45.986  54.871  1.00  0.00    -0.354 OA
HETATM   30  C   UNL     1      27.857  46.823  55.657  1.00  0.00     0.210 C 
ENDBRANCH  24  29
ENDBRANCH  21  23
ENDBRANCH  20  21
ENDBRANCH  17  20
ENDBRANCH   1  16
TORSDOF 8
ENDMDL
