MODEL 1
REMARK VINA RESULT:      -9.3      0.000      0.000
REMARK  8 active torsions:
REMARK  status: ('A' for Active; 'I' for Inactive)
REMARK    1  A    between atoms: C_7  and  C_8 
REMARK       I    between atoms: C_8  and  N_9 
REMARK    2  A    between atoms: N_9  and  C_10 
REMARK    3  A    between atoms: C_11  and  C_12 
REMARK       I    between atoms: C_12  and  N_13 
REMARK    4  A    between atoms: N_13  and  C_14 
REMARK    5  A    between atoms: C_14  and  C_15 
REMARK    6  A    between atoms: C_15  and  C_16 
REMARK    7  A    between atoms: C_17  and  O_18 
REMARK    8  A    between atoms: C_22  and  O_23 
ROOT
HETATM    1  C   UNL     1      24.491  48.807  49.225  1.00  0.00     0.050 A 
HETATM    2  C   UNL     1      25.319  47.827  49.799  1.00  0.00     0.058 A 
HETATM    3  C   UNL     1      26.716  47.915  49.640  1.00  0.00     0.019 A 
HETATM    4  C   UNL     1      27.285  48.960  48.912  1.00  0.00     0.001 A 
HETATM    5  C   UNL     1      26.464  49.906  48.307  1.00  0.00     0.002 A 
HETATM    6  C   UNL     1      25.078  49.821  48.449  1.00  0.00     0.030 A 
ENDROOT
BRANCH   2   7
HETATM    7  C   UNL     1      24.785  46.573  50.403  1.00  0.00     0.253 C 
HETATM    8  N   UNL     1      25.543  46.057  51.437  1.00  0.00    -0.356 N 
HETATM    9  H   UNL     1      26.190  46.696  51.880  1.00  0.00     0.162 HD
HETATM   10  O   UNL     1      23.772  46.048  49.958  1.00  0.00    -0.268 OA
BRANCH   8  11
HETATM   11  C   UNL     1      25.104  44.919  52.226  1.00  0.00     0.127 C 
BRANCH  11  12
HETATM   12  C   UNL     1      25.236  45.116  53.743  1.00  0.00     0.061 C 
BRANCH  12  13
HETATM   13  C   UNL     1      26.648  45.256  54.296  1.00  0.00    -0.021 A 
HETATM   14  C   UNL     1      27.013  46.452  54.952  1.00  0.00     0.074 A 
HETATM   15  C   UNL     1      28.293  46.586  55.496  1.00  0.00     0.040 A 
HETATM   16  C   UNL     1      29.225  45.556  55.367  1.00  0.00     0.039 A 
HETATM   17  C   UNL     1      28.899  44.386  54.685  1.00  0.00     0.068 A 
HETATM   18  C   UNL     1      27.617  44.242  54.150  1.00  0.00     0.046 A 
BRANCH  14  19
HETATM   19  O   UNL     1      26.042  47.417  55.029  1.00  0.00    -0.355 OA
HETATM   20  C   UNL     1      26.381  48.621  55.706  1.00  0.00     0.210 C 
ENDBRANCH  14  19
BRANCH  17  21
HETATM   21  O   UNL     1      29.908  43.465  54.621  1.00  0.00    -0.356 OA
HETATM   22  C   UNL     1      30.817  43.427  55.713  1.00  0.00     0.210 C 
ENDBRANCH  17  21
ENDBRANCH  12  13
ENDBRANCH  11  12
ENDBRANCH   8  11
ENDBRANCH   2   7
BRANCH   1  23
HETATM   23  N   UNL     1      23.089  48.870  49.349  1.00  0.00    -0.321 N 
HETATM   24  C   UNL     1      22.171  48.551  48.365  1.00  0.00     0.265 C 
HETATM   25  O   UNL     1      22.453  48.007  47.300  1.00  0.00    -0.267 OA
HETATM   26  H   UNL     1      22.700  48.962  50.280  1.00  0.00     0.169 HD
BRANCH  24  27
HETATM   27  C   UNL     1      20.732  48.810  48.779  1.00  0.00     0.097 C 
HETATM   28  C   UNL     1      20.239  50.070  48.834  1.00  0.00     0.064 C 
HETATM   29  C   UNL     1      21.076  51.305  48.620  1.00  0.00     0.078 C 
HETATM   30  O   UNL     1      18.931  50.410  49.145  1.00  0.00    -0.353 OA
HETATM   31  C   UNL     1      17.956  49.369  49.086  1.00  0.00     0.185 C 
HETATM   32  C   UNL     1      18.355  48.182  49.936  1.00  0.00     0.106 C 
HETATM   33  S   UNL     1      19.780  47.388  49.155  1.00  0.00    -0.120 SA
ENDBRANCH  24  27
ENDBRANCH   1  23
TORSDOF 8
ENDMDL
MODEL 2
REMARK VINA RESULT:      -9.1      1.007      1.236
REMARK  8 active torsions:
REMARK  status: ('A' for Active; 'I' for Inactive)
REMARK    1  A    between atoms: C_7  and  C_8 
REMARK       I    between atoms: C_8  and  N_9 
REMARK    2  A    between atoms: N_9  and  C_10 
REMARK    3  A    between atoms: C_11  and  C_12 
REMARK       I    between atoms: C_12  and  N_13 
REMARK    4  A    between atoms: N_13  and  C_14 
REMARK    5  A    between atoms: C_14  and  C_15 
REMARK    6  A    between atoms: C_15  and  C_16 
REMARK    7  A    between atoms: C_17  and  O_18 
REMARK    8  A    between atoms: C_22  and  O_23 
ROOT
HETATM    1  C   UNL     1      24.496  48.755  49.274  1.00  0.00     0.050 A 
HETATM    2  C   UNL     1      25.311  47.760  49.842  1.00  0.00     0.058 A 
HETATM    3  C   UNL     1      26.710  47.835  49.690  1.00  0.00     0.019 A 
HETATM    4  C   UNL     1      27.293  48.883  48.977  1.00  0.00     0.001 A 
HETATM    5  C   UNL     1      26.485  49.844  48.379  1.00  0.00     0.002 A 
HETATM    6  C   UNL     1      25.097  49.771  48.513  1.00  0.00     0.030 A 
ENDROOT
BRANCH   2   7
HETATM    7  C   UNL     1      24.762  46.504  50.428  1.00  0.00     0.253 C 
HETATM    8  N   UNL     1      25.391  46.078  51.582  1.00  0.00    -0.356 N 
HETATM    9  H   UNL     1      25.936  46.772  52.077  1.00  0.00     0.162 HD
HETATM   10  O   UNL     1      23.850  45.903  49.874  1.00  0.00    -0.268 OA
BRANCH   8  11
HETATM   11  C   UNL     1      24.904  44.952  52.359  1.00  0.00     0.127 C 
BRANCH  11  12
HETATM   12  C   UNL     1      25.377  44.942  53.820  1.00  0.00     0.061 C 
BRANCH  12  13
HETATM   13  C   UNL     1      26.810  44.492  54.073  1.00  0.00    -0.021 A 
HETATM   14  C   UNL     1      27.677  45.337  54.798  1.00  0.00     0.074 A 
HETATM   15  C   UNL     1      28.985  44.926  55.070  1.00  0.00     0.040 A 
HETATM   16  C   UNL     1      29.450  43.697  54.602  1.00  0.00     0.039 A 
HETATM   17  C   UNL     1      28.623  42.868  53.847  1.00  0.00     0.068 A 
HETATM   18  C   UNL     1      27.311  43.268  53.582  1.00  0.00     0.046 A 
BRANCH  14  19
HETATM   19  O   UNL     1      27.146  46.531  55.215  1.00  0.00    -0.355 OA
HETATM   20  C   UNL     1      27.810  47.715  54.793  1.00  0.00     0.210 C 
ENDBRANCH  14  19
BRANCH  17  21
HETATM   21  O   UNL     1      29.207  41.700  53.440  1.00  0.00    -0.356 OA
HETATM   22  C   UNL     1      28.575  40.998  52.378  1.00  0.00     0.210 C 
ENDBRANCH  17  21
ENDBRANCH  12  13
ENDBRANCH  11  12
ENDBRANCH   8  11
ENDBRANCH   2   7
BRANCH   1  23
HETATM   23  N   UNL     1      23.094  48.830  49.392  1.00  0.00    -0.321 N 
HETATM   24  C   UNL     1      22.178  48.536  48.398  1.00  0.00     0.265 C 
HETATM   25  O   UNL     1      22.460  48.006  47.327  1.00  0.00    -0.267 OA
HETATM   26  H   UNL     1      22.701  48.911  50.323  1.00  0.00     0.169 HD
BRANCH  24  27
HETATM   27  C   UNL     1      20.740  48.804  48.809  1.00  0.00     0.097 C 
HETATM   28  C   UNL     1      20.248  50.065  48.843  1.00  0.00     0.064 C 
HETATM   29  C   UNL     1      21.087  51.295  48.608  1.00  0.00     0.078 C 
HETATM   30  O   UNL     1      18.940  50.412  49.149  1.00  0.00    -0.353 OA
HETATM   31  C   UNL     1      17.964  49.371  49.108  1.00  0.00     0.185 C 
HETATM   32  C   UNL     1      18.363  48.198  49.979  1.00  0.00     0.106 C 
HETATM   33  S   UNL     1      19.787  47.389  49.210  1.00  0.00    -0.120 SA
ENDBRANCH  24  27
ENDBRANCH   1  23
TORSDOF 8
ENDMDL
MODEL 3
REMARK VINA RESULT:      -9.1      1.296      2.415
REMARK  8 active torsions:
REMARK  status: ('A' for Active; 'I' for Inactive)
REMARK    1  A    between atoms: C_7  and  C_8 
REMARK       I    between atoms: C_8  and  N_9 
REMARK    2  A    between atoms: N_9  and  C_10 
REMARK    3  A    between atoms: C_11  and  C_12 
REMARK       I    between atoms: C_12  and  N_13 
REMARK    4  A    between atoms: N_13  and  C_14 
REMARK    5  A    between atoms: C_14  and  C_15 
REMARK    6  A    between atoms: C_15  and  C_16 
REMARK    7  A    between atoms: C_17  and  O_18 
REMARK    8  A    between atoms: C_22  and  O_23 
ROOT
HETATM    1  C   UNL     1      24.493  48.801  49.240  1.00  0.00     0.050 A 
HETATM    2  C   UNL     1      25.334  47.854  49.849  1.00  0.00     0.058 A 
HETATM    3  C   UNL     1      26.729  47.951  49.682  1.00  0.00     0.019 A 
HETATM    4  C   UNL     1      27.284  48.974  48.914  1.00  0.00     0.001 A 
HETATM    5  C   UNL     1      26.451  49.887  48.275  1.00  0.00     0.002 A 
HETATM    6  C   UNL     1      25.066  49.791  48.424  1.00  0.00     0.030 A 
ENDROOT
BRANCH   2   7
HETATM    7  C   UNL     1      24.816  46.617  50.502  1.00  0.00     0.253 C 
HETATM    8  N   UNL     1      25.483  46.245  51.653  1.00  0.00    -0.356 N 
HETATM    9  H   UNL     1      26.033  46.964  52.104  1.00  0.00     0.162 HD
HETATM   10  O   UNL     1      23.896  45.984  49.999  1.00  0.00    -0.268 OA
BRANCH   8  11
HETATM   11  C   UNL     1      25.032  45.146  52.489  1.00  0.00     0.127 C 
BRANCH  11  12
HETATM   12  C   UNL     1      25.903  43.885  52.398  1.00  0.00     0.061 C 
BRANCH  12  13
HETATM   13  C   UNL     1      27.168  43.864  53.246  1.00  0.00    -0.021 A 
HETATM   14  C   UNL     1      27.952  42.690  53.280  1.00  0.00     0.074 A 
HETATM   15  C   UNL     1      29.134  42.663  54.025  1.00  0.00     0.040 A 
HETATM   16  C   UNL     1      29.529  43.780  54.761  1.00  0.00     0.039 A 
HETATM   17  C   UNL     1      28.746  44.932  54.776  1.00  0.00     0.068 A 
HETATM   18  C   UNL     1      27.570  44.969  54.024  1.00  0.00     0.046 A 
BRANCH  14  19
HETATM   19  O   UNL     1      27.491  41.635  52.536  1.00  0.00    -0.355 OA
HETATM   20  C   UNL     1      28.391  41.069  51.591  1.00  0.00     0.210 C 
ENDBRANCH  14  19
BRANCH  17  21
HETATM   21  O   UNL     1      29.242  45.947  55.549  1.00  0.00    -0.356 OA
HETATM   22  C   UNL     1      30.287  45.617  56.454  1.00  0.00     0.210 C 
ENDBRANCH  17  21
ENDBRANCH  12  13
ENDBRANCH  11  12
ENDBRANCH   8  11
ENDBRANCH   2   7
BRANCH   1  23
HETATM   23  N   UNL     1      23.090  48.852  49.365  1.00  0.00    -0.321 N 
HETATM   24  C   UNL     1      22.175  48.539  48.377  1.00  0.00     0.265 C 
HETATM   25  O   UNL     1      22.459  48.012  47.306  1.00  0.00    -0.267 OA
HETATM   26  H   UNL     1      22.702  48.928  50.298  1.00  0.00     0.169 HD
BRANCH  24  27
HETATM   27  C   UNL     1      20.734  48.782  48.796  1.00  0.00     0.097 C 
HETATM   28  C   UNL     1      20.222  50.035  48.834  1.00  0.00     0.064 C 
HETATM   29  C   UNL     1      21.038  51.279  48.598  1.00  0.00     0.078 C 
HETATM   30  O   UNL     1      18.910  50.359  49.148  1.00  0.00    -0.353 OA
HETATM   31  C   UNL     1      17.951  49.302  49.110  1.00  0.00     0.185 C 
HETATM   32  C   UNL     1      18.373  48.135  49.976  1.00  0.00     0.106 C 
HETATM   33  S   UNL     1      19.806  47.351  49.199  1.00  0.00    -0.120 SA
ENDBRANCH  24  27
ENDBRANCH   1  23
TORSDOF 8
ENDMDL
MODEL 4
REMARK VINA RESULT:      -8.8      1.995      3.080
REMARK  8 active torsions:
REMARK  status: ('A' for Active; 'I' for Inactive)
REMARK    1  A    between atoms: C_7  and  C_8 
REMARK       I    between atoms: C_8  and  N_9 
REMARK    2  A    between atoms: N_9  and  C_10 
REMARK    3  A    between atoms: C_11  and  C_12 
REMARK       I    between atoms: C_12  and  N_13 
REMARK    4  A    between atoms: N_13  and  C_14 
REMARK    5  A    between atoms: C_14  and  C_15 
REMARK    6  A    between atoms: C_15  and  C_16 
REMARK    7  A    between atoms: C_17  and  O_18 
REMARK    8  A    between atoms: C_22  and  O_23 
ROOT
HETATM    1  C   UNL     1      22.995  45.907  49.078  1.00  0.00     0.050 A 
HETATM    2  C   UNL     1      24.287  45.807  49.621  1.00  0.00     0.058 A 
HETATM    3  C   UNL     1      25.091  44.693  49.305  1.00  0.00     0.019 A 
HETATM    4  C   UNL     1      24.614  43.687  48.466  1.00  0.00     0.001 A 
HETATM    5  C   UNL     1      23.320  43.764  47.962  1.00  0.00     0.002 A 
HETATM    6  C   UNL     1      22.512  44.857  48.279  1.00  0.00     0.030 A 
ENDROOT
BRANCH   2   7
HETATM    7  C   UNL     1      24.788  46.721  50.687  1.00  0.00     0.253 C 
HETATM    8  N   UNL     1      25.323  46.087  51.792  1.00  0.00    -0.356 N 
HETATM    9  H   UNL     1      25.600  45.122  51.664  1.00  0.00     0.162 HD
HETATM   10  O   UNL     1      24.674  47.935  50.573  1.00  0.00    -0.268 OA
BRANCH   8  11
HETATM   11  C   UNL     1      25.977  46.818  52.863  1.00  0.00     0.127 C 
BRANCH  11  12
HETATM   12  C   UNL     1      26.041  46.060  54.197  1.00  0.00     0.061 C 
BRANCH  12  13
HETATM   13  C   UNL     1      27.352  45.356  54.522  1.00  0.00    -0.021 A 
HETATM   14  C   UNL     1      27.615  44.093  53.949  1.00  0.00     0.074 A 
HETATM   15  C   UNL     1      28.827  43.448  54.208  1.00  0.00     0.040 A 
HETATM   16  C   UNL     1      29.768  44.031  55.057  1.00  0.00     0.039 A 
HETATM   17  C   UNL     1      29.510  45.257  55.667  1.00  0.00     0.068 A 
HETATM   18  C   UNL     1      28.305  45.911  55.401  1.00  0.00     0.046 A 
BRANCH  14  19
HETATM   19  O   UNL     1      26.635  43.586  53.134  1.00  0.00    -0.355 OA
HETATM   20  C   UNL     1      27.061  42.835  52.004  1.00  0.00     0.210 C 
ENDBRANCH  14  19
BRANCH  17  21
HETATM   21  O   UNL     1      30.510  45.708  56.483  1.00  0.00    -0.356 OA
HETATM   22  C   UNL     1      30.163  45.992  57.832  1.00  0.00     0.210 C 
ENDBRANCH  17  21
ENDBRANCH  12  13
ENDBRANCH  11  12
ENDBRANCH   8  11
ENDBRANCH   2   7
BRANCH   1  23
HETATM   23  N   UNL     1      22.108  46.986  49.268  1.00  0.00    -0.321 N 
HETATM   24  C   UNL     1      21.982  48.089  48.444  1.00  0.00     0.265 C 
HETATM   25  O   UNL     1      22.510  48.198  47.341  1.00  0.00    -0.267 OA
HETATM   26  H   UNL     1      21.359  46.869  49.941  1.00  0.00     0.169 HD
BRANCH  24  27
HETATM   27  C   UNL     1      21.001  49.123  48.971  1.00  0.00     0.097 C 
HETATM   28  C   UNL     1      21.391  50.399  49.204  1.00  0.00     0.064 C 
HETATM   29  C   UNL     1      22.818  50.870  49.090  1.00  0.00     0.078 C 
HETATM   30  O   UNL     1      20.565  51.428  49.631  1.00  0.00    -0.353 OA
HETATM   31  C   UNL     1      19.157  51.227  49.506  1.00  0.00     0.185 C 
HETATM   32  C   UNL     1      18.714  49.949  50.185  1.00  0.00     0.106 C 
HETATM   33  S   UNL     1      19.364  48.555  49.232  1.00  0.00    -0.120 SA
ENDBRANCH  24  27
ENDBRANCH   1  23
TORSDOF 8
ENDMDL
MODEL 5
REMARK VINA RESULT:      -8.7      4.298      8.175
REMARK  8 active torsions:
REMARK  status: ('A' for Active; 'I' for Inactive)
REMARK    1  A    between atoms: C_7  and  C_8 
REMARK       I    between atoms: C_8  and  N_9 
REMARK    2  A    between atoms: N_9  and  C_10 
REMARK    3  A    between atoms: C_11  and  C_12 
REMARK       I    between atoms: C_12  and  N_13 
REMARK    4  A    between atoms: N_13  and  C_14 
REMARK    5  A    between atoms: C_14  and  C_15 
REMARK    6  A    between atoms: C_15  and  C_16 
REMARK    7  A    between atoms: C_17  and  O_18 
REMARK    8  A    between atoms: C_22  and  O_23 
ROOT
HETATM    1  C   UNL     1      29.449  44.899  55.274  1.00  0.00     0.050 A 
HETATM    2  C   UNL     1      30.033  43.621  55.211  1.00  0.00     0.058 A 
HETATM    3  C   UNL     1      30.885  43.193  56.248  1.00  0.00     0.019 A 
HETATM    4  C   UNL     1      31.161  44.025  57.332  1.00  0.00     0.001 A 
HETATM    5  C   UNL     1      30.618  45.305  57.374  1.00  0.00     0.002 A 
HETATM    6  C   UNL     1      29.783  45.744  56.346  1.00  0.00     0.030 A 
ENDROOT
BRANCH   2   7
HETATM    7  C   UNL     1      29.963  42.761  53.995  1.00  0.00     0.253 C 
HETATM    8  N   UNL     1      28.966  41.806  54.015  1.00  0.00    -0.356 N 
HETATM    9  H   UNL     1      28.213  41.958  54.674  1.00  0.00     0.162 HD
HETATM   10  O   UNL     1      30.776  42.896  53.088  1.00  0.00    -0.268 OA
BRANCH   8  11
HETATM   11  C   UNL     1      28.668  40.973  52.863  1.00  0.00     0.127 C 
BRANCH  11  12
HETATM   12  C   UNL     1      27.435  41.419  52.064  1.00  0.00     0.061 C 
BRANCH  12  13
HETATM   13  C   UNL     1      27.197  40.728  50.728  1.00  0.00    -0.021 A 
HETATM   14  C   UNL     1      25.990  40.967  50.036  1.00  0.00     0.074 A 
HETATM   15  C   UNL     1      25.769  40.370  48.792  1.00  0.00     0.040 A 
HETATM   16  C   UNL     1      26.722  39.513  48.243  1.00  0.00     0.039 A 
HETATM   17  C   UNL     1      27.901  39.230  48.930  1.00  0.00     0.068 A 
HETATM   18  C   UNL     1      28.132  39.834  50.168  1.00  0.00     0.046 A 
BRANCH  14  19
HETATM   19  O   UNL     1      25.102  41.815  50.648  1.00  0.00    -0.355 OA
HETATM   20  C   UNL     1      24.055  42.343  49.844  1.00  0.00     0.210 C 
ENDBRANCH  14  19
BRANCH  17  21
HETATM   21  O   UNL     1      28.742  38.365  48.285  1.00  0.00    -0.356 OA
HETATM   22  C   UNL     1      29.919  37.971  48.978  1.00  0.00     0.210 C 
ENDBRANCH  17  21
ENDBRANCH  12  13
ENDBRANCH  11  12
ENDBRANCH   8  11
ENDBRANCH   2   7
BRANCH   1  23
HETATM   23  N   UNL     1      28.542  45.432  54.337  1.00  0.00    -0.321 N 
HETATM   24  C   UNL     1      27.275  44.949  54.067  1.00  0.00     0.265 C 
HETATM   25  O   UNL     1      26.702  44.089  54.730  1.00  0.00    -0.267 OA
HETATM   26  H   UNL     1      28.735  46.355  53.965  1.00  0.00     0.169 HD
BRANCH  24  27
HETATM   27  C   UNL     1      26.579  45.689  52.937  1.00  0.00     0.097 C 
HETATM   28  C   UNL     1      26.055  46.923  53.130  1.00  0.00     0.064 C 
HETATM   29  C   UNL     1      26.001  47.607  54.472  1.00  0.00     0.078 C 
HETATM   30  O   UNL     1      25.451  47.703  52.155  1.00  0.00    -0.353 OA
HETATM   31  C   UNL     1      25.679  47.336  50.794  1.00  0.00     0.185 C 
HETATM   32  C   UNL     1      25.316  45.889  50.539  1.00  0.00     0.106 C 
HETATM   33  S   UNL     1      26.521  44.850  51.400  1.00  0.00    -0.120 SA
ENDBRANCH  24  27
ENDBRANCH   1  23
TORSDOF 8
ENDMDL
MODEL 6
REMARK VINA RESULT:      -8.6      2.903      5.340
REMARK  8 active torsions:
REMARK  status: ('A' for Active; 'I' for Inactive)
REMARK    1  A    between atoms: C_7  and  C_8 
REMARK       I    between atoms: C_8  and  N_9 
REMARK    2  A    between atoms: N_9  and  C_10 
REMARK    3  A    between atoms: C_11  and  C_12 
REMARK       I    between atoms: C_12  and  N_13 
REMARK    4  A    between atoms: N_13  and  C_14 
REMARK    5  A    between atoms: C_14  and  C_15 
REMARK    6  A    between atoms: C_15  and  C_16 
REMARK    7  A    between atoms: C_17  and  O_18 
REMARK    8  A    between atoms: C_22  and  O_23 
ROOT
HETATM    1  C   UNL     1      25.323  42.835  48.916  1.00  0.00     0.050 A 
HETATM    2  C   UNL     1      26.475  42.261  49.482  1.00  0.00     0.058 A 
HETATM    3  C   UNL     1      26.737  40.890  49.287  1.00  0.00     0.019 A 
HETATM    4  C   UNL     1      25.863  40.097  48.545  1.00  0.00     0.001 A 
HETATM    5  C   UNL     1      24.702  40.655  48.021  1.00  0.00     0.002 A 
HETATM    6  C   UNL     1      24.426  42.009  48.219  1.00  0.00     0.030 A 
ENDROOT
BRANCH   2   7
HETATM    7  C   UNL     1      27.339  42.982  50.460  1.00  0.00     0.253 C 
HETATM    8  N   UNL     1      27.944  42.176  51.406  1.00  0.00    -0.356 N 
HETATM    9  H   UNL     1      27.998  41.191  51.186  1.00  0.00     0.162 HD
HETATM   10  O   UNL     1      27.443  44.202  50.420  1.00  0.00    -0.268 OA
BRANCH   8  11
HETATM   11  C   UNL     1      28.921  42.690  52.349  1.00  0.00     0.127 C 
BRANCH  11  12
HETATM   12  C   UNL     1      28.416  42.778  53.796  1.00  0.00     0.061 C 
BRANCH  12  13
HETATM   13  C   UNL     1      28.418  44.158  54.441  1.00  0.00    -0.021 A 
HETATM   14  C   UNL     1      29.475  44.508  55.309  1.00  0.00     0.074 A 
HETATM   15  C   UNL     1      29.514  45.782  55.883  1.00  0.00     0.040 A 
HETATM   16  C   UNL     1      28.495  46.700  55.627  1.00  0.00     0.039 A 
HETATM   17  C   UNL     1      27.421  46.358  54.809  1.00  0.00     0.068 A 
HETATM   18  C   UNL     1      27.384  45.091  54.223  1.00  0.00     0.046 A 
BRANCH  14  19
HETATM   19  O   UNL     1      30.431  43.546  55.514  1.00  0.00    -0.355 OA
HETATM   20  C   UNL     1      31.352  43.767  56.574  1.00  0.00     0.210 C 
ENDBRANCH  14  19
BRANCH  17  21
HETATM   21  O   UNL     1      26.487  47.346  54.653  1.00  0.00    -0.356 OA
HETATM   22  C   UNL     1      26.476  48.382  55.627  1.00  0.00     0.210 C 
ENDBRANCH  17  21
ENDBRANCH  12  13
ENDBRANCH  11  12
ENDBRANCH   8  11
ENDBRANCH   2   7
BRANCH   1  23
HETATM   23  N   UNL     1      24.967  44.196  48.989  1.00  0.00    -0.321 N 
HETATM   24  C   UNL     1      24.040  44.749  49.854  1.00  0.00     0.265 C 
HETATM   25  O   UNL     1      23.521  44.151  50.793  1.00  0.00    -0.267 OA
HETATM   26  H   UNL     1      25.565  44.867  48.521  1.00  0.00     0.169 HD
BRANCH  24  27
HETATM   27  C   UNL     1      23.813  46.233  49.623  1.00  0.00     0.097 C 
HETATM   28  C   UNL     1      24.538  47.161  50.293  1.00  0.00     0.064 C 
HETATM   29  C   UNL     1      25.516  46.825  51.389  1.00  0.00     0.078 C 
HETATM   30  O   UNL     1      24.448  48.534  50.117  1.00  0.00    -0.353 OA
HETATM   31  C   UNL     1      23.797  48.998  48.934  1.00  0.00     0.185 C 
HETATM   32  C   UNL     1      22.410  48.408  48.793  1.00  0.00     0.106 C 
HETATM   33  S   UNL     1      22.586  46.642  48.441  1.00  0.00    -0.120 SA
ENDBRANCH  24  27
ENDBRANCH   1  23
TORSDOF 8
ENDMDL
MODEL 7
REMARK VINA RESULT:      -8.5      3.309      8.294
REMARK  8 active torsions:
REMARK  status: ('A' for Active; 'I' for Inactive)
REMARK    1  A    between atoms: C_7  and  C_8 
REMARK       I    between atoms: C_8  and  N_9 
REMARK    2  A    between atoms: N_9  and  C_10 
REMARK    3  A    between atoms: C_11  and  C_12 
REMARK       I    between atoms: C_12  and  N_13 
REMARK    4  A    between atoms: N_13  and  C_14 
REMARK    5  A    between atoms: C_14  and  C_15 
REMARK    6  A    between atoms: C_15  and  C_16 
REMARK    7  A    between atoms: C_17  and  O_18 
REMARK    8  A    between atoms: C_22  and  O_23 
ROOT
HETATM    1  C   UNL     1      28.073  43.150  52.936  1.00  0.00     0.050 A 
HETATM    2  C   UNL     1      27.663  44.368  53.507  1.00  0.00     0.058 A 
HETATM    3  C   UNL     1      28.423  44.941  54.546  1.00  0.00     0.019 A 
HETATM    4  C   UNL     1      29.573  44.309  55.018  1.00  0.00     0.001 A 
HETATM    5  C   UNL     1      29.955  43.083  54.484  1.00  0.00     0.002 A 
HETATM    6  C   UNL     1      29.202  42.501  53.463  1.00  0.00     0.030 A 
ENDROOT
BRANCH   2   7
HETATM    7  C   UNL     1      26.342  44.993  53.211  1.00  0.00     0.253 C 
HETATM    8  N   UNL     1      26.400  46.128  52.425  1.00  0.00    -0.356 N 
HETATM    9  H   UNL     1      27.248  46.259  51.890  1.00  0.00     0.162 HD
HETATM   10  O   UNL     1      25.312  44.530  53.685  1.00  0.00    -0.268 OA
BRANCH   8  11
HETATM   11  C   UNL     1      25.204  46.788  51.930  1.00  0.00     0.127 C 
BRANCH  11  12
HETATM   12  C   UNL     1      24.950  46.587  50.429  1.00  0.00     0.061 C 
BRANCH  12  13
HETATM   13  C   UNL     1      24.530  47.817  49.635  1.00  0.00    -0.021 A 
HETATM   14  C   UNL     1      25.524  48.700  49.160  1.00  0.00     0.074 A 
HETATM   15  C   UNL     1      25.161  49.815  48.399  1.00  0.00     0.040 A 
HETATM   16  C   UNL     1      23.818  50.079  48.132  1.00  0.00     0.039 A 
HETATM   17  C   UNL     1      22.819  49.244  48.629  1.00  0.00     0.068 A 
HETATM   18  C   UNL     1      23.177  48.122  49.379  1.00  0.00     0.046 A 
BRANCH  14  19
HETATM   19  O   UNL     1      26.819  48.374  49.472  1.00  0.00    -0.355 OA
HETATM   20  C   UNL     1      27.831  49.288  49.067  1.00  0.00     0.210 C 
ENDBRANCH  14  19
BRANCH  17  21
HETATM   21  O   UNL     1      21.546  49.625  48.305  1.00  0.00    -0.356 OA
HETATM   22  C   UNL     1      20.487  49.043  49.055  1.00  0.00     0.210 C 
ENDBRANCH  17  21
ENDBRANCH  12  13
ENDBRANCH  11  12
ENDBRANCH   8  11
ENDBRANCH   2   7
BRANCH   1  23
HETATM   23  N   UNL     1      27.439  42.495  51.862  1.00  0.00    -0.321 N 
HETATM   24  C   UNL     1      27.174  43.041  50.619  1.00  0.00     0.265 C 
HETATM   25  O   UNL     1      27.606  44.121  50.227  1.00  0.00    -0.267 OA
HETATM   26  H   UNL     1      27.343  41.487  51.914  1.00  0.00     0.169 HD
BRANCH  24  27
HETATM   27  C   UNL     1      26.397  42.107  49.707  1.00  0.00     0.097 C 
HETATM   28  C   UNL     1      25.042  42.093  49.715  1.00  0.00     0.064 C 
HETATM   29  C   UNL     1      24.204  42.882  50.688  1.00  0.00     0.078 C 
HETATM   30  O   UNL     1      24.240  41.322  48.887  1.00  0.00    -0.353 OA
HETATM   31  C   UNL     1      24.855  40.751  47.732  1.00  0.00     0.185 C 
HETATM   32  C   UNL     1      26.081  39.941  48.096  1.00  0.00     0.106 C 
HETATM   33  S   UNL     1      27.362  41.088  48.659  1.00  0.00    -0.120 SA
ENDBRANCH  24  27
ENDBRANCH   1  23
TORSDOF 8
ENDMDL
MODEL 8
REMARK VINA RESULT:      -8.4      3.985      6.401
REMARK  8 active torsions:
REMARK  status: ('A' for Active; 'I' for Inactive)
REMARK    1  A    between atoms: C_7  and  C_8 
REMARK       I    between atoms: C_8  and  N_9 
REMARK    2  A    between atoms: N_9  and  C_10 
REMARK    3  A    between atoms: C_11  and  C_12 
REMARK       I    between atoms: C_12  and  N_13 
REMARK    4  A    between atoms: N_13  and  C_14 
REMARK    5  A    between atoms: C_14  and  C_15 
REMARK    6  A    between atoms: C_15  and  C_16 
REMARK    7  A    between atoms: C_17  and  O_18 
REMARK    8  A    between atoms: C_22  and  O_23 
ROOT
HETATM    1  C   UNL     1      27.339  41.612  48.809  1.00  0.00     0.050 A 
HETATM    2  C   UNL     1      27.975  40.800  49.763  1.00  0.00     0.058 A 
HETATM    3  C   UNL     1      28.547  39.575  49.366  1.00  0.00     0.019 A 
HETATM    4  C   UNL     1      28.483  39.158  48.037  1.00  0.00     0.001 A 
HETATM    5  C   UNL     1      27.816  39.941  47.099  1.00  0.00     0.002 A 
HETATM    6  C   UNL     1      27.235  41.150  47.486  1.00  0.00     0.030 A 
ENDROOT
BRANCH   2   7
HETATM    7  C   UNL     1      27.900  41.066  51.228  1.00  0.00     0.253 C 
HETATM    8  N   UNL     1      29.119  41.090  51.878  1.00  0.00    -0.356 N 
HETATM    9  H   UNL     1      29.934  41.226  51.295  1.00  0.00     0.162 HD
HETATM   10  O   UNL     1      26.817  41.203  51.783  1.00  0.00    -0.268 OA
BRANCH   8  11
HETATM   11  C   UNL     1      29.245  41.467  53.275  1.00  0.00     0.127 C 
BRANCH  11  12
HETATM   12  C   UNL     1      30.039  42.760  53.511  1.00  0.00     0.061 C 
BRANCH  12  13
HETATM   13  C   UNL     1      29.314  43.887  54.234  1.00  0.00    -0.021 A 
HETATM   14  C   UNL     1      29.944  44.518  55.329  1.00  0.00     0.074 A 
HETATM   15  C   UNL     1      29.309  45.577  55.983  1.00  0.00     0.040 A 
HETATM   16  C   UNL     1      28.041  45.996  55.580  1.00  0.00     0.039 A 
HETATM   17  C   UNL     1      27.384  45.357  54.530  1.00  0.00     0.068 A 
HETATM   18  C   UNL     1      28.019  44.306  53.865  1.00  0.00     0.046 A 
BRANCH  14  19
HETATM   19  O   UNL     1      31.185  44.042  55.666  1.00  0.00    -0.355 OA
HETATM   20  C   UNL     1      31.326  43.467  56.959  1.00  0.00     0.210 C 
ENDBRANCH  14  19
BRANCH  17  21
HETATM   21  O   UNL     1      26.142  45.858  54.247  1.00  0.00    -0.356 OA
HETATM   22  C   UNL     1      26.043  47.262  54.045  1.00  0.00     0.210 C 
ENDBRANCH  17  21
ENDBRANCH  12  13
ENDBRANCH  11  12
ENDBRANCH   8  11
ENDBRANCH   2   7
BRANCH   1  23
HETATM   23  N   UNL     1      26.773  42.878  49.058  1.00  0.00    -0.321 N 
HETATM   24  C   UNL     1      25.441  43.133  49.327  1.00  0.00     0.265 C 
HETATM   25  O   UNL     1      24.598  42.269  49.553  1.00  0.00    -0.267 OA
HETATM   26  H   UNL     1      27.403  43.647  49.256  1.00  0.00     0.169 HD
BRANCH  24  27
HETATM   27  C   UNL     1      25.129  44.614  49.461  1.00  0.00     0.097 C 
HETATM   28  C   UNL     1      24.055  45.159  48.840  1.00  0.00     0.064 C 
HETATM   29  C   UNL     1      23.168  44.401  47.886  1.00  0.00     0.078 C 
HETATM   30  O   UNL     1      23.652  46.483  48.941  1.00  0.00    -0.353 OA
HETATM   31  C   UNL     1      24.197  47.249  50.015  1.00  0.00     0.185 C 
HETATM   32  C   UNL     1      25.711  47.211  50.015  1.00  0.00     0.106 C 
HETATM   33  S   UNL     1      26.228  45.537  50.466  1.00  0.00    -0.120 SA
ENDBRANCH  24  27
ENDBRANCH   1  23
TORSDOF 8
ENDMDL
MODEL 9
REMARK VINA RESULT:      -8.2      4.548      7.318
REMARK  8 active torsions:
REMARK  status: ('A' for Active; 'I' for Inactive)
REMARK    1  A    between atoms: C_7  and  C_8 
REMARK       I    between atoms: C_8  and  N_9 
REMARK    2  A    between atoms: N_9  and  C_10 
REMARK    3  A    between atoms: C_11  and  C_12 
REMARK       I    between atoms: C_12  and  N_13 
REMARK    4  A    between atoms: N_13  and  C_14 
REMARK    5  A    between atoms: C_14  and  C_15 
REMARK    6  A    between atoms: C_15  and  C_16 
REMARK    7  A    between atoms: C_17  and  O_18 
REMARK    8  A    between atoms: C_22  and  O_23 
ROOT
HETATM    1  C   UNL     1      27.339  45.608  53.750  1.00  0.00     0.050 A 
HETATM    2  C   UNL     1      28.264  44.707  54.305  1.00  0.00     0.058 A 
HETATM    3  C   UNL     1      28.962  45.059  55.477  1.00  0.00     0.019 A 
HETATM    4  C   UNL     1      28.749  46.295  56.088  1.00  0.00     0.001 A 
HETATM    5  C   UNL     1      27.866  47.205  55.515  1.00  0.00     0.002 A 
HETATM    6  C   UNL     1      27.179  46.870  54.347  1.00  0.00     0.030 A 
ENDROOT
BRANCH   2   7
HETATM    7  C   UNL     1      28.705  43.468  53.603  1.00  0.00     0.253 C 
HETATM    8  N   UNL     1      27.840  42.397  53.717  1.00  0.00    -0.356 N 
HETATM    9  H   UNL     1      26.890  42.615  53.987  1.00  0.00     0.162 HD
HETATM   10  O   UNL     1      29.780  43.431  53.019  1.00  0.00    -0.268 OA
BRANCH   8  11
HETATM   11  C   UNL     1      28.043  41.156  52.989  1.00  0.00     0.127 C 
BRANCH  11  12
HETATM   12  C   UNL     1      27.832  41.273  51.473  1.00  0.00     0.061 C 
BRANCH  12  13
HETATM   13  C   UNL     1      28.405  40.154  50.613  1.00  0.00    -0.021 A 
HETATM   14  C   UNL     1      28.173  40.171  49.220  1.00  0.00     0.074 A 
HETATM   15  C   UNL     1      28.720  39.172  48.410  1.00  0.00     0.040 A 
HETATM   16  C   UNL     1      29.469  38.139  48.974  1.00  0.00     0.039 A 
HETATM   17  C   UNL     1      29.672  38.080  50.351  1.00  0.00     0.068 A 
HETATM   18  C   UNL     1      29.138  39.083  51.164  1.00  0.00     0.046 A 
BRANCH  14  19
HETATM   19  O   UNL     1      27.422  41.216  48.747  1.00  0.00    -0.355 OA
HETATM   20  C   UNL     1      26.238  40.886  48.031  1.00  0.00     0.210 C 
ENDBRANCH  14  19
BRANCH  17  21
HETATM   21  O   UNL     1      30.412  37.009  50.772  1.00  0.00    -0.356 OA
HETATM   22  C   UNL     1      29.778  36.096  51.659  1.00  0.00     0.210 C 
ENDBRANCH  17  21
ENDBRANCH  12  13
ENDBRANCH  11  12
ENDBRANCH   8  11
ENDBRANCH   2   7
BRANCH   1  23
HETATM   23  N   UNL     1      26.539  45.365  52.616  1.00  0.00    -0.321 N 
HETATM   24  C   UNL     1      25.314  44.723  52.608  1.00  0.00     0.265 C 
HETATM   25  O   UNL     1      24.678  44.424  53.614  1.00  0.00    -0.267 OA
HETATM   26  H   UNL     1      26.763  45.865  51.763  1.00  0.00     0.169 HD
BRANCH  24  27
HETATM   27  C   UNL     1      24.744  44.536  51.212  1.00  0.00     0.097 C 
HETATM   28  C   UNL     1      24.535  45.597  50.396  1.00  0.00     0.064 C 
HETATM   29  C   UNL     1      24.723  47.029  50.825  1.00  0.00     0.078 C 
HETATM   30  O   UNL     1      24.072  45.530  49.090  1.00  0.00    -0.353 OA
HETATM   31  C   UNL     1      24.126  44.258  48.445  1.00  0.00     0.185 C 
HETATM   32  C   UNL     1      23.421  43.192  49.255  1.00  0.00     0.106 C 
HETATM   33  S   UNL     1      24.399  42.882  50.745  1.00  0.00    -0.120 SA
ENDBRANCH  24  27
ENDBRANCH   1  23
TORSDOF 8
ENDMDL
MODEL 10
REMARK VINA RESULT:      -8.2      4.433      7.019
REMARK  8 active torsions:
REMARK  status: ('A' for Active; 'I' for Inactive)
REMARK    1  A    between atoms: C_7  and  C_8 
REMARK       I    between atoms: C_8  and  N_9 
REMARK    2  A    between atoms: N_9  and  C_10 
REMARK    3  A    between atoms: C_11  and  C_12 
REMARK       I    between atoms: C_12  and  N_13 
REMARK    4  A    between atoms: N_13  and  C_14 
REMARK    5  A    between atoms: C_14  and  C_15 
REMARK    6  A    between atoms: C_15  and  C_16 
REMARK    7  A    between atoms: C_17  and  O_18 
REMARK    8  A    between atoms: C_22  and  O_23 
ROOT
HETATM    1  C   UNL     1      27.661  39.913  50.298  1.00  0.00     0.050 A 
HETATM    2  C   UNL     1      28.689  39.909  51.257  1.00  0.00     0.058 A 
HETATM    3  C   UNL     1      29.634  38.863  51.260  1.00  0.00     0.019 A 
HETATM    4  C   UNL     1      29.554  37.829  50.328  1.00  0.00     0.001 A 
HETATM    5  C   UNL     1      28.512  37.810  49.407  1.00  0.00     0.002 A 
HETATM    6  C   UNL     1      27.564  38.835  49.403  1.00  0.00     0.030 A 
ENDROOT
BRANCH   2   7
HETATM    7  C   UNL     1      28.720  40.851  52.412  1.00  0.00     0.253 C 
HETATM    8  N   UNL     1      29.799  41.713  52.430  1.00  0.00    -0.356 N 
HETATM    9  H   UNL     1      30.285  41.841  51.552  1.00  0.00     0.162 HD
HETATM   10  O   UNL     1      27.858  40.801  53.281  1.00  0.00    -0.268 OA
BRANCH   8  11
HETATM   11  C   UNL     1      29.918  42.783  53.405  1.00  0.00     0.127 C 
BRANCH  11  12
HETATM   12  C   UNL     1      28.852  43.880  53.271  1.00  0.00     0.061 C 
BRANCH  12  13
HETATM   13  C   UNL     1      28.704  44.839  54.445  1.00  0.00    -0.021 A 
HETATM   14  C   UNL     1      27.659  45.789  54.429  1.00  0.00     0.074 A 
HETATM   15  C   UNL     1      27.486  46.653  55.513  1.00  0.00     0.040 A 
HETATM   16  C   UNL     1      28.361  46.606  56.599  1.00  0.00     0.039 A 
HETATM   17  C   UNL     1      29.425  45.706  56.614  1.00  0.00     0.068 A 
HETATM   18  C   UNL     1      29.595  44.832  55.539  1.00  0.00     0.046 A 
BRANCH  14  19
HETATM   19  O   UNL     1      26.849  45.775  53.323  1.00  0.00    -0.355 OA
HETATM   20  C   UNL     1      26.070  46.939  53.079  1.00  0.00     0.210 C 
ENDBRANCH  14  19
BRANCH  17  21
HETATM   21  O   UNL     1      30.212  45.775  57.730  1.00  0.00    -0.356 OA
HETATM   22  C   UNL     1      31.070  44.670  57.984  1.00  0.00     0.210 C 
ENDBRANCH  17  21
ENDBRANCH  12  13
ENDBRANCH  11  12
ENDBRANCH   8  11
ENDBRANCH   2   7
BRANCH   1  23
HETATM   23  N   UNL     1      26.684  40.918  50.149  1.00  0.00    -0.321 N 
HETATM   24  C   UNL     1      26.701  41.934  49.211  1.00  0.00     0.265 C 
HETATM   25  O   UNL     1      27.486  41.999  48.269  1.00  0.00    -0.267 OA
HETATM   26  H   UNL     1      25.797  40.790  50.623  1.00  0.00     0.169 HD
BRANCH  24  27
HETATM   27  C   UNL     1      25.550  42.914  49.367  1.00  0.00     0.097 C 
HETATM   28  C   UNL     1      25.778  44.212  49.678  1.00  0.00     0.064 C 
HETATM   29  C   UNL     1      27.139  44.765  50.014  1.00  0.00     0.078 C 
HETATM   30  O   UNL     1      24.806  45.196  49.789  1.00  0.00    -0.353 OA
HETATM   31  C   UNL     1      23.525  44.913  49.225  1.00  0.00     0.185 C 
HETATM   32  C   UNL     1      22.955  43.617  49.761  1.00  0.00     0.106 C 
HETATM   33  S   UNL     1      23.948  42.255  49.105  1.00  0.00    -0.120 SA
ENDBRANCH  24  27
ENDBRANCH   1  23
TORSDOF 8
ENDMDL
