MODEL 1
REMARK VINA RESULT:     -11.1      0.000      0.000
REMARK  7 active torsions:
REMARK  status: ('A' for Active; 'I' for Inactive)
REMARK    1  A    between atoms: C_5  and  N_6 
REMARK    2  A    between atoms: C_7  and  S_8 
REMARK    3  A    between atoms: S_8  and  C_9 
REMARK    4  A    between atoms: C_9  and  C_10 
REMARK       I    between atoms: C_10  and  N_11 
REMARK    5  A    between atoms: C_13  and  C_14 
REMARK    6  A    between atoms: C_14  and  N_15 
REMARK       I    between atoms: N_15  and  C_16 
REMARK       I    between atoms: C_16  and  N_17 
REMARK    7  A    between atoms: N_17  and  C_18 
ROOT
HETATM    1  C   UNL     1      24.748  44.536  51.568  1.00  0.00     0.229 C 
HETATM    2  N   UNL     1      25.057  45.738  50.919  1.00  0.00    -0.351 N 
HETATM    3  C   UNL     1      24.042  46.270  50.010  1.00  0.00     0.132 C 
HETATM    4  C   UNL     1      24.108  47.800  49.884  1.00  0.00     0.021 C 
HETATM    5  C   UNL     1      25.537  48.249  49.547  1.00  0.00     0.009 C 
HETATM    6  C   UNL     1      26.533  47.683  50.558  1.00  0.00     0.020 C 
HETATM    7  C   UNL     1      26.429  46.166  50.648  1.00  0.00     0.126 C 
HETATM    8  O   UNL     1      23.690  43.944  51.332  1.00  0.00    -0.273 OA
ENDROOT
BRANCH   1   9
HETATM    9  C   UNL     1      25.762  43.927  52.528  1.00  0.00     0.185 C 
BRANCH   9  10
HETATM   10  S   UNL     1      25.474  44.391  54.262  1.00  0.00    -0.082 SA
BRANCH  10  11
HETATM   11  C   UNL     1      26.321  45.904  54.370  1.00  0.00     0.173 A 
HETATM   12  N   UNL     1      27.665  46.023  54.702  1.00  0.00    -0.299 N 
HETATM   13  C   UNL     1      27.890  47.383  54.823  1.00  0.00     0.118 A 
HETATM   14  C   UNL     1      26.691  47.996  54.561  1.00  0.00     0.137 A 
HETATM   15  N   UNL     1      25.723  47.072  54.300  1.00  0.00    -0.235 NA
BRANCH  12  16
HETATM   16  C   UNL     1      28.672  45.020  54.811  1.00  0.00     0.047 A 
HETATM   17  C   UNL     1      29.533  44.945  55.936  1.00  0.00    -0.029 A 
HETATM   18  C   UNL     1      30.598  44.011  55.911  1.00  0.00    -0.054 A 
HETATM   19  C   UNL     1      29.328  45.794  57.168  1.00  0.00     0.051 C 
HETATM   20  C   UNL     1      31.578  43.884  57.049  1.00  0.00     0.049 C 
HETATM   21  C   UNL     1      30.733  43.133  54.823  1.00  0.00     0.007 A 
HETATM   22  C   UNL     1      29.856  43.191  53.746  1.00  0.00     0.003 A 
HETATM   23  C   UNL     1      28.836  44.137  53.731  1.00  0.00     0.030 A 
ENDBRANCH  12  16
ENDBRANCH  10  11
ENDBRANCH   9  10
ENDBRANCH   1   9
BRANCH   4  24
HETATM   24  C   UNL     1      23.078  48.267  48.846  1.00  0.00     0.130 C 
BRANCH  24  25
HETATM   25  N   UNL     1      21.723  47.857  49.179  1.00  0.00    -0.342 N 
HETATM   26  C   UNL     1      20.542  48.538  49.177  1.00  0.00     0.320 C 
HETATM   27  N   UNL     1      20.577  49.803  48.664  1.00  0.00    -0.309 N 
HETATM   28  O   UNL     1      19.561  47.964  49.637  1.00  0.00    -0.247 OA
HETATM   29  H   UNL     1      21.430  50.078  48.209  1.00  0.00     0.170 HD
HETATM   30  H   UNL     1      21.610  46.936  49.589  1.00  0.00     0.164 HD
BRANCH  27  31
HETATM   31  C   UNL     1      19.524  50.740  48.608  1.00  0.00     0.039 A 
HETATM   32  C   UNL     1      18.816  51.052  47.448  1.00  0.00     0.071 A 
HETATM   33  C   UNL     1      17.785  51.988  47.496  1.00  0.00     0.118 A 
HETATM   34  F   UNL     1      17.109  52.283  46.377  1.00  0.00    -0.206 F 
HETATM   35  C   UNL     1      17.439  52.623  48.684  1.00  0.00     0.042 A 
HETATM   36  C   UNL     1      18.136  52.316  49.847  1.00  0.00     0.005 A 
HETATM   37  C   UNL     1      19.172  51.378  49.809  1.00  0.00     0.030 A 
ENDBRANCH  27  31
ENDBRANCH  24  25
ENDBRANCH   4  24
TORSDOF 7
ENDMDL
MODEL 2
REMARK VINA RESULT:     -10.3      3.948     11.793
REMARK  7 active torsions:
REMARK  status: ('A' for Active; 'I' for Inactive)
REMARK    1  A    between atoms: C_5  and  N_6 
REMARK    2  A    between atoms: C_7  and  S_8 
REMARK    3  A    between atoms: S_8  and  C_9 
REMARK    4  A    between atoms: C_9  and  C_10 
REMARK       I    between atoms: C_10  and  N_11 
REMARK    5  A    between atoms: C_13  and  C_14 
REMARK    6  A    between atoms: C_14  and  N_15 
REMARK       I    between atoms: N_15  and  C_16 
REMARK       I    between atoms: C_16  and  N_17 
REMARK    7  A    between atoms: N_17  and  C_18 
ROOT
HETATM    1  C   UNL     1      22.790  45.776  48.734  1.00  0.00     0.229 C 
HETATM    2  N   UNL     1      23.953  46.138  49.425  1.00  0.00    -0.351 N 
HETATM    3  C   UNL     1      24.639  45.073  50.154  1.00  0.00     0.132 C 
HETATM    4  C   UNL     1      26.148  45.328  50.290  1.00  0.00     0.021 C 
HETATM    5  C   UNL     1      26.405  46.731  50.858  1.00  0.00     0.009 C 
HETATM    6  C   UNL     1      25.685  47.790  50.025  1.00  0.00     0.020 C 
HETATM    7  C   UNL     1      24.195  47.494  49.919  1.00  0.00     0.126 C 
HETATM    8  O   UNL     1      22.354  44.622  48.792  1.00  0.00    -0.273 OA
ENDROOT
BRANCH   1   9
HETATM    9  C   UNL     1      22.027  46.839  47.953  1.00  0.00     0.185 C 
BRANCH   9  10
HETATM   10  S   UNL     1      20.247  46.858  48.323  1.00  0.00    -0.082 SA
BRANCH  10  11
HETATM   11  C   UNL     1      19.582  47.465  46.837  1.00  0.00     0.173 A 
HETATM   12  N   UNL     1      19.011  48.724  46.695  1.00  0.00    -0.299 N 
HETATM   13  C   UNL     1      18.480  48.740  45.418  1.00  0.00     0.118 A 
HETATM   14  C   UNL     1      18.755  47.511  44.871  1.00  0.00     0.137 A 
HETATM   15  N   UNL     1      19.421  46.724  45.763  1.00  0.00    -0.235 NA
BRANCH  12  16
HETATM   16  C   UNL     1      19.021  49.837  47.585  1.00  0.00     0.047 A 
HETATM   17  C   UNL     1      17.859  50.238  48.292  1.00  0.00    -0.029 A 
HETATM   18  C   UNL     1      17.907  51.435  49.049  1.00  0.00    -0.054 A 
HETATM   19  C   UNL     1      16.592  49.415  48.298  1.00  0.00     0.051 C 
HETATM   20  C   UNL     1      16.711  51.952  49.807  1.00  0.00     0.049 C 
HETATM   21  C   UNL     1      19.111  52.151  49.149  1.00  0.00     0.007 A 
HETATM   22  C   UNL     1      20.254  51.723  48.483  1.00  0.00     0.003 A 
HETATM   23  C   UNL     1      20.210  50.578  47.693  1.00  0.00     0.030 A 
ENDBRANCH  12  16
ENDBRANCH  10  11
ENDBRANCH   9  10
ENDBRANCH   1   9
BRANCH   4  24
HETATM   24  C   UNL     1      26.775  44.217  51.144  1.00  0.00     0.130 C 
BRANCH  24  25
HETATM   25  N   UNL     1      26.272  44.210  52.509  1.00  0.00    -0.342 N 
HETATM   26  C   UNL     1      26.912  44.247  53.712  1.00  0.00     0.320 C 
HETATM   27  N   UNL     1      28.262  44.445  53.670  1.00  0.00    -0.309 N 
HETATM   28  O   UNL     1      26.227  44.095  54.718  1.00  0.00    -0.247 OA
HETATM   29  H   UNL     1      28.653  44.681  52.774  1.00  0.00     0.170 HD
HETATM   30  H   UNL     1      25.279  44.045  52.631  1.00  0.00     0.164 HD
BRANCH  27  31
HETATM   31  C   UNL     1      29.166  44.454  54.753  1.00  0.00     0.039 A 
HETATM   32  C   UNL     1      29.236  45.472  55.704  1.00  0.00     0.071 A 
HETATM   33  C   UNL     1      30.160  45.386  56.743  1.00  0.00     0.118 A 
HETATM   34  F   UNL     1      30.221  46.367  57.654  1.00  0.00    -0.206 F 
HETATM   35  C   UNL     1      31.020  44.300  56.859  1.00  0.00     0.042 A 
HETATM   36  C   UNL     1      30.957  43.279  55.918  1.00  0.00     0.005 A 
HETATM   37  C   UNL     1      30.033  43.355  54.872  1.00  0.00     0.030 A 
ENDBRANCH  27  31
ENDBRANCH  24  25
ENDBRANCH   4  24
TORSDOF 7
ENDMDL
MODEL 3
REMARK VINA RESULT:     -10.0      4.132     11.959
REMARK  7 active torsions:
REMARK  status: ('A' for Active; 'I' for Inactive)
REMARK    1  A    between atoms: C_5  and  N_6 
REMARK    2  A    between atoms: C_7  and  S_8 
REMARK    3  A    between atoms: S_8  and  C_9 
REMARK    4  A    between atoms: C_9  and  C_10 
REMARK       I    between atoms: C_10  and  N_11 
REMARK    5  A    between atoms: C_13  and  C_14 
REMARK    6  A    between atoms: C_14  and  N_15 
REMARK       I    between atoms: N_15  and  C_16 
REMARK       I    between atoms: C_16  and  N_17 
REMARK    7  A    between atoms: N_17  and  C_18 
ROOT
HETATM    1  C   UNL     1      22.687  46.748  48.388  1.00  0.00     0.229 C 
HETATM    2  N   UNL     1      23.247  45.657  49.064  1.00  0.00    -0.351 N 
HETATM    3  C   UNL     1      24.265  45.962  50.069  1.00  0.00     0.132 C 
HETATM    4  C   UNL     1      24.328  44.906  51.184  1.00  0.00     0.021 C 
HETATM    5  C   UNL     1      24.456  43.500  50.582  1.00  0.00     0.009 C 
HETATM    6  C   UNL     1      23.341  43.242  49.570  1.00  0.00     0.020 C 
HETATM    7  C   UNL     1      23.318  44.314  48.487  1.00  0.00     0.126 C 
HETATM    8  O   UNL     1      23.083  47.897  48.607  1.00  0.00    -0.273 OA
ENDROOT
BRANCH   1   9
HETATM    9  C   UNL     1      21.621  46.499  47.328  1.00  0.00     0.185 C 
BRANCH   9  10
HETATM   10  S   UNL     1      19.936  46.847  47.913  1.00  0.00    -0.082 SA
BRANCH  10  11
HETATM   11  C   UNL     1      19.220  47.586  46.514  1.00  0.00     0.173 A 
HETATM   12  N   UNL     1      18.722  48.883  46.486  1.00  0.00    -0.299 N 
HETATM   13  C   UNL     1      18.114  49.012  45.250  1.00  0.00     0.118 A 
HETATM   14  C   UNL     1      18.278  47.808  44.613  1.00  0.00     0.137 A 
HETATM   15  N   UNL     1      18.947  46.927  45.410  1.00  0.00    -0.235 NA
BRANCH  12  16
HETATM   16  C   UNL     1      18.857  49.934  47.439  1.00  0.00     0.047 A 
HETATM   17  C   UNL     1      17.756  50.392  48.206  1.00  0.00    -0.029 A 
HETATM   18  C   UNL     1      17.933  51.531  49.031  1.00  0.00    -0.054 A 
HETATM   19  C   UNL     1      16.421  49.686  48.205  1.00  0.00     0.051 C 
HETATM   20  C   UNL     1      16.810  52.104  49.856  1.00  0.00     0.049 C 
HETATM   21  C   UNL     1      19.199  52.130  49.132  1.00  0.00     0.007 A 
HETATM   22  C   UNL     1      20.280  51.644  48.405  1.00  0.00     0.003 A 
HETATM   23  C   UNL     1      20.110  50.559  47.551  1.00  0.00     0.030 A 
ENDBRANCH  12  16
ENDBRANCH  10  11
ENDBRANCH   9  10
ENDBRANCH   1   9
BRANCH   4  24
HETATM   24  C   UNL     1      25.478  45.250  52.141  1.00  0.00     0.130 C 
BRANCH  24  25
HETATM   25  N   UNL     1      25.436  44.470  53.368  1.00  0.00    -0.342 N 
HETATM   26  C   UNL     1      26.391  44.193  54.300  1.00  0.00     0.320 C 
HETATM   27  N   UNL     1      27.584  44.841  54.152  1.00  0.00    -0.309 N 
HETATM   28  O   UNL     1      26.102  43.388  55.180  1.00  0.00    -0.247 OA
HETATM   29  H   UNL     1      27.616  45.565  53.456  1.00  0.00     0.170 HD
HETATM   30  H   UNL     1      24.592  43.937  53.545  1.00  0.00     0.164 HD
BRANCH  27  31
HETATM   31  C   UNL     1      28.752  44.684  54.927  1.00  0.00     0.039 A 
HETATM   32  C   UNL     1      29.167  45.584  55.908  1.00  0.00     0.071 A 
HETATM   33  C   UNL     1      30.335  45.337  56.626  1.00  0.00     0.118 A 
HETATM   34  F   UNL     1      30.726  46.206  57.568  1.00  0.00    -0.206 F 
HETATM   35  C   UNL     1      31.103  44.203  56.390  1.00  0.00     0.042 A 
HETATM   36  C   UNL     1      30.697  43.297  55.417  1.00  0.00     0.005 A 
HETATM   37  C   UNL     1      29.526  43.536  54.691  1.00  0.00     0.030 A 
ENDBRANCH  27  31
ENDBRANCH  24  25
ENDBRANCH   4  24
TORSDOF 7
ENDMDL
MODEL 4
REMARK VINA RESULT:      -9.8      2.703      3.624
REMARK  7 active torsions:
REMARK  status: ('A' for Active; 'I' for Inactive)
REMARK    1  A    between atoms: C_5  and  N_6 
REMARK    2  A    between atoms: C_7  and  S_8 
REMARK    3  A    between atoms: S_8  and  C_9 
REMARK    4  A    between atoms: C_9  and  C_10 
REMARK       I    between atoms: C_10  and  N_11 
REMARK    5  A    between atoms: C_13  and  C_14 
REMARK    6  A    between atoms: C_14  and  N_15 
REMARK       I    between atoms: N_15  and  C_16 
REMARK       I    between atoms: C_16  and  N_17 
REMARK    7  A    between atoms: N_17  and  C_18 
ROOT
HETATM    1  C   UNL     1      24.732  44.479  51.539  1.00  0.00     0.229 C 
HETATM    2  N   UNL     1      25.019  45.687  50.891  1.00  0.00    -0.351 N 
HETATM    3  C   UNL     1      24.014  46.180  49.951  1.00  0.00     0.132 C 
HETATM    4  C   UNL     1      24.033  47.711  49.817  1.00  0.00     0.021 C 
HETATM    5  C   UNL     1      25.455  48.204  49.516  1.00  0.00     0.009 C 
HETATM    6  C   UNL     1      26.441  47.677  50.557  1.00  0.00     0.020 C 
HETATM    7  C   UNL     1      26.384  46.158  50.654  1.00  0.00     0.126 C 
HETATM    8  O   UNL     1      23.701  43.852  51.278  1.00  0.00    -0.273 OA
ENDROOT
BRANCH   1   9
HETATM    9  C   UNL     1      25.739  43.909  52.531  1.00  0.00     0.185 C 
BRANCH   9  10
HETATM   10  S   UNL     1      25.420  44.418  54.246  1.00  0.00    -0.082 SA
BRANCH  10  11
HETATM   11  C   UNL     1      26.288  45.919  54.339  1.00  0.00     0.173 A 
HETATM   12  N   UNL     1      27.640  46.021  54.641  1.00  0.00    -0.299 N 
HETATM   13  C   UNL     1      27.885  47.377  54.761  1.00  0.00     0.118 A 
HETATM   14  C   UNL     1      26.688  48.007  54.528  1.00  0.00     0.137 A 
HETATM   15  N   UNL     1      25.702  47.095  54.287  1.00  0.00    -0.235 NA
BRANCH  12  16
HETATM   16  C   UNL     1      28.636  45.005  54.724  1.00  0.00     0.047 A 
HETATM   17  C   UNL     1      29.514  44.910  55.834  1.00  0.00    -0.029 A 
HETATM   18  C   UNL     1      30.568  43.963  55.784  1.00  0.00    -0.054 A 
HETATM   19  C   UNL     1      29.339  45.749  57.078  1.00  0.00     0.051 C 
HETATM   20  C   UNL     1      31.564  43.814  56.905  1.00  0.00     0.049 C 
HETATM   21  C   UNL     1      30.675  43.095  54.685  1.00  0.00     0.007 A 
HETATM   22  C   UNL     1      29.782  43.173  53.623  1.00  0.00     0.003 A 
HETATM   23  C   UNL     1      28.773  44.131  53.633  1.00  0.00     0.030 A 
ENDBRANCH  12  16
ENDBRANCH  10  11
ENDBRANCH   9  10
ENDBRANCH   1   9
BRANCH   4  24
HETATM   24  C   UNL     1      23.017  48.138  48.748  1.00  0.00     0.130 C 
BRANCH  24  25
HETATM   25  N   UNL     1      21.664  47.705  49.058  1.00  0.00    -0.342 N 
HETATM   26  C   UNL     1      20.776  46.935  48.367  1.00  0.00     0.320 C 
HETATM   27  N   UNL     1      21.247  46.350  47.226  1.00  0.00    -0.309 N 
HETATM   28  O   UNL     1      19.641  46.841  48.820  1.00  0.00    -0.247 OA
HETATM   29  H   UNL     1      22.236  46.420  47.063  1.00  0.00     0.170 HD
HETATM   30  H   UNL     1      21.228  48.111  49.879  1.00  0.00     0.164 HD
BRANCH  27  31
HETATM   31  C   UNL     1      20.527  45.570  46.297  1.00  0.00     0.039 A 
HETATM   32  C   UNL     1      19.997  46.064  45.105  1.00  0.00     0.071 A 
HETATM   33  C   UNL     1      19.306  45.211  44.249  1.00  0.00     0.118 A 
HETATM   34  F   UNL     1      18.801  45.693  43.104  1.00  0.00    -0.206 F 
HETATM   35  C   UNL     1      19.131  43.866  44.553  1.00  0.00     0.042 A 
HETATM   36  C   UNL     1      19.657  43.362  45.736  1.00  0.00     0.005 A 
HETATM   37  C   UNL     1      20.353  44.210  46.603  1.00  0.00     0.030 A 
ENDBRANCH  27  31
ENDBRANCH  24  25
ENDBRANCH   4  24
TORSDOF 7
ENDMDL
MODEL 5
REMARK VINA RESULT:      -9.7      4.243     11.224
REMARK  7 active torsions:
REMARK  status: ('A' for Active; 'I' for Inactive)
REMARK    1  A    between atoms: C_5  and  N_6 
REMARK    2  A    between atoms: C_7  and  S_8 
REMARK    3  A    between atoms: S_8  and  C_9 
REMARK    4  A    between atoms: C_9  and  C_10 
REMARK       I    between atoms: C_10  and  N_11 
REMARK    5  A    between atoms: C_13  and  C_14 
REMARK    6  A    between atoms: C_14  and  N_15 
REMARK       I    between atoms: N_15  and  C_16 
REMARK       I    between atoms: C_16  and  N_17 
REMARK    7  A    between atoms: N_17  and  C_18 
ROOT
HETATM    1  C   UNL     1      22.485  44.816  48.817  1.00  0.00     0.229 C 
HETATM    2  N   UNL     1      23.710  45.128  49.421  1.00  0.00    -0.351 N 
HETATM    3  C   UNL     1      24.305  44.093  50.265  1.00  0.00     0.132 C 
HETATM    4  C   UNL     1      25.838  44.189  50.323  1.00  0.00     0.021 C 
HETATM    5  C   UNL     1      26.271  45.614  50.694  1.00  0.00     0.009 C 
HETATM    6  C   UNL     1      25.638  46.633  49.749  1.00  0.00     0.020 C 
HETATM    7  C   UNL     1      24.121  46.499  49.725  1.00  0.00     0.126 C 
HETATM    8  O   UNL     1      21.928  43.737  49.039  1.00  0.00    -0.273 OA
ENDROOT
BRANCH   1   9
HETATM    9  C   UNL     1      21.811  45.851  47.925  1.00  0.00     0.185 C 
BRANCH   9  10
HETATM   10  S   UNL     1      20.083  46.176  48.386  1.00  0.00    -0.082 SA
BRANCH  10  11
HETATM   11  C   UNL     1      19.523  47.109  47.032  1.00  0.00     0.173 A 
HETATM   12  N   UNL     1      19.213  48.462  47.091  1.00  0.00    -0.299 N 
HETATM   13  C   UNL     1      18.670  48.765  45.855  1.00  0.00     0.118 A 
HETATM   14  C   UNL     1      18.683  47.598  45.133  1.00  0.00     0.137 A 
HETATM   15  N   UNL     1      19.196  46.576  45.876  1.00  0.00    -0.235 NA
BRANCH  12  16
HETATM   16  C   UNL     1      19.464  49.412  48.123  1.00  0.00     0.047 A 
HETATM   17  C   UNL     1      20.777  49.853  48.428  1.00  0.00    -0.029 A 
HETATM   18  C   UNL     1      20.964  50.691  49.556  1.00  0.00    -0.054 A 
HETATM   19  C   UNL     1      21.970  49.497  47.572  1.00  0.00     0.051 C 
HETATM   20  C   UNL     1      22.327  51.182  49.971  1.00  0.00     0.049 C 
HETATM   21  C   UNL     1      19.852  51.127  50.295  1.00  0.00     0.007 A 
HETATM   22  C   UNL     1      18.566  50.718  49.959  1.00  0.00     0.003 A 
HETATM   23  C   UNL     1      18.371  49.855  48.885  1.00  0.00     0.030 A 
ENDBRANCH  12  16
ENDBRANCH  10  11
ENDBRANCH   9  10
ENDBRANCH   1   9
BRANCH   4  24
HETATM   24  C   UNL     1      26.374  43.132  51.299  1.00  0.00     0.130 C 
BRANCH  24  25
HETATM   25  N   UNL     1      25.945  43.365  52.668  1.00  0.00    -0.342 N 
HETATM   26  C   UNL     1      26.640  43.690  53.795  1.00  0.00     0.320 C 
HETATM   27  N   UNL     1      27.966  43.971  53.624  1.00  0.00    -0.309 N 
HETATM   28  O   UNL     1      26.024  43.697  54.855  1.00  0.00    -0.247 OA
HETATM   29  H   UNL     1      28.289  44.048  52.675  1.00  0.00     0.170 HD
HETATM   30  H   UNL     1      24.977  43.158  52.888  1.00  0.00     0.164 HD
BRANCH  27  31
HETATM   31  C   UNL     1      28.920  44.264  54.621  1.00  0.00     0.039 A 
HETATM   32  C   UNL     1      29.933  43.390  55.016  1.00  0.00     0.071 A 
HETATM   33  C   UNL     1      30.833  43.775  56.006  1.00  0.00     0.118 A 
HETATM   34  F   UNL     1      31.804  42.930  56.380  1.00  0.00    -0.206 F 
HETATM   35  C   UNL     1      30.748  45.022  56.616  1.00  0.00     0.042 A 
HETATM   36  C   UNL     1      29.745  45.902  56.228  1.00  0.00     0.005 A 
HETATM   37  C   UNL     1      28.837  45.525  55.234  1.00  0.00     0.030 A 
ENDBRANCH  27  31
ENDBRANCH  24  25
ENDBRANCH   4  24
TORSDOF 7
ENDMDL
MODEL 6
REMARK VINA RESULT:      -9.7      4.089     12.310
REMARK  7 active torsions:
REMARK  status: ('A' for Active; 'I' for Inactive)
REMARK    1  A    between atoms: C_5  and  N_6 
REMARK    2  A    between atoms: C_7  and  S_8 
REMARK    3  A    between atoms: S_8  and  C_9 
REMARK    4  A    between atoms: C_9  and  C_10 
REMARK       I    between atoms: C_10  and  N_11 
REMARK    5  A    between atoms: C_13  and  C_14 
REMARK    6  A    between atoms: C_14  and  N_15 
REMARK       I    between atoms: N_15  and  C_16 
REMARK       I    between atoms: C_16  and  N_17 
REMARK    7  A    between atoms: N_17  and  C_18 
ROOT
HETATM    1  C   UNL     1      23.123  48.684  49.084  1.00  0.00     0.229 C 
HETATM    2  N   UNL     1      23.506  47.372  49.387  1.00  0.00    -0.351 N 
HETATM    3  C   UNL     1      24.652  47.215  50.281  1.00  0.00     0.132 C 
HETATM    4  C   UNL     1      24.599  45.906  51.084  1.00  0.00     0.021 C 
HETATM    5  C   UNL     1      24.379  44.711  50.145  1.00  0.00     0.009 C 
HETATM    6  C   UNL     1      23.148  44.932  49.269  1.00  0.00     0.020 C 
HETATM    7  C   UNL     1      23.246  46.241  48.496  1.00  0.00     0.126 C 
HETATM    8  O   UNL     1      23.764  49.646  49.518  1.00  0.00    -0.273 OA
ENDROOT
BRANCH   1   9
HETATM    9  C   UNL     1      21.936  48.917  48.157  1.00  0.00     0.185 C 
BRANCH   9  10
HETATM   10  S   UNL     1      20.396  49.294  49.047  1.00  0.00    -0.082 SA
BRANCH  10  11
HETATM   11  C   UNL     1      19.315  48.093  48.411  1.00  0.00     0.173 A 
HETATM   12  N   UNL     1      18.268  48.368  47.541  1.00  0.00    -0.299 N 
HETATM   13  C   UNL     1      17.580  47.175  47.411  1.00  0.00     0.118 A 
HETATM   14  C   UNL     1      18.239  46.263  48.196  1.00  0.00     0.137 A 
HETATM   15  N   UNL     1      19.300  46.845  48.824  1.00  0.00    -0.235 NA
BRANCH  12  16
HETATM   16  C   UNL     1      17.966  49.562  46.824  1.00  0.00     0.047 A 
HETATM   17  C   UNL     1      16.926  50.435  47.232  1.00  0.00    -0.029 A 
HETATM   18  C   UNL     1      16.592  51.529  46.393  1.00  0.00    -0.054 A 
HETATM   19  C   UNL     1      16.193  50.264  48.542  1.00  0.00     0.051 C 
HETATM   20  C   UNL     1      15.481  52.488  46.734  1.00  0.00     0.049 C 
HETATM   21  C   UNL     1      17.340  51.770  45.229  1.00  0.00     0.007 A 
HETATM   22  C   UNL     1      18.384  50.928  44.864  1.00  0.00     0.003 A 
HETATM   23  C   UNL     1      18.691  49.821  45.649  1.00  0.00     0.030 A 
ENDBRANCH  12  16
ENDBRANCH  10  11
ENDBRANCH   9  10
ENDBRANCH   1   9
BRANCH   4  24
HETATM   24  C   UNL     1      25.878  45.775  51.923  1.00  0.00     0.130 C 
BRANCH  24  25
HETATM   25  N   UNL     1      25.677  44.986  53.129  1.00  0.00    -0.342 N 
HETATM   26  C   UNL     1      26.537  44.599  54.113  1.00  0.00     0.320 C 
HETATM   27  N   UNL     1      27.796  45.123  54.054  1.00  0.00    -0.309 N 
HETATM   28  O   UNL     1      26.111  43.815  54.955  1.00  0.00    -0.247 OA
HETATM   29  H   UNL     1      27.947  45.850  53.377  1.00  0.00     0.170 HD
HETATM   30  H   UNL     1      24.774  44.540  53.240  1.00  0.00     0.164 HD
BRANCH  27  31
HETATM   31  C   UNL     1      28.890  44.836  54.898  1.00  0.00     0.039 A 
HETATM   32  C   UNL     1      29.303  45.656  55.948  1.00  0.00     0.071 A 
HETATM   33  C   UNL     1      30.393  45.281  56.731  1.00  0.00     0.118 A 
HETATM   34  F   UNL     1      30.784  46.073  57.739  1.00  0.00    -0.206 F 
HETATM   35  C   UNL     1      31.084  44.099  56.491  1.00  0.00     0.042 A 
HETATM   36  C   UNL     1      30.677  43.273  55.449  1.00  0.00     0.005 A 
HETATM   37  C   UNL     1      29.585  43.639  54.658  1.00  0.00     0.030 A 
ENDBRANCH  27  31
ENDBRANCH  24  25
ENDBRANCH   4  24
TORSDOF 7
ENDMDL
MODEL 7
REMARK VINA RESULT:      -9.7      3.979     11.989
REMARK  7 active torsions:
REMARK  status: ('A' for Active; 'I' for Inactive)
REMARK    1  A    between atoms: C_5  and  N_6 
REMARK    2  A    between atoms: C_7  and  S_8 
REMARK    3  A    between atoms: S_8  and  C_9 
REMARK    4  A    between atoms: C_9  and  C_10 
REMARK       I    between atoms: C_10  and  N_11 
REMARK    5  A    between atoms: C_13  and  C_14 
REMARK    6  A    between atoms: C_14  and  N_15 
REMARK       I    between atoms: N_15  and  C_16 
REMARK       I    between atoms: C_16  and  N_17 
REMARK    7  A    between atoms: N_17  and  C_18 
ROOT
HETATM    1  C   UNL     1      22.610  50.209  48.949  1.00  0.00     0.229 C 
HETATM    2  N   UNL     1      22.665  48.820  48.773  1.00  0.00    -0.351 N 
HETATM    3  C   UNL     1      23.783  48.124  49.407  1.00  0.00     0.132 C 
HETATM    4  C   UNL     1      23.446  46.667  49.761  1.00  0.00     0.021 C 
HETATM    5  C   UNL     1      22.876  45.936  48.538  1.00  0.00     0.009 C 
HETATM    6  C   UNL     1      21.692  46.705  47.953  1.00  0.00     0.020 C 
HETATM    7  C   UNL     1      22.075  48.141  47.619  1.00  0.00     0.126 C 
HETATM    8  O   UNL     1      23.499  50.802  49.568  1.00  0.00    -0.273 OA
ENDROOT
BRANCH   1   9
HETATM    9  C   UNL     1      21.470  50.995  48.315  1.00  0.00     0.185 C 
BRANCH   9  10
HETATM   10  S   UNL     1      20.080  51.282  49.451  1.00  0.00    -0.082 SA
BRANCH  10  11
HETATM   11  C   UNL     1      19.146  49.832  49.244  1.00  0.00     0.173 A 
HETATM   12  N   UNL     1      18.097  49.702  48.343  1.00  0.00    -0.299 N 
HETATM   13  C   UNL     1      17.541  48.463  48.608  1.00  0.00     0.118 A 
HETATM   14  C   UNL     1      18.275  47.924  49.635  1.00  0.00     0.137 A 
HETATM   15  N   UNL     1      19.254  48.787  50.033  1.00  0.00    -0.235 NA
BRANCH  12  16
HETATM   16  C   UNL     1      17.688  50.566  47.286  1.00  0.00     0.047 A 
HETATM   17  C   UNL     1      16.571  51.430  47.418  1.00  0.00    -0.029 A 
HETATM   18  C   UNL     1      16.140  52.157  46.280  1.00  0.00    -0.054 A 
HETATM   19  C   UNL     1      15.856  51.632  48.733  1.00  0.00     0.051 C 
HETATM   20  C   UNL     1      14.945  53.075  46.322  1.00  0.00     0.049 C 
HETATM   21  C   UNL     1      16.864  52.070  45.080  1.00  0.00     0.007 A 
HETATM   22  C   UNL     1      17.982  51.249  44.977  1.00  0.00     0.003 A 
HETATM   23  C   UNL     1      18.387  50.490  46.070  1.00  0.00     0.030 A 
ENDBRANCH  12  16
ENDBRANCH  10  11
ENDBRANCH   9  10
ENDBRANCH   1   9
BRANCH   4  24
HETATM   24  C   UNL     1      24.696  45.983  50.333  1.00  0.00     0.130 C 
BRANCH  24  25
HETATM   25  N   UNL     1      24.411  45.207  51.529  1.00  0.00    -0.342 N 
HETATM   26  C   UNL     1      25.192  44.855  52.590  1.00  0.00     0.320 C 
HETATM   27  N   UNL     1      26.439  45.409  52.630  1.00  0.00    -0.309 N 
HETATM   28  O   UNL     1      24.714  44.073  53.405  1.00  0.00    -0.247 OA
HETATM   29  H   UNL     1      26.631  46.129  51.957  1.00  0.00     0.170 HD
HETATM   30  H   UNL     1      23.512  44.741  51.571  1.00  0.00     0.164 HD
BRANCH  27  31
HETATM   31  C   UNL     1      27.463  45.160  53.569  1.00  0.00     0.039 A 
HETATM   32  C   UNL     1      28.281  44.031  53.553  1.00  0.00     0.071 A 
HETATM   33  C   UNL     1      29.271  43.880  54.522  1.00  0.00     0.118 A 
HETATM   34  F   UNL     1      30.054  42.793  54.500  1.00  0.00    -0.206 F 
HETATM   35  C   UNL     1      29.467  44.836  55.512  1.00  0.00     0.042 A 
HETATM   36  C   UNL     1      28.659  45.967  55.534  1.00  0.00     0.005 A 
HETATM   37  C   UNL     1      27.663  46.129  54.566  1.00  0.00     0.030 A 
ENDBRANCH  27  31
ENDBRANCH  24  25
ENDBRANCH   4  24
TORSDOF 7
ENDMDL
MODEL 8
REMARK VINA RESULT:      -9.5      4.447     11.801
REMARK  7 active torsions:
REMARK  status: ('A' for Active; 'I' for Inactive)
REMARK    1  A    between atoms: C_5  and  N_6 
REMARK    2  A    between atoms: C_7  and  S_8 
REMARK    3  A    between atoms: S_8  and  C_9 
REMARK    4  A    between atoms: C_9  and  C_10 
REMARK       I    between atoms: C_10  and  N_11 
REMARK    5  A    between atoms: C_13  and  C_14 
REMARK    6  A    between atoms: C_14  and  N_15 
REMARK       I    between atoms: N_15  and  C_16 
REMARK       I    between atoms: C_16  and  N_17 
REMARK    7  A    between atoms: N_17  and  C_18 
ROOT
HETATM    1  C   UNL     1      23.971  46.542  49.591  1.00  0.00     0.229 C 
HETATM    2  N   UNL     1      24.509  45.250  49.558  1.00  0.00    -0.351 N 
HETATM    3  C   UNL     1      25.891  45.104  50.015  1.00  0.00     0.132 C 
HETATM    4  C   UNL     1      26.179  43.708  50.588  1.00  0.00     0.021 C 
HETATM    5  C   UNL     1      25.737  42.621  49.598  1.00  0.00     0.009 C 
HETATM    6  C   UNL     1      24.277  42.819  49.195  1.00  0.00     0.020 C 
HETATM    7  C   UNL     1      24.041  44.216  48.635  1.00  0.00     0.126 C 
HETATM    8  O   UNL     1      24.661  47.505  49.941  1.00  0.00    -0.273 OA
ENDROOT
BRANCH   1   9
HETATM    9  C   UNL     1      22.536  46.763  49.129  1.00  0.00     0.185 C 
BRANCH   9  10
HETATM   10  S   UNL     1      22.409  47.867  47.690  1.00  0.00    -0.082 SA
BRANCH  10  11
HETATM   11  C   UNL     1      20.937  47.318  46.950  1.00  0.00     0.173 A 
HETATM   12  N   UNL     1      19.666  47.698  47.364  1.00  0.00    -0.299 N 
HETATM   13  C   UNL     1      18.795  46.925  46.619  1.00  0.00     0.118 A 
HETATM   14  C   UNL     1      19.574  46.136  45.811  1.00  0.00     0.137 A 
HETATM   15  N   UNL     1      20.898  46.373  46.036  1.00  0.00    -0.235 NA
BRANCH  12  16
HETATM   16  C   UNL     1      19.271  48.720  48.274  1.00  0.00     0.047 A 
HETATM   17  C   UNL     1      19.179  50.079  47.877  1.00  0.00    -0.029 A 
HETATM   18  C   UNL     1      18.915  51.057  48.868  1.00  0.00    -0.054 A 
HETATM   19  C   UNL     1      19.311  50.510  46.435  1.00  0.00     0.051 C 
HETATM   20  C   UNL     1      18.831  52.526  48.540  1.00  0.00     0.049 C 
HETATM   21  C   UNL     1      18.674  50.662  50.194  1.00  0.00     0.007 A 
HETATM   22  C   UNL     1      18.727  49.322  50.560  1.00  0.00     0.003 A 
HETATM   23  C   UNL     1      19.035  48.354  49.610  1.00  0.00     0.030 A 
ENDBRANCH  12  16
ENDBRANCH  10  11
ENDBRANCH   9  10
ENDBRANCH   1   9
BRANCH   4  24
HETATM   24  C   UNL     1      27.667  43.609  50.955  1.00  0.00     0.130 C 
BRANCH  24  25
HETATM   25  N   UNL     1      27.935  42.557  51.922  1.00  0.00    -0.342 N 
HETATM   26  C   UNL     1      28.540  42.579  53.143  1.00  0.00     0.320 C 
HETATM   27  N   UNL     1      28.862  43.813  53.633  1.00  0.00    -0.309 N 
HETATM   28  O   UNL     1      28.748  41.500  53.688  1.00  0.00    -0.247 OA
HETATM   29  H   UNL     1      28.508  44.603  53.124  1.00  0.00     0.170 HD
HETATM   30  H   UNL     1      27.746  41.605  51.629  1.00  0.00     0.164 HD
BRANCH  27  31
HETATM   31  C   UNL     1      29.551  44.112  54.828  1.00  0.00     0.039 A 
HETATM   32  C   UNL     1      30.624  43.370  55.320  1.00  0.00     0.071 A 
HETATM   33  C   UNL     1      31.243  43.751  56.507  1.00  0.00     0.118 A 
HETATM   34  F   UNL     1      32.275  43.033  56.973  1.00  0.00    -0.206 F 
HETATM   35  C   UNL     1      30.818  44.866  57.220  1.00  0.00     0.042 A 
HETATM   36  C   UNL     1      29.751  45.616  56.737  1.00  0.00     0.005 A 
HETATM   37  C   UNL     1      29.123  45.241  55.546  1.00  0.00     0.030 A 
ENDBRANCH  27  31
ENDBRANCH  24  25
ENDBRANCH   4  24
TORSDOF 7
ENDMDL
MODEL 9
REMARK VINA RESULT:      -9.4      4.294     11.841
REMARK  7 active torsions:
REMARK  status: ('A' for Active; 'I' for Inactive)
REMARK    1  A    between atoms: C_5  and  N_6 
REMARK    2  A    between atoms: C_7  and  S_8 
REMARK    3  A    between atoms: S_8  and  C_9 
REMARK    4  A    between atoms: C_9  and  C_10 
REMARK       I    between atoms: C_10  and  N_11 
REMARK    5  A    between atoms: C_13  and  C_14 
REMARK    6  A    between atoms: C_14  and  N_15 
REMARK       I    between atoms: N_15  and  C_16 
REMARK       I    between atoms: C_16  and  N_17 
REMARK    7  A    between atoms: N_17  and  C_18 
ROOT
HETATM    1  C   UNL     1      23.917  47.493  49.596  1.00  0.00     0.229 C 
HETATM    2  N   UNL     1      24.122  46.113  49.722  1.00  0.00    -0.351 N 
HETATM    3  C   UNL     1      24.886  45.670  50.888  1.00  0.00     0.132 C 
HETATM    4  C   UNL     1      24.510  44.247  51.332  1.00  0.00     0.021 C 
HETATM    5  C   UNL     1      24.579  43.279  50.143  1.00  0.00     0.009 C 
HETATM    6  C   UNL     1      23.732  43.792  48.980  1.00  0.00     0.020 C 
HETATM    7  C   UNL     1      24.140  45.203  48.577  1.00  0.00     0.126 C 
HETATM    8  O   UNL     1      24.408  48.281  50.409  1.00  0.00    -0.273 OA
ENDROOT
BRANCH   1   9
HETATM    9  C   UNL     1      23.130  48.022  48.404  1.00  0.00     0.185 C 
BRANCH   9  10
HETATM   10  S   UNL     1      21.347  47.688  48.519  1.00  0.00    -0.082 SA
BRANCH  10  11
HETATM   11  C   UNL     1      20.750  49.173  49.194  1.00  0.00     0.173 A 
HETATM   12  N   UNL     1      19.472  49.672  48.974  1.00  0.00    -0.299 N 
HETATM   13  C   UNL     1      19.466  50.926  49.558  1.00  0.00     0.118 A 
HETATM   14  C   UNL     1      20.718  51.109  50.089  1.00  0.00     0.137 A 
HETATM   15  N   UNL     1      21.510  50.027  49.843  1.00  0.00    -0.235 NA
BRANCH  12  16
HETATM   16  C   UNL     1      18.338  49.048  48.378  1.00  0.00     0.047 A 
HETATM   17  C   UNL     1      17.903  49.383  47.071  1.00  0.00    -0.029 A 
HETATM   18  C   UNL     1      16.689  48.825  46.598  1.00  0.00    -0.054 A 
HETATM   19  C   UNL     1      18.706  50.277  46.156  1.00  0.00     0.051 C 
HETATM   20  C   UNL     1      16.136  49.150  45.233  1.00  0.00     0.049 C 
HETATM   21  C   UNL     1      15.989  47.901  47.391  1.00  0.00     0.007 A 
HETATM   22  C   UNL     1      16.450  47.550  48.655  1.00  0.00     0.003 A 
HETATM   23  C   UNL     1      17.613  48.129  49.154  1.00  0.00     0.030 A 
ENDBRANCH  12  16
ENDBRANCH  10  11
ENDBRANCH   9  10
ENDBRANCH   1   9
BRANCH   4  24
HETATM   24  C   UNL     1      25.418  43.825  52.496  1.00  0.00     0.130 C 
BRANCH  24  25
HETATM   25  N   UNL     1      26.803  43.646  52.089  1.00  0.00    -0.342 N 
HETATM   26  C   UNL     1      27.975  43.799  52.767  1.00  0.00     0.320 C 
HETATM   27  N   UNL     1      27.868  44.052  54.105  1.00  0.00    -0.309 N 
HETATM   28  O   UNL     1      29.014  43.704  52.123  1.00  0.00    -0.247 OA
HETATM   29  H   UNL     1      26.950  43.970  54.504  1.00  0.00     0.170 HD
HETATM   30  H   UNL     1      26.974  43.477  51.104  1.00  0.00     0.164 HD
BRANCH  27  31
HETATM   31  C   UNL     1      28.911  44.319  55.018  1.00  0.00     0.039 A 
HETATM   32  C   UNL     1      29.985  43.461  55.251  1.00  0.00     0.071 A 
HETATM   33  C   UNL     1      30.970  43.818  56.169  1.00  0.00     0.118 A 
HETATM   34  F   UNL     1      32.001  42.989  56.386  1.00  0.00    -0.206 F 
HETATM   35  C   UNL     1      30.910  45.021  56.863  1.00  0.00     0.042 A 
HETATM   36  C   UNL     1      29.845  45.885  56.636  1.00  0.00     0.005 A 
HETATM   37  C   UNL     1      28.851  45.536  55.717  1.00  0.00     0.030 A 
ENDBRANCH  27  31
ENDBRANCH  24  25
ENDBRANCH   4  24
TORSDOF 7
ENDMDL
MODEL 10
REMARK VINA RESULT:      -9.3     12.994     16.714
REMARK  7 active torsions:
REMARK  status: ('A' for Active; 'I' for Inactive)
REMARK    1  A    between atoms: C_5  and  N_6 
REMARK    2  A    between atoms: C_7  and  S_8 
REMARK    3  A    between atoms: S_8  and  C_9 
REMARK    4  A    between atoms: C_9  and  C_10 
REMARK       I    between atoms: C_10  and  N_11 
REMARK    5  A    between atoms: C_13  and  C_14 
REMARK    6  A    between atoms: C_14  and  N_15 
REMARK       I    between atoms: N_15  and  C_16 
REMARK       I    between atoms: C_16  and  N_17 
REMARK    7  A    between atoms: N_17  and  C_18 
ROOT
HETATM    1  C   UNL     1      31.613  48.420  41.218  1.00  0.00     0.229 C 
HETATM    2  N   UNL     1      32.262  49.451  41.909  1.00  0.00    -0.351 N 
HETATM    3  C   UNL     1      33.682  49.641  41.620  1.00  0.00     0.132 C 
HETATM    4  C   UNL     1      34.139  51.092  41.835  1.00  0.00     0.021 C 
HETATM    5  C   UNL     1      33.722  51.584  43.227  1.00  0.00     0.009 C 
HETATM    6  C   UNL     1      32.222  51.385  43.442  1.00  0.00     0.020 C 
HETATM    7  C   UNL     1      31.818  49.934  43.217  1.00  0.00     0.126 C 
HETATM    8  O   UNL     1      32.238  47.687  40.446  1.00  0.00    -0.273 OA
ENDROOT
BRANCH   1   9
HETATM    9  C   UNL     1      30.132  48.170  41.474  1.00  0.00     0.185 C 
BRANCH   9  10
HETATM   10  S   UNL     1      29.302  47.322  40.097  1.00  0.00    -0.082 SA
BRANCH  10  11
HETATM   11  C   UNL     1      28.032  48.441  39.704  1.00  0.00     0.173 A 
HETATM   12  N   UNL     1      28.220  49.808  39.542  1.00  0.00    -0.299 N 
HETATM   13  C   UNL     1      26.949  50.334  39.393  1.00  0.00     0.118 A 
HETATM   14  C   UNL     1      26.082  49.274  39.472  1.00  0.00     0.137 A 
HETATM   15  N   UNL     1      26.760  48.110  39.683  1.00  0.00    -0.235 NA
BRANCH  12  16
HETATM   16  C   UNL     1      29.427  50.558  39.439  1.00  0.00     0.047 A 
HETATM   17  C   UNL     1      29.713  51.637  40.315  1.00  0.00    -0.029 A 
HETATM   18  C   UNL     1      30.865  52.424  40.065  1.00  0.00    -0.054 A 
HETATM   19  C   UNL     1      28.859  51.946  41.522  1.00  0.00     0.051 C 
HETATM   20  C   UNL     1      31.229  53.606  40.927  1.00  0.00     0.049 C 
HETATM   21  C   UNL     1      31.734  52.079  39.017  1.00  0.00     0.007 A 
HETATM   22  C   UNL     1      31.462  50.993  38.192  1.00  0.00     0.003 A 
HETATM   23  C   UNL     1      30.308  50.242  38.391  1.00  0.00     0.030 A 
ENDBRANCH  12  16
ENDBRANCH  10  11
ENDBRANCH   9  10
ENDBRANCH   1   9
BRANCH   4  24
HETATM   24  C   UNL     1      35.654  51.185  41.601  1.00  0.00     0.130 C 
BRANCH  24  25
HETATM   25  N   UNL     1      36.164  52.537  41.768  1.00  0.00    -0.342 N 
HETATM   26  C   UNL     1      36.939  53.101  42.737  1.00  0.00     0.320 C 
HETATM   27  N   UNL     1      37.445  52.249  43.676  1.00  0.00    -0.309 N 
HETATM   28  O   UNL     1      37.108  54.315  42.686  1.00  0.00    -0.247 OA
HETATM   29  H   UNL     1      37.321  51.267  43.502  1.00  0.00     0.170 HD
HETATM   30  H   UNL     1      35.819  53.240  41.124  1.00  0.00     0.164 HD
BRANCH  27  31
HETATM   31  C   UNL     1      38.211  52.577  44.815  1.00  0.00     0.039 A 
HETATM   32  C   UNL     1      37.793  53.461  45.809  1.00  0.00     0.071 A 
HETATM   33  C   UNL     1      38.620  53.715  46.901  1.00  0.00     0.118 A 
HETATM   34  F   UNL     1      38.212  54.565  47.854  1.00  0.00    -0.206 F 
HETATM   35  C   UNL     1      39.861  53.102  47.027  1.00  0.00     0.042 A 
HETATM   36  C   UNL     1      40.285  52.216  46.043  1.00  0.00     0.005 A 
HETATM   37  C   UNL     1      39.463  51.954  44.944  1.00  0.00     0.030 A 
ENDBRANCH  27  31
ENDBRANCH  24  25
ENDBRANCH   4  24
TORSDOF 7
ENDMDL
