MODEL 1
REMARK VINA RESULT:      -9.3      0.000      0.000
REMARK  4 active torsions:
REMARK  status: ('A' for Active; 'I' for Inactive)
REMARK    1  A    between atoms: C_6  and  N_7 
REMARK       I    between atoms: N_7  and  C_8 
REMARK    2  A    between atoms: C_8  and  C_9 
REMARK    3  A    between atoms: C_10  and  C_11 
REMARK    4  A    between atoms: C_14  and  O_15 
ROOT
HETATM    1  C   UNL     1      26.896  42.407  51.645  1.00  0.00     0.131 C 
HETATM    2  C   UNL     1      25.689  43.350  51.399  1.00  0.00     0.177 C 
HETATM    3  N   UNL     1      24.744  42.720  50.483  1.00  0.00    -0.088 N 
HETATM    4  C   UNL     1      25.037  41.674  49.655  1.00  0.00     0.721 A 
HETATM    5  N   UNL     1      26.247  41.090  49.659  1.00  0.00    -0.218 N 
HETATM    6  C   UNL     1      27.378  41.704  50.352  1.00  0.00     0.111 C 
HETATM    7  C   UNL     1      28.379  40.579  50.656  1.00  0.00     0.034 C 
HETATM    8  N   UNL     1      23.434  43.039  50.431  1.00  0.00    -0.149 NA
HETATM    9  C   UNL     1      23.021  42.210  49.465  1.00  0.00     0.275 A 
HETATM   10  N   UNL     1      23.969  41.357  48.969  1.00  0.00    -0.055 NA
HETATM   11  H   UNL     1      26.458  40.478  48.873  1.00  0.00     0.178 HD
ENDROOT
BRANCH   1  12
HETATM   12  C   UNL     1      28.020  43.136  52.369  1.00  0.00     0.230 C 
HETATM   13  N   UNL     1      27.792  43.257  53.731  1.00  0.00    -0.326 N 
HETATM   14  H   UNL     1      26.977  42.791  54.104  1.00  0.00     0.169 HD
HETATM   15  O   UNL     1      29.000  43.546  51.756  1.00  0.00    -0.273 OA
BRANCH  13  16
HETATM   16  C   UNL     1      28.604  43.910  54.692  1.00  0.00     0.040 A 
HETATM   17  C   UNL     1      28.175  45.150  55.215  1.00  0.00    -0.035 A 
HETATM   18  C   UNL     1      28.964  45.808  56.179  1.00  0.00     0.015 A 
HETATM   19  C   UNL     1      26.889  45.807  54.789  1.00  0.00     0.050 C 
HETATM   20  C   UNL     1      30.177  45.266  56.618  1.00  0.00    -0.061 A 
HETATM   21  C   UNL     1      30.992  45.956  57.670  1.00  0.00     0.048 C 
HETATM   22  C   UNL     1      30.590  44.042  56.097  1.00  0.00     0.009 A 
HETATM   23  C   UNL     1      29.817  43.376  55.141  1.00  0.00     0.030 A 
ENDBRANCH  13  16
ENDBRANCH   1  12
BRANCH   2  24
HETATM   24  C   UNL     1      25.930  44.798  50.977  1.00  0.00    -0.032 A 
HETATM   25  C   UNL     1      26.671  45.173  49.850  1.00  0.00     0.012 A 
HETATM   26  C   UNL     1      26.845  46.523  49.523  1.00  0.00     0.037 A 
HETATM   27  C   UNL     1      26.273  47.531  50.298  1.00  0.00     0.068 A 
HETATM   28  C   UNL     1      25.517  47.176  51.410  1.00  0.00     0.037 A 
HETATM   29  C   UNL     1      25.348  45.827  51.742  1.00  0.00     0.012 A 
BRANCH  27  30
HETATM   30  O   UNL     1      26.522  48.803  49.862  1.00  0.00    -0.356 OA
HETATM   31  C   UNL     1      27.722  49.006  49.127  1.00  0.00     0.210 C 
ENDBRANCH  27  30
ENDBRANCH   2  24
TORSDOF 4
ENDMDL
MODEL 2
REMARK VINA RESULT:      -8.9      2.316      5.026
REMARK  4 active torsions:
REMARK  status: ('A' for Active; 'I' for Inactive)
REMARK    1  A    between atoms: C_6  and  N_7 
REMARK       I    between atoms: N_7  and  C_8 
REMARK    2  A    between atoms: C_8  and  C_9 
REMARK    3  A    between atoms: C_10  and  C_11 
REMARK    4  A    between atoms: C_14  and  O_15 
ROOT
HETATM    1  C   UNL     1      25.508  43.422  49.652  1.00  0.00     0.131 C 
HETATM    2  C   UNL     1      25.736  42.302  48.602  1.00  0.00     0.177 C 
HETATM    3  N   UNL     1      24.454  41.829  48.091  1.00  0.00    -0.088 N 
HETATM    4  C   UNL     1      23.249  42.023  48.705  1.00  0.00     0.721 A 
HETATM    5  N   UNL     1      23.143  42.736  49.839  1.00  0.00    -0.218 N 
HETATM    6  C   UNL     1      24.328  43.113  50.607  1.00  0.00     0.111 C 
HETATM    7  C   UNL     1      23.943  44.338  51.449  1.00  0.00     0.034 C 
HETATM    8  N   UNL     1      24.306  41.233  46.890  1.00  0.00    -0.149 NA
HETATM    9  C   UNL     1      22.988  40.998  46.897  1.00  0.00     0.275 A 
HETATM   10  N   UNL     1      22.307  41.471  47.986  1.00  0.00    -0.055 NA
HETATM   11  H   UNL     1      22.266  42.649  50.349  1.00  0.00     0.178 HD
ENDROOT
BRANCH   1  12
HETATM   12  C   UNL     1      26.796  43.742  50.397  1.00  0.00     0.230 C 
HETATM   13  N   UNL     1      26.899  43.069  51.605  1.00  0.00    -0.326 N 
HETATM   14  H   UNL     1      26.178  42.395  51.818  1.00  0.00     0.169 HD
HETATM   15  O   UNL     1      27.618  44.520  49.925  1.00  0.00    -0.273 OA
BRANCH  13  16
HETATM   16  C   UNL     1      27.937  43.165  52.566  1.00  0.00     0.040 A 
HETATM   17  C   UNL     1      27.713  43.922  53.737  1.00  0.00    -0.035 A 
HETATM   18  C   UNL     1      28.730  44.018  54.707  1.00  0.00     0.015 A 
HETATM   19  C   UNL     1      26.414  44.636  54.003  1.00  0.00     0.050 C 
HETATM   20  C   UNL     1      29.967  43.393  54.527  1.00  0.00    -0.061 A 
HETATM   21  C   UNL     1      31.030  43.471  55.582  1.00  0.00     0.048 C 
HETATM   22  C   UNL     1      30.178  42.646  53.369  1.00  0.00     0.009 A 
HETATM   23  C   UNL     1      29.178  42.540  52.398  1.00  0.00     0.030 A 
ENDBRANCH  13  16
ENDBRANCH   1  12
BRANCH   2  24
HETATM   24  C   UNL     1      26.627  41.110  48.945  1.00  0.00    -0.032 A 
HETATM   25  C   UNL     1      26.235  40.050  49.771  1.00  0.00     0.012 A 
HETATM   26  C   UNL     1      27.107  38.987  50.035  1.00  0.00     0.037 A 
HETATM   27  C   UNL     1      28.381  38.943  49.472  1.00  0.00     0.068 A 
HETATM   28  C   UNL     1      28.780  39.978  48.632  1.00  0.00     0.037 A 
HETATM   29  C   UNL     1      27.913  41.046  48.373  1.00  0.00     0.012 A 
BRANCH  27  30
HETATM   30  O   UNL     1      29.124  37.848  49.814  1.00  0.00    -0.356 OA
HETATM   31  C   UNL     1      29.978  37.977  50.943  1.00  0.00     0.210 C 
ENDBRANCH  27  30
ENDBRANCH   2  24
TORSDOF 4
ENDMDL
MODEL 3
REMARK VINA RESULT:      -8.0      2.735      5.764
REMARK  4 active torsions:
REMARK  status: ('A' for Active; 'I' for Inactive)
REMARK    1  A    between atoms: C_6  and  N_7 
REMARK       I    between atoms: N_7  and  C_8 
REMARK    2  A    between atoms: C_8  and  C_9 
REMARK    3  A    between atoms: C_10  and  C_11 
REMARK    4  A    between atoms: C_14  and  O_15 
ROOT
HETATM    1  C   UNL     1      26.559  42.107  49.773  1.00  0.00     0.131 C 
HETATM    2  C   UNL     1      27.339  41.142  48.841  1.00  0.00     0.177 C 
HETATM    3  N   UNL     1      26.632  40.995  47.573  1.00  0.00    -0.088 N 
HETATM    4  C   UNL     1      25.318  41.306  47.371  1.00  0.00     0.721 A 
HETATM    5  N   UNL     1      24.562  41.840  48.345  1.00  0.00    -0.218 N 
HETATM    6  C   UNL     1      25.028  41.872  49.730  1.00  0.00     0.111 C 
HETATM    7  C   UNL     1      24.261  43.001  50.434  1.00  0.00     0.034 C 
HETATM    8  N   UNL     1      27.236  40.630  46.423  1.00  0.00    -0.149 NA
HETATM    9  C   UNL     1      26.191  40.640  45.587  1.00  0.00     0.275 A 
HETATM   10  N   UNL     1      25.003  41.053  46.127  1.00  0.00    -0.055 NA
HETATM   11  H   UNL     1      23.555  41.836  48.193  1.00  0.00     0.178 HD
ENDROOT
BRANCH   1  12
HETATM   12  C   UNL     1      27.117  42.068  51.190  1.00  0.00     0.230 C 
HETATM   13  N   UNL     1      27.965  43.130  51.462  1.00  0.00    -0.326 N 
HETATM   14  H   UNL     1      28.055  43.841  50.750  1.00  0.00     0.169 HD
HETATM   15  O   UNL     1      26.808  41.167  51.962  1.00  0.00    -0.273 OA
BRANCH  13  16
HETATM   16  C   UNL     1      28.686  43.381  52.657  1.00  0.00     0.040 A 
HETATM   17  C   UNL     1      28.194  44.351  53.558  1.00  0.00    -0.035 A 
HETATM   18  C   UNL     1      28.892  44.605  54.754  1.00  0.00     0.015 A 
HETATM   19  C   UNL     1      26.933  45.133  53.297  1.00  0.00     0.050 C 
HETATM   20  C   UNL     1      30.076  43.927  55.063  1.00  0.00    -0.061 A 
HETATM   21  C   UNL     1      30.792  44.178  56.356  1.00  0.00     0.048 C 
HETATM   22  C   UNL     1      30.552  42.971  54.169  1.00  0.00     0.009 A 
HETATM   23  C   UNL     1      29.869  42.706  52.978  1.00  0.00     0.030 A 
ENDBRANCH  13  16
ENDBRANCH   1  12
BRANCH   2  24
HETATM   24  C   UNL     1      27.767  39.769  49.356  1.00  0.00    -0.032 A 
HETATM   25  C   UNL     1      29.053  39.473  49.823  1.00  0.00     0.012 A 
HETATM   26  C   UNL     1      29.369  38.190  50.286  1.00  0.00     0.037 A 
HETATM   27  C   UNL     1      28.412  37.177  50.312  1.00  0.00     0.068 A 
HETATM   28  C   UNL     1      27.124  37.459  49.871  1.00  0.00     0.037 A 
HETATM   29  C   UNL     1      26.807  38.740  49.400  1.00  0.00     0.012 A 
BRANCH  27  30
HETATM   30  O   UNL     1      28.858  35.976  50.790  1.00  0.00    -0.356 OA
HETATM   31  C   UNL     1      29.879  36.018  51.778  1.00  0.00     0.210 C 
ENDBRANCH  27  30
ENDBRANCH   2  24
TORSDOF 4
ENDMDL
MODEL 4
REMARK VINA RESULT:      -7.9     16.240     18.161
REMARK  4 active torsions:
REMARK  status: ('A' for Active; 'I' for Inactive)
REMARK    1  A    between atoms: C_6  and  N_7 
REMARK       I    between atoms: N_7  and  C_8 
REMARK    2  A    between atoms: C_8  and  C_9 
REMARK    3  A    between atoms: C_10  and  C_11 
REMARK    4  A    between atoms: C_14  and  O_15 
ROOT
HETATM    1  C   UNL     1      37.450  43.727  63.933  1.00  0.00     0.131 C 
HETATM    2  C   UNL     1      38.833  43.129  63.560  1.00  0.00     0.177 C 
HETATM    3  N   UNL     1      38.854  41.701  63.857  1.00  0.00    -0.088 N 
HETATM    4  C   UNL     1      37.982  41.063  64.693  1.00  0.00     0.721 A 
HETATM    5  N   UNL     1      36.969  41.717  65.286  1.00  0.00    -0.218 N 
HETATM    6  C   UNL     1      36.904  43.177  65.275  1.00  0.00     0.111 C 
HETATM    7  C   UNL     1      35.433  43.561  65.489  1.00  0.00     0.034 C 
HETATM    8  N   UNL     1      39.683  40.827  63.248  1.00  0.00    -0.149 NA
HETATM    9  C   UNL     1      39.322  39.689  63.852  1.00  0.00     0.275 A 
HETATM   10  N   UNL     1      38.283  39.791  64.737  1.00  0.00    -0.055 NA
HETATM   11  H   UNL     1      36.507  41.236  66.055  1.00  0.00     0.178 HD
ENDROOT
BRANCH   1  12
HETATM   12  C   UNL     1      37.484  45.248  63.895  1.00  0.00     0.230 C 
HETATM   13  N   UNL     1      38.045  45.802  65.036  1.00  0.00    -0.326 N 
HETATM   14  H   UNL     1      38.438  45.162  65.712  1.00  0.00     0.169 HD
HETATM   15  O   UNL     1      37.049  45.863  62.927  1.00  0.00    -0.273 OA
BRANCH  13  16
HETATM   16  C   UNL     1      38.195  47.176  65.350  1.00  0.00     0.040 A 
HETATM   17  C   UNL     1      37.135  47.843  66.004  1.00  0.00    -0.035 A 
HETATM   18  C   UNL     1      37.271  49.206  66.333  1.00  0.00     0.015 A 
HETATM   19  C   UNL     1      35.850  47.153  66.377  1.00  0.00     0.050 C 
HETATM   20  C   UNL     1      38.429  49.920  66.011  1.00  0.00    -0.061 A 
HETATM   21  C   UNL     1      38.579  51.360  66.398  1.00  0.00     0.048 C 
HETATM   22  C   UNL     1      39.470  49.252  65.368  1.00  0.00     0.009 A 
HETATM   23  C   UNL     1      39.351  47.899  65.036  1.00  0.00     0.030 A 
ENDBRANCH  13  16
ENDBRANCH   1  12
BRANCH   2  24
HETATM   24  C   UNL     1      40.109  43.785  64.083  1.00  0.00    -0.032 A 
HETATM   25  C   UNL     1      40.919  44.639  63.326  1.00  0.00     0.012 A 
HETATM   26  C   UNL     1      42.073  45.208  63.877  1.00  0.00     0.037 A 
HETATM   27  C   UNL     1      42.441  44.955  65.198  1.00  0.00     0.068 A 
HETATM   28  C   UNL     1      41.637  44.124  65.971  1.00  0.00     0.037 A 
HETATM   29  C   UNL     1      40.487  43.549  65.419  1.00  0.00     0.012 A 
BRANCH  27  30
HETATM   30  O   UNL     1      43.588  45.577  65.605  1.00  0.00    -0.356 OA
HETATM   31  C   UNL     1      44.235  46.415  64.656  1.00  0.00     0.210 C 
ENDBRANCH  27  30
ENDBRANCH   2  24
TORSDOF 4
ENDMDL
MODEL 5
REMARK VINA RESULT:      -7.7      5.258      8.354
REMARK  4 active torsions:
REMARK  status: ('A' for Active; 'I' for Inactive)
REMARK    1  A    between atoms: C_6  and  N_7 
REMARK       I    between atoms: N_7  and  C_8 
REMARK    2  A    between atoms: C_8  and  C_9 
REMARK    3  A    between atoms: C_10  and  C_11 
REMARK    4  A    between atoms: C_14  and  O_15 
ROOT
HETATM    1  C   UNL     1      20.578  47.387  48.185  1.00  0.00     0.131 C 
HETATM    2  C   UNL     1      21.251  48.448  49.095  1.00  0.00     0.177 C 
HETATM    3  N   UNL     1      20.367  49.599  49.255  1.00  0.00    -0.088 N 
HETATM    4  C   UNL     1      19.316  49.897  48.436  1.00  0.00     0.721 A 
HETATM    5  N   UNL     1      18.970  49.096  47.413  1.00  0.00    -0.218 N 
HETATM    6  C   UNL     1      19.850  48.015  46.971  1.00  0.00     0.111 C 
HETATM    7  C   UNL     1      18.967  46.990  46.245  1.00  0.00     0.034 C 
HETATM    8  N   UNL     1      20.430  50.444  50.304  1.00  0.00    -0.149 NA
HETATM    9  C   UNL     1      19.447  51.295  49.989  1.00  0.00     0.275 A 
HETATM   10  N   UNL     1      18.739  50.991  48.858  1.00  0.00    -0.055 NA
HETATM   11  H   UNL     1      18.332  49.489  46.724  1.00  0.00     0.178 HD
ENDROOT
BRANCH   1  12
HETATM   12  C   UNL     1      21.572  46.308  47.778  1.00  0.00     0.230 C 
HETATM   13  N   UNL     1      21.683  45.296  48.719  1.00  0.00    -0.326 N 
HETATM   14  H   UNL     1      21.053  45.331  49.508  1.00  0.00     0.169 HD
HETATM   15  O   UNL     1      22.177  46.381  46.713  1.00  0.00    -0.273 OA
BRANCH  13  16
HETATM   16  C   UNL     1      22.539  44.166  48.682  1.00  0.00     0.040 A 
HETATM   17  C   UNL     1      23.620  44.103  49.588  1.00  0.00    -0.035 A 
HETATM   18  C   UNL     1      24.474  42.984  49.573  1.00  0.00     0.015 A 
HETATM   19  C   UNL     1      23.902  45.191  50.591  1.00  0.00     0.050 C 
HETATM   20  C   UNL     1      24.285  41.937  48.665  1.00  0.00    -0.061 A 
HETATM   21  C   UNL     1      25.177  40.733  48.680  1.00  0.00     0.048 C 
HETATM   22  C   UNL     1      23.214  42.008  47.776  1.00  0.00     0.009 A 
HETATM   23  C   UNL     1      22.356  43.113  47.780  1.00  0.00     0.030 A 
ENDBRANCH  13  16
ENDBRANCH   1  12
BRANCH   2  24
HETATM   24  C   UNL     1      22.668  48.925  48.785  1.00  0.00    -0.032 A 
HETATM   25  C   UNL     1      22.970  49.955  47.887  1.00  0.00     0.012 A 
HETATM   26  C   UNL     1      24.296  50.341  47.658  1.00  0.00     0.037 A 
HETATM   27  C   UNL     1      25.352  49.725  48.328  1.00  0.00     0.068 A 
HETATM   28  C   UNL     1      25.069  48.713  49.240  1.00  0.00     0.037 A 
HETATM   29  C   UNL     1      23.744  48.320  49.464  1.00  0.00     0.012 A 
BRANCH  27  30
HETATM   30  O   UNL     1      26.593  50.202  48.010  1.00  0.00    -0.356 OA
HETATM   31  C   UNL     1      27.671  49.790  48.840  1.00  0.00     0.210 C 
ENDBRANCH  27  30
ENDBRANCH   2  24
TORSDOF 4
ENDMDL
MODEL 6
REMARK VINA RESULT:      -7.6      4.744      8.667
REMARK  4 active torsions:
REMARK  status: ('A' for Active; 'I' for Inactive)
REMARK    1  A    between atoms: C_6  and  N_7 
REMARK       I    between atoms: N_7  and  C_8 
REMARK    2  A    between atoms: C_8  and  C_9 
REMARK    3  A    between atoms: C_10  and  C_11 
REMARK    4  A    between atoms: C_14  and  O_15 
ROOT
HETATM    1  C   UNL     1      24.171  47.065  49.905  1.00  0.00     0.131 C 
HETATM    2  C   UNL     1      23.626  45.623  50.087  1.00  0.00     0.177 C 
HETATM    3  N   UNL     1      24.659  44.771  50.666  1.00  0.00    -0.088 N 
HETATM    4  C   UNL     1      25.995  45.055  50.674  1.00  0.00     0.721 A 
HETATM    5  N   UNL     1      26.472  46.209  50.175  1.00  0.00    -0.218 N 
HETATM    6  C   UNL     1      25.626  47.091  49.374  1.00  0.00     0.111 C 
HETATM    7  C   UNL     1      26.237  48.498  49.463  1.00  0.00     0.034 C 
HETATM    8  N   UNL     1      24.390  43.645  51.361  1.00  0.00    -0.149 NA
HETATM    9  C   UNL     1      25.631  43.246  51.664  1.00  0.00     0.275 A 
HETATM   10  N   UNL     1      26.637  44.084  51.267  1.00  0.00    -0.055 NA
HETATM   11  H   UNL     1      27.476  46.252  50.014  1.00  0.00     0.178 HD
ENDROOT
BRANCH   1  12
HETATM   12  C   UNL     1      23.224  47.904  49.058  1.00  0.00     0.230 C 
HETATM   13  N   UNL     1      22.336  48.647  49.820  1.00  0.00    -0.326 N 
HETATM   14  H   UNL     1      22.461  48.625  50.822  1.00  0.00     0.169 HD
HETATM   15  O   UNL     1      23.291  47.883  47.833  1.00  0.00    -0.273 OA
BRANCH  13  16
HETATM   16  C   UNL     1      21.299  49.498  49.362  1.00  0.00     0.040 A 
HETATM   17  C   UNL     1      21.634  50.787  48.894  1.00  0.00    -0.035 A 
HETATM   18  C   UNL     1      20.616  51.642  48.425  1.00  0.00     0.015 A 
HETATM   19  C   UNL     1      23.051  51.297  48.866  1.00  0.00     0.050 C 
HETATM   20  C   UNL     1      19.275  51.245  48.428  1.00  0.00    -0.061 A 
HETATM   21  C   UNL     1      18.204  52.147  47.893  1.00  0.00     0.048 C 
HETATM   22  C   UNL     1      18.956  49.970  48.890  1.00  0.00     0.009 A 
HETATM   23  C   UNL     1      19.955  49.110  49.357  1.00  0.00     0.030 A 
ENDBRANCH  13  16
ENDBRANCH   1  12
BRANCH   2  24
HETATM   24  C   UNL     1      22.966  44.907  48.910  1.00  0.00    -0.032 A 
HETATM   25  C   UNL     1      21.588  44.909  48.664  1.00  0.00     0.012 A 
HETATM   26  C   UNL     1      21.057  44.234  47.559  1.00  0.00     0.037 A 
HETATM   27  C   UNL     1      21.882  43.555  46.664  1.00  0.00     0.068 A 
HETATM   28  C   UNL     1      23.256  43.559  46.882  1.00  0.00     0.037 A 
HETATM   29  C   UNL     1      23.788  44.228  47.990  1.00  0.00     0.012 A 
BRANCH  27  30
HETATM   30  O   UNL     1      21.229  42.942  45.631  1.00  0.00    -0.356 OA
HETATM   31  C   UNL     1      19.808  42.983  45.655  1.00  0.00     0.210 C 
ENDBRANCH  27  30
ENDBRANCH   2  24
TORSDOF 4
ENDMDL
MODEL 7
REMARK VINA RESULT:      -7.5     12.366     15.224
REMARK  4 active torsions:
REMARK  status: ('A' for Active; 'I' for Inactive)
REMARK    1  A    between atoms: C_6  and  N_7 
REMARK       I    between atoms: N_7  and  C_8 
REMARK    2  A    between atoms: C_8  and  C_9 
REMARK    3  A    between atoms: C_10  and  C_11 
REMARK    4  A    between atoms: C_14  and  O_15 
ROOT
HETATM    1  C   UNL     1      28.184  50.732  39.760  1.00  0.00     0.131 C 
HETATM    2  C   UNL     1      28.849  49.641  40.641  1.00  0.00     0.177 C 
HETATM    3  N   UNL     1      30.082  50.157  41.226  1.00  0.00    -0.088 N 
HETATM    4  C   UNL     1      30.766  51.249  40.772  1.00  0.00     0.721 A 
HETATM    5  N   UNL     1      30.310  51.989  39.747  1.00  0.00    -0.218 N 
HETATM    6  C   UNL     1      29.211  51.519  38.906  1.00  0.00     0.111 C 
HETATM    7  C   UNL     1      28.579  52.760  38.260  1.00  0.00     0.034 C 
HETATM    8  N   UNL     1      30.630  49.668  42.358  1.00  0.00    -0.149 NA
HETATM    9  C   UNL     1      31.709  50.452  42.465  1.00  0.00     0.275 A 
HETATM   10  N   UNL     1      31.824  51.434  41.518  1.00  0.00    -0.055 NA
HETATM   11  H   UNL     1      30.972  52.639  39.327  1.00  0.00     0.178 HD
ENDROOT
BRANCH   1  12
HETATM   12  C   UNL     1      27.055  50.146  38.924  1.00  0.00     0.230 C 
HETATM   13  N   UNL     1      25.882  49.983  39.643  1.00  0.00    -0.326 N 
HETATM   14  H   UNL     1      25.870  50.337  40.589  1.00  0.00     0.169 HD
HETATM   15  O   UNL     1      27.228  49.870  37.741  1.00  0.00    -0.273 OA
BRANCH  13  16
HETATM   16  C   UNL     1      24.657  49.429  39.193  1.00  0.00     0.040 A 
HETATM   17  C   UNL     1      24.204  48.222  39.769  1.00  0.00    -0.035 A 
HETATM   18  C   UNL     1      22.984  47.663  39.341  1.00  0.00     0.015 A 
HETATM   19  C   UNL     1      24.974  47.496  40.841  1.00  0.00     0.050 C 
HETATM   20  C   UNL     1      22.217  48.271  38.343  1.00  0.00    -0.061 A 
HETATM   21  C   UNL     1      20.902  47.689  37.920  1.00  0.00     0.048 C 
HETATM   22  C   UNL     1      22.671  49.464  37.782  1.00  0.00     0.009 A 
HETATM   23  C   UNL     1      23.880  50.032  38.198  1.00  0.00     0.030 A 
ENDBRANCH  13  16
ENDBRANCH   1  12
BRANCH   2  24
HETATM   24  C   UNL     1      29.094  48.247  40.067  1.00  0.00    -0.032 A 
HETATM   25  C   UNL     1      30.012  47.969  39.047  1.00  0.00     0.012 A 
HETATM   26  C   UNL     1      30.185  46.662  38.576  1.00  0.00     0.037 A 
HETATM   27  C   UNL     1      29.464  45.599  39.118  1.00  0.00     0.068 A 
HETATM   28  C   UNL     1      28.562  45.854  40.145  1.00  0.00     0.037 A 
HETATM   29  C   UNL     1      28.382  47.162  40.613  1.00  0.00     0.012 A 
BRANCH  27  30
HETATM   30  O   UNL     1      29.735  44.379  38.565  1.00  0.00    -0.356 OA
HETATM   31  C   UNL     1      29.535  44.251  37.163  1.00  0.00     0.210 C 
ENDBRANCH  27  30
ENDBRANCH   2  24
TORSDOF 4
ENDMDL
MODEL 8
REMARK VINA RESULT:      -7.4      5.086      8.863
REMARK  4 active torsions:
REMARK  status: ('A' for Active; 'I' for Inactive)
REMARK    1  A    between atoms: C_6  and  N_7 
REMARK       I    between atoms: N_7  and  C_8 
REMARK    2  A    between atoms: C_8  and  C_9 
REMARK    3  A    between atoms: C_10  and  C_11 
REMARK    4  A    between atoms: C_14  and  O_15 
ROOT
HETATM    1  C   UNL     1      23.697  46.925  49.685  1.00  0.00     0.131 C 
HETATM    2  C   UNL     1      23.027  45.527  49.632  1.00  0.00     0.177 C 
HETATM    3  N   UNL     1      23.943  44.515  50.147  1.00  0.00    -0.088 N 
HETATM    4  C   UNL     1      25.294  44.675  50.273  1.00  0.00     0.721 A 
HETATM    5  N   UNL     1      25.896  45.837  49.970  1.00  0.00    -0.218 N 
HETATM    6  C   UNL     1      25.184  46.891  49.250  1.00  0.00     0.111 C 
HETATM    7  C   UNL     1      25.899  48.212  49.570  1.00  0.00     0.034 C 
HETATM    8  N   UNL     1      23.536  43.336  50.661  1.00  0.00    -0.149 NA
HETATM    9  C   UNL     1      24.715  42.790  50.980  1.00  0.00     0.275 A 
HETATM   10  N   UNL     1      25.812  43.579  50.763  1.00  0.00    -0.055 NA
HETATM   11  H   UNL     1      26.910  45.812  49.875  1.00  0.00     0.178 HD
ENDROOT
BRANCH   1  12
HETATM   12  C   UNL     1      22.884  47.951  48.908  1.00  0.00     0.230 C 
HETATM   13  N   UNL     1      21.929  48.583  49.690  1.00  0.00    -0.326 N 
HETATM   14  H   UNL     1      21.928  48.369  50.677  1.00  0.00     0.169 HD
HETATM   15  O   UNL     1      23.100  48.154  47.718  1.00  0.00    -0.273 OA
BRANCH  13  16
HETATM   16  C   UNL     1      20.978  49.553  49.283  1.00  0.00     0.040 A 
HETATM   17  C   UNL     1      19.613  49.193  49.247  1.00  0.00    -0.035 A 
HETATM   18  C   UNL     1      18.653  50.147  48.855  1.00  0.00     0.015 A 
HETATM   19  C   UNL     1      19.127  47.816  49.619  1.00  0.00     0.050 C 
HETATM   20  C   UNL     1      19.026  51.443  48.485  1.00  0.00    -0.061 A 
HETATM   21  C   UNL     1      17.994  52.462  48.106  1.00  0.00     0.048 C 
HETATM   22  C   UNL     1      20.375  51.789  48.527  1.00  0.00     0.009 A 
HETATM   23  C   UNL     1      21.339  50.853  48.915  1.00  0.00     0.030 A 
ENDBRANCH  13  16
ENDBRANCH   1  12
BRANCH   2  24
HETATM   24  C   UNL     1      22.396  45.037  48.330  1.00  0.00    -0.032 A 
HETATM   25  C   UNL     1      23.127  44.577  47.229  1.00  0.00     0.012 A 
HETATM   26  C   UNL     1      22.477  44.137  46.070  1.00  0.00     0.037 A 
HETATM   27  C   UNL     1      21.086  44.128  45.983  1.00  0.00     0.068 A 
HETATM   28  C   UNL     1      20.342  44.562  47.076  1.00  0.00     0.037 A 
HETATM   29  C   UNL     1      20.991  45.010  48.233  1.00  0.00     0.012 A 
BRANCH  27  30
HETATM   30  O   UNL     1      20.586  43.671  44.795  1.00  0.00    -0.356 OA
HETATM   31  C   UNL     1      19.437  42.837  44.861  1.00  0.00     0.210 C 
ENDBRANCH  27  30
ENDBRANCH   2  24
TORSDOF 4
ENDMDL
MODEL 9
REMARK VINA RESULT:      -7.3     10.061     13.911
REMARK  4 active torsions:
REMARK  status: ('A' for Active; 'I' for Inactive)
REMARK    1  A    between atoms: C_6  and  N_7 
REMARK       I    between atoms: N_7  and  C_8 
REMARK    2  A    between atoms: C_8  and  C_9 
REMARK    3  A    between atoms: C_10  and  C_11 
REMARK    4  A    between atoms: C_14  and  O_15 
ROOT
HETATM    1  C   UNL     1      15.550  51.187  47.171  1.00  0.00     0.131 C 
HETATM    2  C   UNL     1      16.034  51.359  48.635  1.00  0.00     0.177 C 
HETATM    3  N   UNL     1      15.454  52.567  49.213  1.00  0.00    -0.088 N 
HETATM    4  C   UNL     1      14.915  53.596  48.494  1.00  0.00     0.721 A 
HETATM    5  N   UNL     1      14.827  53.548  47.153  1.00  0.00    -0.218 N 
HETATM    6  C   UNL     1      15.532  52.523  46.387  1.00  0.00     0.111 C 
HETATM    7  C   UNL     1      14.797  52.383  45.046  1.00  0.00     0.034 C 
HETATM    8  N   UNL     1      15.291  52.753  50.539  1.00  0.00    -0.149 NA
HETATM    9  C   UNL     1      14.740  53.973  50.547  1.00  0.00     0.275 A 
HETATM   10  N   UNL     1      14.490  54.518  49.317  1.00  0.00    -0.055 NA
HETATM   11  H   UNL     1      14.624  54.427  46.681  1.00  0.00     0.178 HD
ENDROOT
BRANCH   1  12
HETATM   12  C   UNL     1      16.344  50.100  46.458  1.00  0.00     0.230 C 
HETATM   13  N   UNL     1      15.880  48.824  46.738  1.00  0.00    -0.326 N 
HETATM   14  H   UNL     1      15.041  48.753  47.296  1.00  0.00     0.169 HD
HETATM   15  O   UNL     1      17.282  50.388  45.723  1.00  0.00    -0.273 OA
BRANCH  13  16
HETATM   16  C   UNL     1      16.406  47.590  46.282  1.00  0.00     0.040 A 
HETATM   17  C   UNL     1      17.031  46.732  47.214  1.00  0.00    -0.035 A 
HETATM   18  C   UNL     1      17.551  45.497  46.780  1.00  0.00     0.015 A 
HETATM   19  C   UNL     1      17.164  47.079  48.673  1.00  0.00     0.050 C 
HETATM   20  C   UNL     1      17.476  45.107  45.439  1.00  0.00    -0.061 A 
HETATM   21  C   UNL     1      17.999  43.775  44.993  1.00  0.00     0.048 C 
HETATM   22  C   UNL     1      16.855  45.960  44.528  1.00  0.00     0.009 A 
HETATM   23  C   UNL     1      16.333  47.189  44.944  1.00  0.00     0.030 A 
ENDBRANCH  13  16
ENDBRANCH   1  12
BRANCH   2  24
HETATM   24  C   UNL     1      17.527  51.300  48.953  1.00  0.00    -0.032 A 
HETATM   25  C   UNL     1      18.482  52.161  48.398  1.00  0.00     0.012 A 
HETATM   26  C   UNL     1      19.834  52.049  48.742  1.00  0.00     0.037 A 
HETATM   27  C   UNL     1      20.268  51.093  49.659  1.00  0.00     0.068 A 
HETATM   28  C   UNL     1      19.330  50.243  50.236  1.00  0.00     0.037 A 
HETATM   29  C   UNL     1      17.978  50.348  49.887  1.00  0.00     0.012 A 
BRANCH  27  30
HETATM   30  O   UNL     1      21.612  51.098  49.904  1.00  0.00    -0.356 OA
HETATM   31  C   UNL     1      22.470  50.955  48.779  1.00  0.00     0.210 C 
ENDBRANCH  27  30
ENDBRANCH   2  24
TORSDOF 4
ENDMDL
MODEL 10
REMARK VINA RESULT:      -7.1     16.345     19.246
REMARK  4 active torsions:
REMARK  status: ('A' for Active; 'I' for Inactive)
REMARK    1  A    between atoms: C_6  and  N_7 
REMARK       I    between atoms: N_7  and  C_8 
REMARK    2  A    between atoms: C_8  and  C_9 
REMARK    3  A    between atoms: C_10  and  C_11 
REMARK    4  A    between atoms: C_14  and  O_15 
ROOT
HETATM    1  C   UNL     1      37.745  48.625  65.227  1.00  0.00     0.131 C 
HETATM    2  C   UNL     1      36.997  48.658  66.586  1.00  0.00     0.177 C 
HETATM    3  N   UNL     1      37.474  49.778  67.389  1.00  0.00    -0.088 N 
HETATM    4  C   UNL     1      38.649  50.443  67.184  1.00  0.00     0.721 A 
HETATM    5  N   UNL     1      39.460  50.139  66.156  1.00  0.00    -0.218 N 
HETATM    6  C   UNL     1      39.258  48.923  65.370  1.00  0.00     0.111 C 
HETATM    7  C   UNL     1      39.922  49.159  64.006  1.00  0.00     0.034 C 
HETATM    8  N   UNL     1      36.746  50.354  68.369  1.00  0.00    -0.149 NA
HETATM    9  C   UNL     1      37.600  51.297  68.783  1.00  0.00     0.275 A 
HETATM   10  N   UNL     1      38.771  51.387  68.080  1.00  0.00    -0.055 NA
HETATM   11  H   UNL     1      40.405  50.516  66.197  1.00  0.00     0.178 HD
ENDROOT
BRANCH   1  12
HETATM   12  C   UNL     1      37.473  47.323  64.485  1.00  0.00     0.230 C 
HETATM   13  N   UNL     1      38.451  46.365  64.705  1.00  0.00    -0.326 N 
HETATM   14  H   UNL     1      39.171  46.589  65.378  1.00  0.00     0.169 HD
HETATM   15  O   UNL     1      36.475  47.195  63.784  1.00  0.00    -0.273 OA
BRANCH  13  16
HETATM   16  C   UNL     1      38.536  45.066  64.143  1.00  0.00     0.040 A 
HETATM   17  C   UNL     1      39.801  44.578  63.749  1.00  0.00    -0.035 A 
HETATM   18  C   UNL     1      39.906  43.285  63.198  1.00  0.00     0.015 A 
HETATM   19  C   UNL     1      41.065  45.384  63.900  1.00  0.00     0.050 C 
HETATM   20  C   UNL     1      38.778  42.479  63.017  1.00  0.00    -0.061 A 
HETATM   21  C   UNL     1      38.904  41.092  62.464  1.00  0.00     0.048 C 
HETATM   22  C   UNL     1      37.534  42.970  63.411  1.00  0.00     0.009 A 
HETATM   23  C   UNL     1      37.415  44.250  63.961  1.00  0.00     0.030 A 
ENDBRANCH  13  16
ENDBRANCH   1  12
BRANCH   2  24
HETATM   24  C   UNL     1      36.930  47.397  67.446  1.00  0.00    -0.032 A 
HETATM   25  C   UNL     1      37.989  46.924  68.229  1.00  0.00     0.012 A 
HETATM   26  C   UNL     1      37.850  45.762  68.997  1.00  0.00     0.037 A 
HETATM   27  C   UNL     1      36.651  45.052  69.019  1.00  0.00     0.068 A 
HETATM   28  C   UNL     1      35.581  45.518  68.262  1.00  0.00     0.037 A 
HETATM   29  C   UNL     1      35.720  46.676  67.488  1.00  0.00     0.012 A 
BRANCH  27  30
HETATM   30  O   UNL     1      36.655  43.939  69.813  1.00  0.00    -0.356 OA
HETATM   31  C   UNL     1      35.816  43.966  70.960  1.00  0.00     0.210 C 
ENDBRANCH  27  30
ENDBRANCH   2  24
TORSDOF 4
ENDMDL
