MODEL 1
REMARK VINA RESULT:      -9.5      0.000      0.000
REMARK  8 active torsions:
REMARK  status: ('A' for Active; 'I' for Inactive)
REMARK    1  A    between atoms: C_2  and  C_3 
REMARK    2  A    between atoms: C_3  and  C_4 
REMARK       I    between atoms: C_4  and  N_5 
REMARK    3  A    between atoms: N_8  and  C_9 
REMARK    4  A    between atoms: C_13  and  N_14 
REMARK    5  A    between atoms: N_14  and  C_15 
REMARK    6  A    between atoms: C_15  and  N_16 
REMARK       I    between atoms: N_16  and  C_17 
REMARK    7  A    between atoms: C_17  and  C_18 
REMARK    8  A    between atoms: C_19  and  O_20 
ROOT
HETATM    1  C   UNL     1      23.401  47.151  49.205  1.00  0.00     0.052 A 
HETATM    2  C   UNL     1      23.325  45.770  48.920  1.00  0.00     0.062 A 
HETATM    3 CL   UNL     1      21.893  44.973  48.352  1.00  0.00    -0.082 Cl
HETATM    4  C   UNL     1      24.424  44.918  49.132  1.00  0.00     0.055 A 
HETATM    5  C   UNL     1      25.611  45.396  49.681  1.00  0.00     0.036 A 
HETATM    6  C   UNL     1      25.686  46.735  50.050  1.00  0.00     0.032 A 
HETATM    7  C   UNL     1      24.603  47.591  49.803  1.00  0.00     0.033 A 
ENDROOT
BRANCH   5   8
HETATM    8  N   UNL     1      26.713  44.512  49.726  1.00  0.00    -0.333 N 
HETATM    9  H   UNL     1      27.407  44.667  49.003  1.00  0.00     0.168 HD
BRANCH   8  10
HETATM   10  C   UNL     1      27.148  43.789  50.786  1.00  0.00     0.179 C 
HETATM   11  S   UNL     1      26.773  42.165  50.902  1.00  0.00    -0.040 SA
BRANCH  10  12
HETATM   12  N   UNL     1      27.829  44.378  51.811  1.00  0.00    -0.299 N 
HETATM   13  C   UNL     1      27.460  44.263  53.150  1.00  0.00     0.260 C 
HETATM   14  O   UNL     1      26.318  44.188  53.583  1.00  0.00    -0.267 OA
HETATM   15  H   UNL     1      28.825  44.373  51.640  1.00  0.00     0.171 HD
BRANCH  13  16
HETATM   16  C   UNL     1      28.609  44.269  54.097  1.00  0.00     0.066 A 
HETATM   17  C   UNL     1      28.691  45.150  55.189  1.00  0.00     0.089 A 
HETATM   18  C   UNL     1      29.766  45.034  56.096  1.00  0.00    -0.028 A 
HETATM   19  C   UNL     1      29.856  45.930  57.302  1.00  0.00     0.051 C 
HETATM   20  C   UNL     1      30.754  44.061  55.885  1.00  0.00     0.009 A 
HETATM   21  C   UNL     1      30.673  43.192  54.800  1.00  0.00     0.002 A 
HETATM   22  C   UNL     1      29.601  43.286  53.917  1.00  0.00     0.020 A 
BRANCH  17  23
HETATM   23  O   UNL     1      27.755  46.099  55.509  1.00  0.00    -0.354 OA
HETATM   24  C   UNL     1      27.878  47.336  54.812  1.00  0.00     0.210 C 
ENDBRANCH  17  23
ENDBRANCH  13  16
ENDBRANCH  10  12
ENDBRANCH   8  10
ENDBRANCH   5   8
BRANCH   1  25
HETATM   25  N   UNL     1      22.460  48.135  48.881  1.00  0.00    -0.376 N 
HETATM   26  C   UNL     1      21.860  48.077  47.531  1.00  0.00     0.143 C 
HETATM   27  C   UNL     1      20.481  48.769  47.533  1.00  0.00     0.145 C 
HETATM   28  N   UNL     1      20.493  50.108  48.143  1.00  0.00    -0.349 N 
HETATM   29  C   UNL     1      19.467  50.982  47.791  1.00  0.00     0.219 C 
HETATM   30  C   UNL     1      21.219  50.203  49.417  1.00  0.00     0.145 C 
HETATM   31  O   UNL     1      18.662  50.719  46.898  1.00  0.00    -0.273 OA
HETATM   32  C   UNL     1      22.593  49.510  49.384  1.00  0.00     0.143 C 
BRANCH  29  33
HETATM   33  C   UNL     1      19.409  52.302  48.550  1.00  0.00     0.103 C 
BRANCH  33  34
HETATM   34  C   UNL     1      18.097  52.494  49.308  1.00  0.00     0.005 C 
HETATM   35  C   UNL     1      17.638  51.197  49.957  1.00  0.00     0.005 C 
ENDBRANCH  33  34
ENDBRANCH  29  33
ENDBRANCH   1  25
TORSDOF 8
ENDMDL
MODEL 2
REMARK VINA RESULT:      -9.4      1.330      1.702
REMARK  8 active torsions:
REMARK  status: ('A' for Active; 'I' for Inactive)
REMARK    1  A    between atoms: C_2  and  C_3 
REMARK    2  A    between atoms: C_3  and  C_4 
REMARK       I    between atoms: C_4  and  N_5 
REMARK    3  A    between atoms: N_8  and  C_9 
REMARK    4  A    between atoms: C_13  and  N_14 
REMARK    5  A    between atoms: N_14  and  C_15 
REMARK    6  A    between atoms: C_15  and  N_16 
REMARK       I    between atoms: N_16  and  C_17 
REMARK    7  A    between atoms: C_17  and  C_18 
REMARK    8  A    between atoms: C_19  and  O_20 
ROOT
HETATM    1  C   UNL     1      24.013  46.194  49.573  1.00  0.00     0.052 A 
HETATM    2  C   UNL     1      23.710  44.822  49.707  1.00  0.00     0.062 A 
HETATM    3 CL   UNL     1      22.102  44.173  49.656  1.00  0.00    -0.082 Cl
HETATM    4  C   UNL     1      24.718  43.870  49.946  1.00  0.00     0.055 A 
HETATM    5  C   UNL     1      26.046  44.253  50.113  1.00  0.00     0.036 A 
HETATM    6  C   UNL     1      26.362  45.607  50.070  1.00  0.00     0.032 A 
HETATM    7  C   UNL     1      25.362  46.551  49.793  1.00  0.00     0.033 A 
ENDROOT
BRANCH   5   8
HETATM    8  N   UNL     1      27.016  43.229  50.204  1.00  0.00    -0.333 N 
HETATM    9  H   UNL     1      27.870  43.411  49.689  1.00  0.00     0.168 HD
BRANCH   8  10
HETATM   10  C   UNL     1      27.120  42.274  51.159  1.00  0.00     0.179 C 
HETATM   11  S   UNL     1      26.698  40.694  50.813  1.00  0.00    -0.040 SA
BRANCH  10  12
HETATM   12  N   UNL     1      27.493  42.587  52.433  1.00  0.00    -0.299 N 
HETATM   13  C   UNL     1      28.790  42.430  52.919  1.00  0.00     0.260 C 
HETATM   14  O   UNL     1      29.577  41.547  52.610  1.00  0.00    -0.267 OA
HETATM   15  H   UNL     1      27.009  43.410  52.765  1.00  0.00     0.171 HD
BRANCH  13  16
HETATM   16  C   UNL     1      29.184  43.448  53.932  1.00  0.00     0.066 A 
HETATM   17  C   UNL     1      28.486  44.655  54.110  1.00  0.00     0.089 A 
HETATM   18  C   UNL     1      28.863  45.528  55.152  1.00  0.00    -0.028 A 
HETATM   19  C   UNL     1      28.105  46.805  55.400  1.00  0.00     0.051 C 
HETATM   20  C   UNL     1      29.946  45.197  55.982  1.00  0.00     0.009 A 
HETATM   21  C   UNL     1      30.638  44.003  55.801  1.00  0.00     0.002 A 
HETATM   22  C   UNL     1      30.253  43.127  54.790  1.00  0.00     0.020 A 
BRANCH  17  23
HETATM   23  O   UNL     1      27.389  45.046  53.387  1.00  0.00    -0.354 OA
HETATM   24  C   UNL     1      26.132  44.825  54.019  1.00  0.00     0.210 C 
ENDBRANCH  17  23
ENDBRANCH  13  16
ENDBRANCH  10  12
ENDBRANCH   8  10
ENDBRANCH   5   8
BRANCH   1  25
HETATM   25  N   UNL     1      23.150  47.215  49.161  1.00  0.00    -0.376 N 
HETATM   26  C   UNL     1      22.424  47.014  47.889  1.00  0.00     0.143 C 
HETATM   27  C   UNL     1      21.127  47.851  47.881  1.00  0.00     0.145 C 
HETATM   28  N   UNL     1      21.330  49.259  48.256  1.00  0.00    -0.349 N 
HETATM   29  C   UNL     1      20.368  50.178  47.842  1.00  0.00     0.219 C 
HETATM   30  C   UNL     1      22.177  49.469  49.438  1.00  0.00     0.145 C 
HETATM   31  O   UNL     1      19.460  49.871  47.069  1.00  0.00    -0.273 OA
HETATM   32  C   UNL     1      23.466  48.629  49.417  1.00  0.00     0.143 C 
BRANCH  29  33
HETATM   33  C   UNL     1      20.513  51.599  48.373  1.00  0.00     0.103 C 
BRANCH  33  34
HETATM   34  C   UNL     1      19.178  52.333  48.475  1.00  0.00     0.005 C 
HETATM   35  C   UNL     1      18.488  52.047  49.800  1.00  0.00     0.005 C 
ENDBRANCH  33  34
ENDBRANCH  29  33
ENDBRANCH   1  25
TORSDOF 8
ENDMDL
MODEL 3
REMARK VINA RESULT:      -9.3      2.313     10.971
REMARK  8 active torsions:
REMARK  status: ('A' for Active; 'I' for Inactive)
REMARK    1  A    between atoms: C_2  and  C_3 
REMARK    2  A    between atoms: C_3  and  C_4 
REMARK       I    between atoms: C_4  and  N_5 
REMARK    3  A    between atoms: N_8  and  C_9 
REMARK    4  A    between atoms: C_13  and  N_14 
REMARK    5  A    between atoms: N_14  and  C_15 
REMARK    6  A    between atoms: C_15  and  N_16 
REMARK       I    between atoms: N_16  and  C_17 
REMARK    7  A    between atoms: C_17  and  C_18 
REMARK    8  A    between atoms: C_19  and  O_20 
ROOT
HETATM    1  C   UNL     1      25.152  45.488  50.883  1.00  0.00     0.052 A 
HETATM    2  C   UNL     1      24.296  44.499  50.352  1.00  0.00     0.062 A 
HETATM    3 CL   UNL     1      24.427  42.807  50.712  1.00  0.00    -0.082 Cl
HETATM    4  C   UNL     1      23.282  44.825  49.434  1.00  0.00     0.055 A 
HETATM    5  C   UNL     1      23.120  46.130  48.973  1.00  0.00     0.036 A 
HETATM    6  C   UNL     1      24.004  47.109  49.414  1.00  0.00     0.032 A 
HETATM    7  C   UNL     1      24.989  46.789  50.359  1.00  0.00     0.033 A 
ENDROOT
BRANCH   5   8
HETATM    8  N   UNL     1      21.992  46.403  48.166  1.00  0.00    -0.333 N 
HETATM    9  H   UNL     1      22.109  46.171  47.186  1.00  0.00     0.168 HD
BRANCH   8  10
HETATM   10  C   UNL     1      20.706  46.543  48.567  1.00  0.00     0.179 C 
HETATM   11  S   UNL     1      19.602  45.321  48.281  1.00  0.00    -0.040 SA
BRANCH  10  12
HETATM   12  N   UNL     1      20.266  47.701  49.138  1.00  0.00    -0.299 N 
HETATM   13  C   UNL     1      20.557  48.968  48.636  1.00  0.00     0.260 C 
HETATM   14  O   UNL     1      21.594  49.309  48.085  1.00  0.00    -0.267 OA
HETATM   15  H   UNL     1      19.333  47.594  49.513  1.00  0.00     0.171 HD
BRANCH  13  16
HETATM   16  C   UNL     1      19.474  49.968  48.851  1.00  0.00     0.066 A 
HETATM   17  C   UNL     1      18.154  49.766  48.413  1.00  0.00     0.089 A 
HETATM   18  C   UNL     1      17.162  50.717  48.734  1.00  0.00    -0.028 A 
HETATM   19  C   UNL     1      15.730  50.506  48.322  1.00  0.00     0.051 C 
HETATM   20  C   UNL     1      17.508  51.865  49.463  1.00  0.00     0.009 A 
HETATM   21  C   UNL     1      18.816  52.065  49.893  1.00  0.00     0.002 A 
HETATM   22  C   UNL     1      19.793  51.117  49.599  1.00  0.00     0.020 A 
BRANCH  17  23
HETATM   23  O   UNL     1      17.706  48.659  47.739  1.00  0.00    -0.354 OA
HETATM   24  C   UNL     1      18.014  48.626  46.349  1.00  0.00     0.210 C 
ENDBRANCH  17  23
ENDBRANCH  13  16
ENDBRANCH  10  12
ENDBRANCH   8  10
ENDBRANCH   5   8
BRANCH   1  25
HETATM   25  N   UNL     1      26.074  45.339  51.926  1.00  0.00    -0.376 N 
HETATM   26  C   UNL     1      26.248  46.486  52.841  1.00  0.00     0.143 C 
HETATM   27  C   UNL     1      26.767  45.998  54.211  1.00  0.00     0.145 C 
HETATM   28  N   UNL     1      27.931  45.104  54.117  1.00  0.00    -0.349 N 
HETATM   29  C   UNL     1      28.743  44.987  55.244  1.00  0.00     0.219 C 
HETATM   30  C   UNL     1      27.822  44.048  53.100  1.00  0.00     0.145 C 
HETATM   31  O   UNL     1      28.596  45.706  56.232  1.00  0.00    -0.273 OA
HETATM   32  C   UNL     1      27.311  44.564  51.744  1.00  0.00     0.143 C 
BRANCH  29  33
HETATM   33  C   UNL     1      29.848  43.940  55.179  1.00  0.00     0.103 C 
BRANCH  33  34
HETATM   34  C   UNL     1      31.065  44.309  56.025  1.00  0.00     0.005 C 
HETATM   35  C   UNL     1      31.421  43.196  56.998  1.00  0.00     0.005 C 
ENDBRANCH  33  34
ENDBRANCH  29  33
ENDBRANCH   1  25
TORSDOF 8
ENDMDL
MODEL 4
REMARK VINA RESULT:      -9.3      2.551     11.119
REMARK  8 active torsions:
REMARK  status: ('A' for Active; 'I' for Inactive)
REMARK    1  A    between atoms: C_2  and  C_3 
REMARK    2  A    between atoms: C_3  and  C_4 
REMARK       I    between atoms: C_4  and  N_5 
REMARK    3  A    between atoms: N_8  and  C_9 
REMARK    4  A    between atoms: C_13  and  N_14 
REMARK    5  A    between atoms: N_14  and  C_15 
REMARK    6  A    between atoms: C_15  and  N_16 
REMARK       I    between atoms: N_16  and  C_17 
REMARK    7  A    between atoms: C_17  and  C_18 
REMARK    8  A    between atoms: C_19  and  O_20 
ROOT
HETATM    1  C   UNL     1      25.278  45.006  51.116  1.00  0.00     0.052 A 
HETATM    2  C   UNL     1      25.100  46.233  50.441  1.00  0.00     0.062 A 
HETATM    3 CL   UNL     1      26.102  47.629  50.683  1.00  0.00    -0.082 Cl
HETATM    4  C   UNL     1      24.039  46.424  49.538  1.00  0.00     0.055 A 
HETATM    5  C   UNL     1      23.092  45.427  49.317  1.00  0.00     0.036 A 
HETATM    6  C   UNL     1      23.194  44.238  50.033  1.00  0.00     0.032 A 
HETATM    7  C   UNL     1      24.274  44.035  50.904  1.00  0.00     0.033 A 
ENDROOT
BRANCH   5   8
HETATM    8  N   UNL     1      22.144  45.641  48.291  1.00  0.00    -0.333 N 
HETATM    9  H   UNL     1      22.310  45.105  47.446  1.00  0.00     0.168 HD
BRANCH   8  10
HETATM   10  C   UNL     1      20.886  46.126  48.418  1.00  0.00     0.179 C 
HETATM   11  S   UNL     1      19.573  45.149  48.080  1.00  0.00    -0.040 SA
BRANCH  10  12
HETATM   12  N   UNL     1      20.662  47.431  48.744  1.00  0.00    -0.299 N 
HETATM   13  C   UNL     1      21.194  48.508  48.036  1.00  0.00     0.260 C 
HETATM   14  O   UNL     1      22.286  48.544  47.486  1.00  0.00    -0.267 OA
HETATM   15  H   UNL     1      19.719  47.568  49.085  1.00  0.00     0.171 HD
BRANCH  13  16
HETATM   16  C   UNL     1      20.315  49.709  48.009  1.00  0.00     0.066 A 
HETATM   17  C   UNL     1      18.977  49.664  47.582  1.00  0.00     0.089 A 
HETATM   18  C   UNL     1      18.179  50.825  47.673  1.00  0.00    -0.028 A 
HETATM   19  C   UNL     1      16.730  50.796  47.269  1.00  0.00     0.051 C 
HETATM   20  C   UNL     1      18.735  52.016  48.161  1.00  0.00     0.009 A 
HETATM   21  C   UNL     1      20.062  52.060  48.580  1.00  0.00     0.002 A 
HETATM   22  C   UNL     1      20.846  50.910  48.516  1.00  0.00     0.020 A 
BRANCH  17  23
HETATM   23  O   UNL     1      18.328  48.542  47.136  1.00  0.00    -0.354 OA
HETATM   24  C   UNL     1      18.598  48.178  45.785  1.00  0.00     0.210 C 
ENDBRANCH  17  23
ENDBRANCH  13  16
ENDBRANCH  10  12
ENDBRANCH   8  10
ENDBRANCH   5   8
BRANCH   1  25
HETATM   25  N   UNL     1      26.375  44.619  51.894  1.00  0.00    -0.376 N 
HETATM   26  C   UNL     1      27.053  43.359  51.525  1.00  0.00     0.143 C 
HETATM   27  C   UNL     1      28.517  43.381  52.014  1.00  0.00     0.145 C 
HETATM   28  N   UNL     1      28.661  43.765  53.427  1.00  0.00    -0.349 N 
HETATM   29  C   UNL     1      29.828  43.377  54.081  1.00  0.00     0.219 C 
HETATM   30  C   UNL     1      27.869  44.934  53.836  1.00  0.00     0.145 C 
HETATM   31  O   UNL     1      30.647  42.617  53.562  1.00  0.00    -0.273 OA
HETATM   32  C   UNL     1      26.414  44.882  53.341  1.00  0.00     0.143 C 
BRANCH  29  33
HETATM   33  C   UNL     1      30.029  43.918  55.491  1.00  0.00     0.103 C 
BRANCH  33  34
HETATM   34  C   UNL     1      31.231  43.297  56.200  1.00  0.00     0.005 C 
HETATM   35  C   UNL     1      31.447  43.918  57.572  1.00  0.00     0.005 C 
ENDBRANCH  33  34
ENDBRANCH  29  33
ENDBRANCH   1  25
TORSDOF 8
ENDMDL
MODEL 5
REMARK VINA RESULT:      -9.0      2.367     10.400
REMARK  8 active torsions:
REMARK  status: ('A' for Active; 'I' for Inactive)
REMARK    1  A    between atoms: C_2  and  C_3 
REMARK    2  A    between atoms: C_3  and  C_4 
REMARK       I    between atoms: C_4  and  N_5 
REMARK    3  A    between atoms: N_8  and  C_9 
REMARK    4  A    between atoms: C_13  and  N_14 
REMARK    5  A    between atoms: N_14  and  C_15 
REMARK    6  A    between atoms: C_15  and  N_16 
REMARK       I    between atoms: N_16  and  C_17 
REMARK    7  A    between atoms: C_17  and  C_18 
REMARK    8  A    between atoms: C_19  and  O_20 
ROOT
HETATM    1  C   UNL     1      25.630  44.452  51.000  1.00  0.00     0.052 A 
HETATM    2  C   UNL     1      25.038  43.301  50.436  1.00  0.00     0.062 A 
HETATM    3 CL   UNL     1      25.603  41.684  50.713  1.00  0.00    -0.082 Cl
HETATM    4  C   UNL     1      23.950  43.397  49.550  1.00  0.00     0.055 A 
HETATM    5  C   UNL     1      23.451  44.636  49.153  1.00  0.00     0.036 A 
HETATM    6  C   UNL     1      24.069  45.788  49.627  1.00  0.00     0.032 A 
HETATM    7  C   UNL     1      25.129  45.690  50.540  1.00  0.00     0.033 A 
ENDROOT
BRANCH   5   8
HETATM    8  N   UNL     1      22.269  44.646  48.378  1.00  0.00    -0.333 N 
HETATM    9  H   UNL     1      21.419  44.472  48.904  1.00  0.00     0.168 HD
BRANCH   8  10
HETATM   10  C   UNL     1      22.080  45.227  47.169  1.00  0.00     0.179 C 
HETATM   11  S   UNL     1      22.410  44.375  45.771  1.00  0.00    -0.040 SA
BRANCH  10  12
HETATM   12  N   UNL     1      21.695  46.531  47.065  1.00  0.00    -0.299 N 
HETATM   13  C   UNL     1      20.977  47.206  48.051  1.00  0.00     0.260 C 
HETATM   14  O   UNL     1      20.125  46.724  48.785  1.00  0.00    -0.267 OA
HETATM   15  H   UNL     1      22.397  47.085  46.593  1.00  0.00     0.171 HD
BRANCH  13  16
HETATM   16  C   UNL     1      21.300  48.656  48.149  1.00  0.00     0.066 A 
HETATM   17  C   UNL     1      20.313  49.654  48.213  1.00  0.00     0.089 A 
HETATM   18  C   UNL     1      20.696  50.999  48.399  1.00  0.00    -0.028 A 
HETATM   19  C   UNL     1      19.661  52.085  48.520  1.00  0.00     0.051 C 
HETATM   20  C   UNL     1      22.056  51.331  48.490  1.00  0.00     0.009 A 
HETATM   21  C   UNL     1      23.033  50.341  48.422  1.00  0.00     0.002 A 
HETATM   22  C   UNL     1      22.658  49.009  48.264  1.00  0.00     0.020 A 
BRANCH  17  23
HETATM   23  O   UNL     1      18.961  49.430  48.183  1.00  0.00    -0.354 OA
HETATM   24  C   UNL     1      18.402  49.249  46.885  1.00  0.00     0.210 C 
ENDBRANCH  17  23
ENDBRANCH  13  16
ENDBRANCH  10  12
ENDBRANCH   8  10
ENDBRANCH   5   8
BRANCH   1  25
HETATM   25  N   UNL     1      26.587  44.499  52.020  1.00  0.00    -0.376 N 
HETATM   26  C   UNL     1      26.547  45.663  52.930  1.00  0.00     0.143 C 
HETATM   27  C   UNL     1      27.186  45.297  54.287  1.00  0.00     0.145 C 
HETATM   28  N   UNL     1      28.505  44.658  54.165  1.00  0.00    -0.349 N 
HETATM   29  C   UNL     1      29.349  44.715  55.272  1.00  0.00     0.219 C 
HETATM   30  C   UNL     1      28.588  43.596  53.153  1.00  0.00     0.145 C 
HETATM   31  O   UNL     1      29.083  45.394  56.263  1.00  0.00    -0.273 OA
HETATM   32  C   UNL     1      27.951  43.990  51.809  1.00  0.00     0.143 C 
BRANCH  29  33
HETATM   33  C   UNL     1      30.642  43.913  55.182  1.00  0.00     0.103 C 
BRANCH  33  34
HETATM   34  C   UNL     1      30.869  43.014  56.395  1.00  0.00     0.005 C 
HETATM   35  C   UNL     1      31.993  43.542  57.273  1.00  0.00     0.005 C 
ENDBRANCH  33  34
ENDBRANCH  29  33
ENDBRANCH   1  25
TORSDOF 8
ENDMDL
MODEL 6
REMARK VINA RESULT:      -8.5      2.520     11.331
REMARK  8 active torsions:
REMARK  status: ('A' for Active; 'I' for Inactive)
REMARK    1  A    between atoms: C_2  and  C_3 
REMARK    2  A    between atoms: C_3  and  C_4 
REMARK       I    between atoms: C_4  and  N_5 
REMARK    3  A    between atoms: N_8  and  C_9 
REMARK    4  A    between atoms: C_13  and  N_14 
REMARK    5  A    between atoms: N_14  and  C_15 
REMARK    6  A    between atoms: C_15  and  N_16 
REMARK       I    between atoms: N_16  and  C_17 
REMARK    7  A    between atoms: C_17  and  C_18 
REMARK    8  A    between atoms: C_19  and  O_20 
ROOT
HETATM    1  C   UNL     1      24.917  47.022  49.672  1.00  0.00     0.052 A 
HETATM    2  C   UNL     1      23.616  46.815  49.163  1.00  0.00     0.062 A 
HETATM    3 CL   UNL     1      22.805  45.281  49.168  1.00  0.00    -0.082 Cl
HETATM    4  C   UNL     1      22.893  47.857  48.558  1.00  0.00     0.055 A 
HETATM    5  C   UNL     1      23.454  49.121  48.389  1.00  0.00     0.036 A 
HETATM    6  C   UNL     1      24.765  49.331  48.805  1.00  0.00     0.032 A 
HETATM    7  C   UNL     1      25.471  48.301  49.444  1.00  0.00     0.033 A 
ENDROOT
BRANCH   5   8
HETATM    8  N   UNL     1      22.615  50.150  47.906  1.00  0.00    -0.333 N 
HETATM    9  H   UNL     1      22.533  50.187  46.896  1.00  0.00     0.168 HD
BRANCH   8  10
HETATM   10  C   UNL     1      21.637  50.802  48.579  1.00  0.00     0.179 C 
HETATM   11  S   UNL     1      21.716  50.941  50.243  1.00  0.00    -0.040 SA
BRANCH  10  12
HETATM   12  N   UNL     1      20.538  51.288  47.934  1.00  0.00    -0.299 N 
HETATM   13  C   UNL     1      19.560  50.479  47.358  1.00  0.00     0.260 C 
HETATM   14  O   UNL     1      19.741  49.396  46.818  1.00  0.00    -0.267 OA
HETATM   15  H   UNL     1      20.190  52.125  48.381  1.00  0.00     0.171 HD
BRANCH  13  16
HETATM   16  C   UNL     1      18.189  51.058  47.407  1.00  0.00     0.066 A 
HETATM   17  C   UNL     1      17.527  51.346  48.613  1.00  0.00     0.089 A 
HETATM   18  C   UNL     1      16.267  51.979  48.579  1.00  0.00    -0.028 A 
HETATM   19  C   UNL     1      15.555  52.346  49.853  1.00  0.00     0.051 C 
HETATM   20  C   UNL     1      15.675  52.289  47.345  1.00  0.00     0.009 A 
HETATM   21  C   UNL     1      16.330  51.999  46.152  1.00  0.00     0.002 A 
HETATM   22  C   UNL     1      17.586  51.397  46.181  1.00  0.00     0.020 A 
BRANCH  17  23
HETATM   23  O   UNL     1      18.039  51.128  49.866  1.00  0.00    -0.354 OA
HETATM   24  C   UNL     1      18.137  49.761  50.255  1.00  0.00     0.210 C 
ENDBRANCH  17  23
ENDBRANCH  13  16
ENDBRANCH  10  12
ENDBRANCH   8  10
ENDBRANCH   5   8
BRANCH   1  25
HETATM   25  N   UNL     1      25.673  46.137  50.449  1.00  0.00    -0.376 N 
HETATM   26  C   UNL     1      26.195  44.927  49.779  1.00  0.00     0.143 C 
HETATM   27  C   UNL     1      27.448  44.411  50.518  1.00  0.00     0.145 C 
HETATM   28  N   UNL     1      27.264  44.278  51.971  1.00  0.00    -0.349 N 
HETATM   29  C   UNL     1      28.120  43.412  52.649  1.00  0.00     0.219 C 
HETATM   30  C   UNL     1      26.608  45.421  52.621  1.00  0.00     0.145 C 
HETATM   31  O   UNL     1      28.903  42.670  52.057  1.00  0.00    -0.273 OA
HETATM   32  C   UNL     1      25.358  45.909  51.868  1.00  0.00     0.143 C 
BRANCH  29  33
HETATM   33  C   UNL     1      28.017  43.408  54.170  1.00  0.00     0.103 C 
BRANCH  33  34
HETATM   34  C   UNL     1      29.153  44.174  54.844  1.00  0.00     0.005 C 
HETATM   35  C   UNL     1      30.369  43.286  55.060  1.00  0.00     0.005 C 
ENDBRANCH  33  34
ENDBRANCH  29  33
ENDBRANCH   1  25
TORSDOF 8
ENDMDL
MODEL 7
REMARK VINA RESULT:      -8.3      2.620     10.549
REMARK  8 active torsions:
REMARK  status: ('A' for Active; 'I' for Inactive)
REMARK    1  A    between atoms: C_2  and  C_3 
REMARK    2  A    between atoms: C_3  and  C_4 
REMARK       I    between atoms: C_4  and  N_5 
REMARK    3  A    between atoms: N_8  and  C_9 
REMARK    4  A    between atoms: C_13  and  N_14 
REMARK    5  A    between atoms: N_14  and  C_15 
REMARK    6  A    between atoms: C_15  and  N_16 
REMARK       I    between atoms: N_16  and  C_17 
REMARK    7  A    between atoms: C_17  and  C_18 
REMARK    8  A    between atoms: C_19  and  O_20 
ROOT
HETATM    1  C   UNL     1      23.980  44.970  48.898  1.00  0.00     0.052 A 
HETATM    2  C   UNL     1      23.472  44.072  47.934  1.00  0.00     0.062 A 
HETATM    3 CL   UNL     1      24.101  42.477  47.667  1.00  0.00    -0.082 Cl
HETATM    4  C   UNL     1      22.426  44.441  47.070  1.00  0.00     0.055 A 
HETATM    5  C   UNL     1      21.887  45.725  47.098  1.00  0.00     0.036 A 
HETATM    6  C   UNL     1      22.425  46.657  47.979  1.00  0.00     0.032 A 
HETATM    7  C   UNL     1      23.443  46.276  48.866  1.00  0.00     0.033 A 
ENDROOT
BRANCH   5   8
HETATM    8  N   UNL     1      20.745  45.972  46.302  1.00  0.00    -0.333 N 
HETATM    9  H   UNL     1      20.832  45.675  45.337  1.00  0.00     0.168 HD
BRANCH   8  10
HETATM   10  C   UNL     1      19.473  46.170  46.724  1.00  0.00     0.179 C 
HETATM   11  S   UNL     1      18.386  44.901  46.726  1.00  0.00    -0.040 SA
BRANCH  10  12
HETATM   12  N   UNL     1      19.031  47.410  47.080  1.00  0.00    -0.299 N 
HETATM   13  C   UNL     1      19.121  47.921  48.373  1.00  0.00     0.260 C 
HETATM   14  O   UNL     1      19.021  47.284  49.412  1.00  0.00    -0.267 OA
HETATM   15  H   UNL     1      19.194  48.083  46.342  1.00  0.00     0.171 HD
BRANCH  13  16
HETATM   16  C   UNL     1      19.328  49.394  48.429  1.00  0.00     0.066 A 
HETATM   17  C   UNL     1      18.311  50.293  48.792  1.00  0.00     0.089 A 
HETATM   18  C   UNL     1      18.608  51.667  48.912  1.00  0.00    -0.028 A 
HETATM   19  C   UNL     1      17.553  52.648  49.347  1.00  0.00     0.051 C 
HETATM   20  C   UNL     1      19.906  52.126  48.642  1.00  0.00     0.009 A 
HETATM   21  C   UNL     1      20.912  51.235  48.278  1.00  0.00     0.002 A 
HETATM   22  C   UNL     1      20.629  49.874  48.183  1.00  0.00     0.020 A 
BRANCH  17  23
HETATM   23  O   UNL     1      17.028  49.941  49.123  1.00  0.00    -0.354 OA
HETATM   24  C   UNL     1      16.149  49.736  48.021  1.00  0.00     0.210 C 
ENDBRANCH  17  23
ENDBRANCH  13  16
ENDBRANCH  10  12
ENDBRANCH   8  10
ENDBRANCH   5   8
BRANCH   1  25
HETATM   25  N   UNL     1      24.883  44.684  49.928  1.00  0.00    -0.376 N 
HETATM   26  C   UNL     1      24.413  44.892  51.314  1.00  0.00     0.143 C 
HETATM   27  C   UNL     1      25.213  43.998  52.285  1.00  0.00     0.145 C 
HETATM   28  N   UNL     1      26.671  44.092  52.110  1.00  0.00    -0.349 N 
HETATM   29  C   UNL     1      27.472  43.720  53.187  1.00  0.00     0.219 C 
HETATM   30  C   UNL     1      27.133  44.035  50.716  1.00  0.00     0.145 C 
HETATM   31  O   UNL     1      27.000  43.463  54.295  1.00  0.00    -0.273 OA
HETATM   32  C   UNL     1      26.323  44.941  49.772  1.00  0.00     0.143 C 
BRANCH  29  33
HETATM   33  C   UNL     1      28.974  43.674  52.933  1.00  0.00     0.103 C 
BRANCH  33  34
HETATM   34  C   UNL     1      29.693  42.652  53.810  1.00  0.00     0.005 C 
HETATM   35  C   UNL     1      30.510  43.332  54.898  1.00  0.00     0.005 C 
ENDBRANCH  33  34
ENDBRANCH  29  33
ENDBRANCH   1  25
TORSDOF 8
ENDMDL
MODEL 8
REMARK VINA RESULT:      -8.0     13.837     14.785
REMARK  8 active torsions:
REMARK  status: ('A' for Active; 'I' for Inactive)
REMARK    1  A    between atoms: C_2  and  C_3 
REMARK    2  A    between atoms: C_3  and  C_4 
REMARK       I    between atoms: C_4  and  N_5 
REMARK    3  A    between atoms: N_8  and  C_9 
REMARK    4  A    between atoms: C_13  and  N_14 
REMARK    5  A    between atoms: N_14  and  C_15 
REMARK    6  A    between atoms: C_15  and  N_16 
REMARK       I    between atoms: N_16  and  C_17 
REMARK    7  A    between atoms: C_17  and  C_18 
REMARK    8  A    between atoms: C_19  and  O_20 
ROOT
HETATM    1  C   UNL     1      33.268  51.189  42.455  1.00  0.00     0.052 A 
HETATM    2  C   UNL     1      33.600  51.746  43.709  1.00  0.00     0.062 A 
HETATM    3 CL   UNL     1      32.451  52.037  44.976  1.00  0.00    -0.082 Cl
HETATM    4  C   UNL     1      34.912  52.159  44.002  1.00  0.00     0.055 A 
HETATM    5  C   UNL     1      35.922  52.081  43.047  1.00  0.00     0.036 A 
HETATM    6  C   UNL     1      35.606  51.615  41.775  1.00  0.00     0.032 A 
HETATM    7  C   UNL     1      34.306  51.168  41.496  1.00  0.00     0.033 A 
ENDROOT
BRANCH   5   8
HETATM    8  N   UNL     1      37.240  52.378  43.463  1.00  0.00    -0.333 N 
HETATM    9  H   UNL     1      37.862  51.577  43.493  1.00  0.00     0.168 HD
BRANCH   8  10
HETATM   10  C   UNL     1      37.862  53.581  43.439  1.00  0.00     0.179 C 
HETATM   11  S   UNL     1      37.627  54.619  42.151  1.00  0.00    -0.040 SA
BRANCH  10  12
HETATM   12  N   UNL     1      38.747  53.938  44.414  1.00  0.00    -0.299 N 
HETATM   13  C   UNL     1      38.405  54.713  45.521  1.00  0.00     0.260 C 
HETATM   14  O   UNL     1      37.586  55.621  45.544  1.00  0.00    -0.267 OA
HETATM   15  H   UNL     1      39.408  53.196  44.600  1.00  0.00     0.171 HD
BRANCH  13  16
HETATM   16  C   UNL     1      39.166  54.376  46.755  1.00  0.00     0.066 A 
HETATM   17  C   UNL     1      40.564  54.494  46.843  1.00  0.00     0.089 A 
HETATM   18  C   UNL     1      41.206  54.244  48.075  1.00  0.00    -0.028 A 
HETATM   19  C   UNL     1      42.695  54.408  48.214  1.00  0.00     0.051 C 
HETATM   20  C   UNL     1      40.448  53.854  49.189  1.00  0.00     0.009 A 
HETATM   21  C   UNL     1      39.064  53.734  49.099  1.00  0.00     0.002 A 
HETATM   22  C   UNL     1      38.424  54.004  47.892  1.00  0.00     0.020 A 
BRANCH  17  23
HETATM   23  O   UNL     1      41.386  54.912  45.829  1.00  0.00    -0.354 OA
HETATM   24  C   UNL     1      41.407  56.318  45.602  1.00  0.00     0.210 C 
ENDBRANCH  17  23
ENDBRANCH  13  16
ENDBRANCH  10  12
ENDBRANCH   8  10
ENDBRANCH   5   8
BRANCH   1  25
HETATM   25  N   UNL     1      32.062  50.579  42.092  1.00  0.00    -0.376 N 
HETATM   26  C   UNL     1      30.938  51.467  41.730  1.00  0.00     0.143 C 
HETATM   27  C   UNL     1      29.952  50.725  40.803  1.00  0.00     0.145 C 
HETATM   28  N   UNL     1      29.552  49.401  41.305  1.00  0.00    -0.349 N 
HETATM   29  C   UNL     1      28.360  48.866  40.822  1.00  0.00     0.219 C 
HETATM   30  C   UNL     1      30.655  48.569  41.806  1.00  0.00     0.145 C 
HETATM   31  O   UNL     1      27.586  49.519  40.122  1.00  0.00    -0.273 OA
HETATM   32  C   UNL     1      31.617  49.332  42.733  1.00  0.00     0.143 C 
BRANCH  29  33
HETATM   33  C   UNL     1      28.044  47.432  41.231  1.00  0.00     0.103 C 
BRANCH  33  34
HETATM   34  C   UNL     1      27.876  46.497  40.036  1.00  0.00     0.005 C 
HETATM   35  C   UNL     1      29.223  46.024  39.510  1.00  0.00     0.005 C 
ENDBRANCH  33  34
ENDBRANCH  29  33
ENDBRANCH   1  25
TORSDOF 8
ENDMDL
MODEL 9
REMARK VINA RESULT:      -7.9      2.690     11.357
REMARK  8 active torsions:
REMARK  status: ('A' for Active; 'I' for Inactive)
REMARK    1  A    between atoms: C_2  and  C_3 
REMARK    2  A    between atoms: C_3  and  C_4 
REMARK       I    between atoms: C_4  and  N_5 
REMARK    3  A    between atoms: N_8  and  C_9 
REMARK    4  A    between atoms: C_13  and  N_14 
REMARK    5  A    between atoms: N_14  and  C_15 
REMARK    6  A    between atoms: C_15  and  N_16 
REMARK       I    between atoms: N_16  and  C_17 
REMARK    7  A    between atoms: C_17  and  C_18 
REMARK    8  A    between atoms: C_19  and  O_20 
ROOT
HETATM    1  C   UNL     1      25.244  45.550  51.071  1.00  0.00     0.052 A 
HETATM    2  C   UNL     1      24.308  44.608  50.591  1.00  0.00     0.062 A 
HETATM    3 CL   UNL     1      24.390  42.906  50.919  1.00  0.00    -0.082 Cl
HETATM    4  C   UNL     1      23.247  44.992  49.752  1.00  0.00     0.055 A 
HETATM    5  C   UNL     1      23.110  46.309  49.320  1.00  0.00     0.036 A 
HETATM    6  C   UNL     1      24.066  47.243  49.708  1.00  0.00     0.032 A 
HETATM    7  C   UNL     1      25.101  46.866  50.575  1.00  0.00     0.033 A 
ENDROOT
BRANCH   5   8
HETATM    8  N   UNL     1      21.940  46.643  48.601  1.00  0.00    -0.333 N 
HETATM    9  H   UNL     1      21.457  45.851  48.192  1.00  0.00     0.168 HD
BRANCH   8  10
HETATM   10  C   UNL     1      21.192  47.766  48.717  1.00  0.00     0.179 C 
HETATM   11  S   UNL     1      21.918  49.217  49.121  1.00  0.00    -0.040 SA
BRANCH  10  12
HETATM   12  N   UNL     1      19.835  47.728  48.587  1.00  0.00    -0.299 N 
HETATM   13  C   UNL     1      18.954  48.290  49.509  1.00  0.00     0.260 C 
HETATM   14  O   UNL     1      19.114  48.349  50.721  1.00  0.00    -0.267 OA
HETATM   15  H   UNL     1      19.557  47.820  47.619  1.00  0.00     0.171 HD
BRANCH  13  16
HETATM   16  C   UNL     1      17.703  48.824  48.904  1.00  0.00     0.066 A 
HETATM   17  C   UNL     1      17.335  50.178  48.986  1.00  0.00     0.089 A 
HETATM   18  C   UNL     1      16.182  50.627  48.308  1.00  0.00    -0.028 A 
HETATM   19  C   UNL     1      15.789  52.079  48.335  1.00  0.00     0.051 C 
HETATM   20  C   UNL     1      15.400  49.715  47.583  1.00  0.00     0.009 A 
HETATM   21  C   UNL     1      15.764  48.373  47.506  1.00  0.00     0.002 A 
HETATM   22  C   UNL     1      16.915  47.931  48.153  1.00  0.00     0.020 A 
BRANCH  17  23
HETATM   23  O   UNL     1      18.055  51.154  49.625  1.00  0.00    -0.354 OA
HETATM   24  C   UNL     1      19.110  51.733  48.863  1.00  0.00     0.210 C 
ENDBRANCH  17  23
ENDBRANCH  13  16
ENDBRANCH  10  12
ENDBRANCH   8  10
ENDBRANCH   5   8
BRANCH   1  25
HETATM   25  N   UNL     1      26.230  45.346  52.042  1.00  0.00    -0.376 N 
HETATM   26  C   UNL     1      26.452  46.434  53.018  1.00  0.00     0.143 C 
HETATM   27  C   UNL     1      27.060  45.864  54.317  1.00  0.00     0.145 C 
HETATM   28  N   UNL     1      28.223  44.992  54.093  1.00  0.00    -0.349 N 
HETATM   29  C   UNL     1      29.105  44.813  55.157  1.00  0.00     0.219 C 
HETATM   30  C   UNL     1      28.059  44.003  53.019  1.00  0.00     0.145 C 
HETATM   31  O   UNL     1      29.014  45.464  56.198  1.00  0.00    -0.273 OA
HETATM   32  C   UNL     1      27.459  44.600  51.734  1.00  0.00     0.143 C 
BRANCH  29  33
HETATM   33  C   UNL     1      30.213  43.786  54.956  1.00  0.00     0.103 C 
BRANCH  33  34
HETATM   34  C   UNL     1      30.538  43.007  56.228  1.00  0.00     0.005 C 
HETATM   35  C   UNL     1      31.817  43.513  56.877  1.00  0.00     0.005 C 
ENDBRANCH  33  34
ENDBRANCH  29  33
ENDBRANCH   1  25
TORSDOF 8
ENDMDL
MODEL 10
REMARK VINA RESULT:      -7.9      6.087     10.172
REMARK  8 active torsions:
REMARK  status: ('A' for Active; 'I' for Inactive)
REMARK    1  A    between atoms: C_2  and  C_3 
REMARK    2  A    between atoms: C_3  and  C_4 
REMARK       I    between atoms: C_4  and  N_5 
REMARK    3  A    between atoms: N_8  and  C_9 
REMARK    4  A    between atoms: C_13  and  N_14 
REMARK    5  A    between atoms: N_14  and  C_15 
REMARK    6  A    between atoms: C_15  and  N_16 
REMARK       I    between atoms: N_16  and  C_17 
REMARK    7  A    between atoms: C_17  and  C_18 
REMARK    8  A    between atoms: C_19  and  O_20 
ROOT
HETATM    1  C   UNL     1      26.841  39.596  48.930  1.00  0.00     0.052 A 
HETATM    2  C   UNL     1      25.712  40.437  48.821  1.00  0.00     0.062 A 
HETATM    3 CL   UNL     1      24.534  40.320  47.552  1.00  0.00    -0.082 Cl
HETATM    4  C   UNL     1      25.488  41.484  49.733  1.00  0.00     0.055 A 
HETATM    5  C   UNL     1      26.402  41.764  50.746  1.00  0.00     0.036 A 
HETATM    6  C   UNL     1      27.566  41.007  50.826  1.00  0.00     0.032 A 
HETATM    7  C   UNL     1      27.768  39.939  49.939  1.00  0.00     0.033 A 
ENDROOT
BRANCH   5   8
HETATM    8  N   UNL     1      26.035  42.734  51.706  1.00  0.00    -0.333 N 
HETATM    9  H   UNL     1      25.752  42.354  52.603  1.00  0.00     0.168 HD
BRANCH   8  10
HETATM   10  C   UNL     1      26.379  44.045  51.728  1.00  0.00     0.179 C 
HETATM   11  S   UNL     1      25.897  45.057  50.489  1.00  0.00    -0.040 SA
BRANCH  10  12
HETATM   12  N   UNL     1      27.181  44.548  52.709  1.00  0.00    -0.299 N 
HETATM   13  C   UNL     1      27.185  44.078  54.021  1.00  0.00     0.260 C 
HETATM   14  O   UNL     1      26.220  43.658  54.643  1.00  0.00    -0.267 OA
HETATM   15  H   UNL     1      28.089  44.805  52.345  1.00  0.00     0.171 HD
BRANCH  13  16
HETATM   16  C   UNL     1      28.516  44.150  54.686  1.00  0.00     0.066 A 
HETATM   17  C   UNL     1      28.836  45.124  55.647  1.00  0.00     0.089 A 
HETATM   18  C   UNL     1      30.085  45.071  56.300  1.00  0.00    -0.028 A 
HETATM   19  C   UNL     1      30.438  46.070  57.369  1.00  0.00     0.051 C 
HETATM   20  C   UNL     1      31.006  44.067  55.965  1.00  0.00     0.009 A 
HETATM   21  C   UNL     1      30.689  43.105  55.009  1.00  0.00     0.002 A 
HETATM   22  C   UNL     1      29.447  43.139  54.381  1.00  0.00     0.020 A 
BRANCH  17  23
HETATM   23  O   UNL     1      27.991  46.114  56.078  1.00  0.00    -0.354 OA
HETATM   24  C   UNL     1      27.880  47.240  55.213  1.00  0.00     0.210 C 
ENDBRANCH  17  23
ENDBRANCH  13  16
ENDBRANCH  10  12
ENDBRANCH   8  10
ENDBRANCH   5   8
BRANCH   1  25
HETATM   25  N   UNL     1      27.095  38.422  48.213  1.00  0.00    -0.376 N 
HETATM   26  C   UNL     1      26.573  37.159  48.780  1.00  0.00     0.143 C 
HETATM   27  C   UNL     1      26.376  36.117  47.659  1.00  0.00     0.145 C 
HETATM   28  N   UNL     1      27.548  35.960  46.785  1.00  0.00    -0.349 N 
HETATM   29  C   UNL     1      27.660  34.769  46.070  1.00  0.00     0.219 C 
HETATM   30  C   UNL     1      28.162  37.218  46.338  1.00  0.00     0.145 C 
HETATM   31  O   UNL     1      26.903  33.818  46.262  1.00  0.00    -0.273 OA
HETATM   32  C   UNL     1      28.354  38.235  47.476  1.00  0.00     0.143 C 
BRANCH  29  33
HETATM   33  C   UNL     1      28.794  34.690  45.054  1.00  0.00     0.103 C 
BRANCH  33  34
HETATM   34  C   UNL     1      28.295  34.531  43.620  1.00  0.00     0.005 C 
HETATM   35  C   UNL     1      29.451  34.504  42.632  1.00  0.00     0.005 C 
ENDBRANCH  33  34
ENDBRANCH  29  33
ENDBRANCH   1  25
TORSDOF 8
ENDMDL
