MODEL 1
REMARK VINA RESULT:      -8.9      0.000      0.000
REMARK  5 active torsions:
REMARK  status: ('A' for Active; 'I' for Inactive)
REMARK    1  A    between atoms: C_3  and  O_4 
REMARK    2  A    between atoms: C_6  and  N_7 
REMARK       I    between atoms: N_7  and  C_8 
REMARK    3  A    between atoms: C_8  and  C_9 
REMARK    4  A    between atoms: C_14  and  C_15 
REMARK    5  A    between atoms: C_23  and  C_24 
ROOT
HETATM    1  C   UNL     1      23.441  48.322  49.237  1.00  0.00     0.148 A 
HETATM    2  N   UNL     1      22.412  47.525  48.866  1.00  0.00    -0.165 NA
HETATM    3  N   UNL     1      21.524  48.386  48.335  1.00  0.00    -0.240 N 
HETATM    4  C   UNL     1      21.957  49.682  48.304  1.00  0.00     0.123 A 
HETATM    5  N   UNL     1      21.215  50.668  47.759  1.00  0.00    -0.366 N 
HETATM    6  C   UNL     1      19.891  50.441  47.195  1.00  0.00     0.118 C 
HETATM    7  C   UNL     1      19.712  48.967  46.783  1.00  0.00     0.066 C 
HETATM    8  C   UNL     1      20.256  47.941  47.794  1.00  0.00     0.221 C 
HETATM    9  C   UNL     1      23.191  49.680  48.897  1.00  0.00     0.089 A 
HETATM   10  H   UNL     1      21.507  51.642  47.820  1.00  0.00     0.161 HD
ENDROOT
BRANCH   1  11
HETATM   11  C   UNL     1      24.645  47.790  49.903  1.00  0.00     0.276 C 
HETATM   12  N   UNL     1      24.321  46.966  50.963  1.00  0.00    -0.322 N 
HETATM   13  H   UNL     1      23.320  46.874  51.109  1.00  0.00     0.169 HD
HETATM   14  O   UNL     1      25.769  48.092  49.520  1.00  0.00    -0.266 OA
BRANCH  12  15
HETATM   15  C   UNL     1      25.185  46.287  51.839  1.00  0.00     0.037 A 
HETATM   16  C   UNL     1      25.392  44.908  51.818  1.00  0.00     0.066 A 
HETATM   17  C   UNL     1      26.272  44.322  52.729  1.00  0.00     0.067 A 
HETATM   18  C   UNL     1      26.957  45.091  53.664  1.00  0.00     0.036 A 
HETATM   19  C   UNL     1      26.755  46.469  53.690  1.00  0.00     0.005 A 
HETATM   20  C   UNL     1      25.872  47.063  52.783  1.00  0.00     0.029 A 
BRANCH  17  21
HETATM   21  O   UNL     1      26.438  42.969  52.672  1.00  0.00    -0.361 OA
HETATM   22  H   UNL     1      26.930  42.681  53.456  1.00  0.00     0.217 HD
ENDBRANCH  17  21
ENDBRANCH  12  15
ENDBRANCH   1  11
BRANCH   8  23
HETATM   23  C   UNL     1      19.297  47.608  48.914  1.00  0.00     0.409 C 
HETATM   24  F   UNL     1      19.406  48.415  49.985  1.00  0.00    -0.169 F 
HETATM   25  F   UNL     1      18.015  47.697  48.473  1.00  0.00    -0.169 F 
HETATM   26  F   UNL     1      19.457  46.336  49.349  1.00  0.00    -0.169 F 
ENDBRANCH   8  23
BRANCH   6  27
HETATM   27  C   UNL     1      18.777  51.003  48.062  1.00  0.00    -0.035 A 
HETATM   28  C   UNL     1      17.439  50.712  47.728  1.00  0.00     0.012 A 
HETATM   29  C   UNL     1      16.381  51.224  48.483  1.00  0.00     0.043 A 
HETATM   30  C   UNL     1      16.651  52.032  49.579  1.00  0.00     0.116 A 
HETATM   31  F   UNL     1      15.636  52.521  50.304  1.00  0.00    -0.206 F 
HETATM   32  C   UNL     1      17.957  52.339  49.932  1.00  0.00     0.043 A 
HETATM   33  C   UNL     1      19.015  51.832  49.172  1.00  0.00     0.012 A 
ENDBRANCH   6  27
TORSDOF 5
ENDMDL
MODEL 2
REMARK VINA RESULT:      -8.8      4.742     10.294
REMARK  5 active torsions:
REMARK  status: ('A' for Active; 'I' for Inactive)
REMARK    1  A    between atoms: C_3  and  O_4 
REMARK    2  A    between atoms: C_6  and  N_7 
REMARK       I    between atoms: N_7  and  C_8 
REMARK    3  A    between atoms: C_8  and  C_9 
REMARK    4  A    between atoms: C_14  and  C_15 
REMARK    5  A    between atoms: C_23  and  C_24 
ROOT
HETATM    1  C   UNL     1      25.012  46.871  50.943  1.00  0.00     0.148 A 
HETATM    2  N   UNL     1      25.335  45.598  50.613  1.00  0.00    -0.165 NA
HETATM    3  N   UNL     1      25.723  45.059  51.784  1.00  0.00    -0.240 N 
HETATM    4  C   UNL     1      25.616  45.908  52.849  1.00  0.00     0.123 A 
HETATM    5  N   UNL     1      25.913  45.516  54.105  1.00  0.00    -0.366 N 
HETATM    6  C   UNL     1      26.400  44.179  54.421  1.00  0.00     0.118 C 
HETATM    7  C   UNL     1      25.992  43.171  53.330  1.00  0.00     0.066 C 
HETATM    8  C   UNL     1      26.151  43.679  51.885  1.00  0.00     0.221 C 
HETATM    9  C   UNL     1      25.173  47.099  52.338  1.00  0.00     0.089 A 
HETATM   10  H   UNL     1      25.916  46.180  54.878  1.00  0.00     0.161 HD
ENDROOT
BRANCH   1  11
HETATM   11  C   UNL     1      24.554  47.850  49.940  1.00  0.00     0.276 C 
HETATM   12  N   UNL     1      23.184  48.020  49.979  1.00  0.00    -0.322 N 
HETATM   13  H   UNL     1      22.727  47.441  50.679  1.00  0.00     0.169 HD
HETATM   14  O   UNL     1      25.344  48.402  49.184  1.00  0.00    -0.266 OA
BRANCH  12  15
HETATM   15  C   UNL     1      22.383  48.852  49.179  1.00  0.00     0.037 A 
HETATM   16  C   UNL     1      21.390  48.386  48.317  1.00  0.00     0.066 A 
HETATM   17  C   UNL     1      20.643  49.289  47.561  1.00  0.00     0.067 A 
HETATM   18  C   UNL     1      20.866  50.660  47.651  1.00  0.00     0.036 A 
HETATM   19  C   UNL     1      21.857  51.132  48.509  1.00  0.00     0.005 A 
HETATM   20  C   UNL     1      22.612  50.232  49.268  1.00  0.00     0.029 A 
BRANCH  17  21
HETATM   21  O   UNL     1      19.686  48.785  46.730  1.00  0.00    -0.361 OA
HETATM   22  H   UNL     1      19.187  48.103  47.205  1.00  0.00     0.217 HD
ENDBRANCH  17  21
ENDBRANCH  12  15
ENDBRANCH   1  11
BRANCH   8  23
HETATM   23  C   UNL     1      27.546  43.521  51.325  1.00  0.00     0.409 C 
HETATM   24  F   UNL     1      28.405  44.479  51.716  1.00  0.00    -0.169 F 
HETATM   25  F   UNL     1      28.072  42.330  51.711  1.00  0.00    -0.169 F 
HETATM   26  F   UNL     1      27.543  43.509  49.970  1.00  0.00    -0.169 F 
ENDBRANCH   8  23
BRANCH   6  27
HETATM   27  C   UNL     1      27.875  44.162  54.789  1.00  0.00    -0.035 A 
HETATM   28  C   UNL     1      28.454  45.322  55.342  1.00  0.00     0.012 A 
HETATM   29  C   UNL     1      29.810  45.359  55.677  1.00  0.00     0.043 A 
HETATM   30  C   UNL     1      30.599  44.238  55.462  1.00  0.00     0.116 A 
HETATM   31  F   UNL     1      31.899  44.274  55.783  1.00  0.00    -0.206 F 
HETATM   32  C   UNL     1      30.059  43.082  54.916  1.00  0.00     0.043 A 
HETATM   33  C   UNL     1      28.704  43.047  54.575  1.00  0.00     0.012 A 
ENDBRANCH   6  27
TORSDOF 5
ENDMDL
MODEL 3
REMARK VINA RESULT:      -8.6      3.166      4.648
REMARK  5 active torsions:
REMARK  status: ('A' for Active; 'I' for Inactive)
REMARK    1  A    between atoms: C_3  and  O_4 
REMARK    2  A    between atoms: C_6  and  N_7 
REMARK       I    between atoms: N_7  and  C_8 
REMARK    3  A    between atoms: C_8  and  C_9 
REMARK    4  A    between atoms: C_14  and  C_15 
REMARK    5  A    between atoms: C_23  and  C_24 
ROOT
HETATM    1  C   UNL     1      21.032  50.212  48.855  1.00  0.00     0.148 A 
HETATM    2  N   UNL     1      19.967  50.598  49.598  1.00  0.00    -0.165 NA
HETATM    3  N   UNL     1      18.939  50.525  48.733  1.00  0.00    -0.240 N 
HETATM    4  C   UNL     1      19.286  50.066  47.493  1.00  0.00     0.123 A 
HETATM    5  N   UNL     1      18.371  49.882  46.519  1.00  0.00    -0.366 N 
HETATM    6  C   UNL     1      16.957  50.187  46.697  1.00  0.00     0.118 C 
HETATM    7  C   UNL     1      16.571  50.169  48.188  1.00  0.00     0.066 C 
HETATM    8  C   UNL     1      17.583  50.850  49.128  1.00  0.00     0.221 C 
HETATM    9  C   UNL     1      20.640  49.869  47.531  1.00  0.00     0.089 A 
HETATM   10  H   UNL     1      18.651  49.627  45.574  1.00  0.00     0.161 HD
ENDROOT
BRANCH   1  11
HETATM   11  C   UNL     1      22.399  50.171  49.405  1.00  0.00     0.276 C 
HETATM   12  N   UNL     1      23.183  49.235  48.760  1.00  0.00    -0.322 N 
HETATM   13  H   UNL     1      22.687  48.732  48.029  1.00  0.00     0.169 HD
HETATM   14  O   UNL     1      22.733  50.898  50.334  1.00  0.00    -0.266 OA
BRANCH  12  15
HETATM   15  C   UNL     1      24.525  48.900  49.005  1.00  0.00     0.037 A 
HETATM   16  C   UNL     1      25.611  49.669  48.587  1.00  0.00     0.066 A 
HETATM   17  C   UNL     1      26.911  49.255  48.878  1.00  0.00     0.067 A 
HETATM   18  C   UNL     1      27.152  48.082  49.585  1.00  0.00     0.036 A 
HETATM   19  C   UNL     1      26.071  47.308  50.005  1.00  0.00     0.005 A 
HETATM   20  C   UNL     1      24.765  47.715  49.714  1.00  0.00     0.029 A 
BRANCH  17  21
HETATM   21  O   UNL     1      27.940  50.040  48.445  1.00  0.00    -0.361 OA
HETATM   22  H   UNL     1      27.932  50.060  47.476  1.00  0.00     0.217 HD
ENDBRANCH  17  21
ENDBRANCH  12  15
ENDBRANCH   1  11
BRANCH   8  23
HETATM   23  C   UNL     1      17.415  52.348  49.237  1.00  0.00     0.409 C 
HETATM   24  F   UNL     1      16.164  52.778  48.992  1.00  0.00    -0.169 F 
HETATM   25  F   UNL     1      17.744  52.764  50.487  1.00  0.00    -0.169 F 
HETATM   26  F   UNL     1      18.242  53.007  48.391  1.00  0.00    -0.169 F 
ENDBRANCH   8  23
BRANCH   6  27
HETATM   27  C   UNL     1      16.523  51.430  45.938  1.00  0.00    -0.035 A 
HETATM   28  C   UNL     1      15.177  51.843  46.017  1.00  0.00     0.012 A 
HETATM   29  C   UNL     1      14.727  52.967  45.320  1.00  0.00     0.043 A 
HETATM   30  C   UNL     1      15.618  53.689  44.538  1.00  0.00     0.116 A 
HETATM   31  F   UNL     1      15.186  54.767  43.871  1.00  0.00    -0.206 F 
HETATM   32  C   UNL     1      16.948  53.307  44.438  1.00  0.00     0.043 A 
HETATM   33  C   UNL     1      17.396  52.178  45.129  1.00  0.00     0.012 A 
ENDBRANCH   6  27
TORSDOF 5
ENDMDL
MODEL 4
REMARK VINA RESULT:      -8.5     22.235     24.192
REMARK  5 active torsions:
REMARK  status: ('A' for Active; 'I' for Inactive)
REMARK    1  A    between atoms: C_3  and  O_4 
REMARK    2  A    between atoms: C_6  and  N_7 
REMARK       I    between atoms: N_7  and  C_8 
REMARK    3  A    between atoms: C_8  and  C_9 
REMARK    4  A    between atoms: C_14  and  C_15 
REMARK    5  A    between atoms: C_23  and  C_24 
ROOT
HETATM    1  C   UNL     1      37.012  46.617  65.242  1.00  0.00     0.148 A 
HETATM    2  N   UNL     1      38.296  46.521  64.821  1.00  0.00    -0.165 NA
HETATM    3  N   UNL     1      38.314  45.363  64.136  1.00  0.00    -0.240 N 
HETATM    4  C   UNL     1      37.099  44.743  64.058  1.00  0.00     0.123 A 
HETATM    5  N   UNL     1      36.926  43.598  63.365  1.00  0.00    -0.366 N 
HETATM    6  C   UNL     1      38.017  42.918  62.679  1.00  0.00     0.118 C 
HETATM    7  C   UNL     1      39.163  43.896  62.358  1.00  0.00     0.066 C 
HETATM    8  C   UNL     1      39.518  44.873  63.494  1.00  0.00     0.221 C 
HETATM    9  C   UNL     1      36.234  45.521  64.779  1.00  0.00     0.089 A 
HETATM   10  H   UNL     1      36.040  43.097  63.387  1.00  0.00     0.161 HD
ENDROOT
BRANCH   1  11
HETATM   11  C   UNL     1      36.541  47.742  66.071  1.00  0.00     0.276 C 
HETATM   12  N   UNL     1      37.487  48.743  66.162  1.00  0.00    -0.322 N 
HETATM   13  H   UNL     1      38.343  48.534  65.655  1.00  0.00     0.169 HD
HETATM   14  O   UNL     1      35.435  47.722  66.599  1.00  0.00    -0.266 OA
BRANCH  12  15
HETATM   15  C   UNL     1      37.412  49.957  66.865  1.00  0.00     0.037 A 
HETATM   16  C   UNL     1      36.994  50.067  68.192  1.00  0.00     0.066 A 
HETATM   17  C   UNL     1      36.952  51.318  68.808  1.00  0.00     0.067 A 
HETATM   18  C   UNL     1      37.324  52.470  68.123  1.00  0.00     0.036 A 
HETATM   19  C   UNL     1      37.742  52.368  66.798  1.00  0.00     0.005 A 
HETATM   20  C   UNL     1      37.784  51.117  66.173  1.00  0.00     0.029 A 
BRANCH  17  21
HETATM   21  O   UNL     1      36.532  51.374  70.105  1.00  0.00    -0.361 OA
HETATM   22  H   UNL     1      36.544  50.479  70.477  1.00  0.00     0.217 HD
ENDBRANCH  17  21
ENDBRANCH  12  15
ENDBRANCH   1  11
BRANCH   8  23
HETATM   23  C   UNL     1      40.466  44.305  64.526  1.00  0.00     0.409 C 
HETATM   24  F   UNL     1      39.855  43.797  65.610  1.00  0.00    -0.169 F 
HETATM   25  F   UNL     1      41.207  43.307  63.978  1.00  0.00    -0.169 F 
HETATM   26  F   UNL     1      41.351  45.235  64.959  1.00  0.00    -0.169 F 
ENDBRANCH   8  23
BRANCH   6  27
HETATM   27  C   UNL     1      38.445  41.637  63.378  1.00  0.00    -0.035 A 
HETATM   28  C   UNL     1      39.280  40.733  62.692  1.00  0.00     0.012 A 
HETATM   29  C   UNL     1      39.682  39.533  63.286  1.00  0.00     0.043 A 
HETATM   30  C   UNL     1      39.252  39.227  64.570  1.00  0.00     0.116 A 
HETATM   31  F   UNL     1      39.638  38.078  65.139  1.00  0.00    -0.206 F 
HETATM   32  C   UNL     1      38.427  40.096  65.269  1.00  0.00     0.043 A 
HETATM   33  C   UNL     1      38.020  41.293  64.673  1.00  0.00     0.012 A 
ENDBRANCH   6  27
TORSDOF 5
ENDMDL
MODEL 5
REMARK VINA RESULT:      -8.4     11.750     14.671
REMARK  5 active torsions:
REMARK  status: ('A' for Active; 'I' for Inactive)
REMARK    1  A    between atoms: C_3  and  O_4 
REMARK    2  A    between atoms: C_6  and  N_7 
REMARK       I    between atoms: N_7  and  C_8 
REMARK    3  A    between atoms: C_8  and  C_9 
REMARK    4  A    between atoms: C_14  and  C_15 
REMARK    5  A    between atoms: C_23  and  C_24 
ROOT
HETATM    1  C   UNL     1      27.071  49.648  38.272  1.00  0.00     0.148 A 
HETATM    2  N   UNL     1      27.609  50.870  38.047  1.00  0.00    -0.165 NA
HETATM    3  N   UNL     1      28.902  50.709  38.384  1.00  0.00    -0.240 N 
HETATM    4  C   UNL     1      29.225  49.437  38.763  1.00  0.00     0.123 A 
HETATM    5  N   UNL     1      30.488  49.087  39.084  1.00  0.00    -0.366 N 
HETATM    6  C   UNL     1      31.594  50.036  39.085  1.00  0.00     0.118 C 
HETATM    7  C   UNL     1      31.291  51.238  38.170  1.00  0.00     0.066 C 
HETATM    8  C   UNL     1      29.859  51.793  38.282  1.00  0.00     0.221 C 
HETATM    9  C   UNL     1      28.056  48.725  38.718  1.00  0.00     0.089 A 
HETATM   10  H   UNL     1      30.701  48.161  39.450  1.00  0.00     0.161 HD
ENDROOT
BRANCH   1  11
HETATM   11  C   UNL     1      25.639  49.370  38.059  1.00  0.00     0.276 C 
HETATM   12  N   UNL     1      24.872  49.786  39.130  1.00  0.00    -0.322 N 
HETATM   13  H   UNL     1      25.420  50.200  39.880  1.00  0.00     0.169 HD
HETATM   14  O   UNL     1      25.242  48.822  37.038  1.00  0.00    -0.266 OA
BRANCH  12  15
HETATM   15  C   UNL     1      23.482  49.685  39.303  1.00  0.00     0.037 A 
HETATM   16  C   UNL     1      22.561  50.585  38.767  1.00  0.00     0.066 A 
HETATM   17  C   UNL     1      21.196  50.402  38.991  1.00  0.00     0.067 A 
HETATM   18  C   UNL     1      20.727  49.329  39.742  1.00  0.00     0.036 A 
HETATM   19  C   UNL     1      21.642  48.426  40.281  1.00  0.00     0.005 A 
HETATM   20  C   UNL     1      23.012  48.605  40.063  1.00  0.00     0.029 A 
BRANCH  17  21
HETATM   21  O   UNL     1      20.335  51.312  38.449  1.00  0.00    -0.361 OA
HETATM   22  H   UNL     1      19.887  50.906  37.692  1.00  0.00     0.217 HD
ENDBRANCH  17  21
ENDBRANCH  12  15
ENDBRANCH   1  11
BRANCH   8  23
HETATM   23  C   UNL     1      29.662  52.773  39.416  1.00  0.00     0.409 C 
HETATM   24  F   UNL     1      30.806  53.297  39.892  1.00  0.00    -0.169 F 
HETATM   25  F   UNL     1      28.886  53.810  39.007  1.00  0.00    -0.169 F 
HETATM   26  F   UNL     1      29.012  52.207  40.460  1.00  0.00    -0.169 F 
ENDBRANCH   8  23
BRANCH   6  27
HETATM   27  C   UNL     1      32.057  50.398  40.486  1.00  0.00    -0.035 A 
HETATM   28  C   UNL     1      33.281  51.078  40.646  1.00  0.00     0.012 A 
HETATM   29  C   UNL     1      33.758  51.414  41.915  1.00  0.00     0.043 A 
HETATM   30  C   UNL     1      33.016  51.072  43.037  1.00  0.00     0.116 A 
HETATM   31  F   UNL     1      33.473  51.394  44.254  1.00  0.00    -0.206 F 
HETATM   32  C   UNL     1      31.808  50.399  42.913  1.00  0.00     0.043 A 
HETATM   33  C   UNL     1      31.335  50.058  41.644  1.00  0.00     0.012 A 
ENDBRANCH   6  27
TORSDOF 5
ENDMDL
MODEL 6
REMARK VINA RESULT:      -8.3      9.145     10.609
REMARK  5 active torsions:
REMARK  status: ('A' for Active; 'I' for Inactive)
REMARK    1  A    between atoms: C_3  and  O_4 
REMARK    2  A    between atoms: C_6  and  N_7 
REMARK       I    between atoms: N_7  and  C_8 
REMARK    3  A    between atoms: C_8  and  C_9 
REMARK    4  A    between atoms: C_14  and  C_15 
REMARK    5  A    between atoms: C_23  and  C_24 
ROOT
HETATM    1  C   UNL     1      27.898  42.185  51.999  1.00  0.00     0.148 A 
HETATM    2  N   UNL     1      28.491  41.080  51.490  1.00  0.00    -0.165 NA
HETATM    3  N   UNL     1      28.069  41.060  50.211  1.00  0.00    -0.240 N 
HETATM    4  C   UNL     1      27.278  42.121  49.870  1.00  0.00     0.123 A 
HETATM    5  N   UNL     1      26.809  42.285  48.615  1.00  0.00    -0.366 N 
HETATM    6  C   UNL     1      27.077  41.337  47.542  1.00  0.00     0.118 C 
HETATM    7  C   UNL     1      28.348  40.517  47.833  1.00  0.00     0.066 C 
HETATM    8  C   UNL     1      28.484  40.025  49.285  1.00  0.00     0.221 C 
HETATM    9  C   UNL     1      27.132  42.863  51.011  1.00  0.00     0.089 A 
HETATM   10  H   UNL     1      26.149  43.028  48.393  1.00  0.00     0.161 HD
ENDROOT
BRANCH   1  11
HETATM   11  C   UNL     1      28.064  42.585  53.409  1.00  0.00     0.276 C 
HETATM   12  N   UNL     1      29.216  43.322  53.599  1.00  0.00    -0.322 N 
HETATM   13  H   UNL     1      29.754  43.455  52.747  1.00  0.00     0.169 HD
HETATM   14  O   UNL     1      27.247  42.260  54.263  1.00  0.00    -0.266 OA
BRANCH  12  15
HETATM   15  C   UNL     1      29.719  43.867  54.793  1.00  0.00     0.037 A 
HETATM   16  C   UNL     1      30.724  43.275  55.559  1.00  0.00     0.066 A 
HETATM   17  C   UNL     1      31.160  43.892  56.732  1.00  0.00     0.067 A 
HETATM   18  C   UNL     1      30.612  45.098  57.158  1.00  0.00     0.036 A 
HETATM   19  C   UNL     1      29.607  45.694  56.398  1.00  0.00     0.005 A 
HETATM   20  C   UNL     1      29.163  45.080  55.222  1.00  0.00     0.029 A 
BRANCH  17  21
HETATM   21  O   UNL     1      32.142  43.273  57.449  1.00  0.00    -0.361 OA
HETATM   22  H   UNL     1      32.504  43.902  58.092  1.00  0.00     0.217 HD
ENDBRANCH  17  21
ENDBRANCH  12  15
ENDBRANCH   1  11
BRANCH   8  23
HETATM   23  C   UNL     1      27.746  38.738  49.574  1.00  0.00     0.409 C 
HETATM   24  F   UNL     1      26.486  38.916  50.009  1.00  0.00    -0.169 F 
HETATM   25  F   UNL     1      27.679  37.977  48.451  1.00  0.00    -0.169 F 
HETATM   26  F   UNL     1      28.391  37.988  50.499  1.00  0.00    -0.169 F 
ENDBRANCH   8  23
BRANCH   6  27
HETATM   27  C   UNL     1      25.856  40.513  47.166  1.00  0.00    -0.035 A 
HETATM   28  C   UNL     1      24.597  40.887  47.677  1.00  0.00     0.012 A 
HETATM   29  C   UNL     1      23.450  40.148  47.376  1.00  0.00     0.043 A 
HETATM   30  C   UNL     1      23.551  39.028  46.562  1.00  0.00     0.116 A 
HETATM   31  F   UNL     1      22.451  38.321  46.274  1.00  0.00    -0.206 F 
HETATM   32  C   UNL     1      24.777  38.633  46.047  1.00  0.00     0.043 A 
HETATM   33  C   UNL     1      25.925  39.368  46.353  1.00  0.00     0.012 A 
ENDBRANCH   6  27
TORSDOF 5
ENDMDL
MODEL 7
REMARK VINA RESULT:      -8.3      2.513      3.369
REMARK  5 active torsions:
REMARK  status: ('A' for Active; 'I' for Inactive)
REMARK    1  A    between atoms: C_3  and  O_4 
REMARK    2  A    between atoms: C_6  and  N_7 
REMARK       I    between atoms: N_7  and  C_8 
REMARK    3  A    between atoms: C_8  and  C_9 
REMARK    4  A    between atoms: C_14  and  C_15 
REMARK    5  A    between atoms: C_23  and  C_24 
ROOT
HETATM    1  C   UNL     1      21.916  48.376  48.719  1.00  0.00     0.148 A 
HETATM    2  N   UNL     1      21.168  49.164  49.527  1.00  0.00    -0.165 NA
HETATM    3  N   UNL     1      19.997  49.265  48.871  1.00  0.00    -0.240 N 
HETATM    4  C   UNL     1      19.945  48.542  47.712  1.00  0.00     0.123 A 
HETATM    5  N   UNL     1      18.829  48.489  46.955  1.00  0.00    -0.366 N 
HETATM    6  C   UNL     1      17.613  49.217  47.290  1.00  0.00     0.118 C 
HETATM    7  C   UNL     1      17.558  49.539  48.796  1.00  0.00     0.066 C 
HETATM    8  C   UNL     1      18.886  50.029  49.402  1.00  0.00     0.221 C 
HETATM    9  C   UNL     1      21.179  47.966  47.573  1.00  0.00     0.089 A 
HETATM   10  H   UNL     1      18.829  48.022  46.050  1.00  0.00     0.161 HD
ENDROOT
BRANCH   1  11
HETATM   11  C   UNL     1      23.310  48.021  49.040  1.00  0.00     0.276 C 
HETATM   12  N   UNL     1      23.405  46.751  49.575  1.00  0.00    -0.322 N 
HETATM   13  H   UNL     1      22.506  46.285  49.665  1.00  0.00     0.169 HD
HETATM   14  O   UNL     1      24.229  48.808  48.843  1.00  0.00    -0.266 OA
BRANCH  12  15
HETATM   15  C   UNL     1      24.553  46.069  50.012  1.00  0.00     0.037 A 
HETATM   16  C   UNL     1      25.186  45.060  49.286  1.00  0.00     0.066 A 
HETATM   17  C   UNL     1      26.324  44.439  49.801  1.00  0.00     0.067 A 
HETATM   18  C   UNL     1      26.850  44.810  51.034  1.00  0.00     0.036 A 
HETATM   19  C   UNL     1      26.223  45.817  51.765  1.00  0.00     0.005 A 
HETATM   20  C   UNL     1      25.079  46.442  51.256  1.00  0.00     0.029 A 
BRANCH  17  21
HETATM   21  O   UNL     1      26.904  43.455  49.055  1.00  0.00    -0.361 OA
HETATM   22  H   UNL     1      26.689  43.602  48.121  1.00  0.00     0.217 HD
ENDBRANCH  17  21
ENDBRANCH  12  15
ENDBRANCH   1  11
BRANCH   8  23
HETATM   23  C   UNL     1      19.138  51.509  49.227  1.00  0.00     0.409 C 
HETATM   24  F   UNL     1      18.020  52.255  49.205  1.00  0.00    -0.169 F 
HETATM   25  F   UNL     1      19.910  51.974  50.244  1.00  0.00    -0.169 F 
HETATM   26  F   UNL     1      19.821  51.770  48.088  1.00  0.00    -0.169 F 
ENDBRANCH   8  23
BRANCH   6  27
HETATM   27  C   UNL     1      17.365  50.403  46.372  1.00  0.00    -0.035 A 
HETATM   28  C   UNL     1      18.129  50.525  45.194  1.00  0.00     0.012 A 
HETATM   29  C   UNL     1      17.951  51.608  44.331  1.00  0.00     0.043 A 
HETATM   30  C   UNL     1      17.008  52.580  44.636  1.00  0.00     0.116 A 
HETATM   31  F   UNL     1      16.837  53.618  43.808  1.00  0.00    -0.206 F 
HETATM   32  C   UNL     1      16.242  52.489  45.790  1.00  0.00     0.043 A 
HETATM   33  C   UNL     1      16.425  51.409  46.657  1.00  0.00     0.012 A 
ENDBRANCH   6  27
TORSDOF 5
ENDMDL
MODEL 8
REMARK VINA RESULT:      -8.2     13.925     15.543
REMARK  5 active torsions:
REMARK  status: ('A' for Active; 'I' for Inactive)
REMARK    1  A    between atoms: C_3  and  O_4 
REMARK    2  A    between atoms: C_6  and  N_7 
REMARK       I    between atoms: N_7  and  C_8 
REMARK    3  A    between atoms: C_8  and  C_9 
REMARK    4  A    between atoms: C_14  and  C_15 
REMARK    5  A    between atoms: C_23  and  C_24 
ROOT
HETATM    1  C   UNL     1      35.702  51.826  42.803  1.00  0.00     0.148 A 
HETATM    2  N   UNL     1      34.557  51.816  43.525  1.00  0.00    -0.165 NA
HETATM    3  N   UNL     1      33.737  51.030  42.802  1.00  0.00    -0.240 N 
HETATM    4  C   UNL     1      34.318  50.502  41.683  1.00  0.00     0.123 A 
HETATM    5  N   UNL     1      33.656  49.651  40.871  1.00  0.00    -0.366 N 
HETATM    6  C   UNL     1      32.272  49.258  41.099  1.00  0.00     0.118 C 
HETATM    7  C   UNL     1      31.884  49.434  42.580  1.00  0.00     0.066 C 
HETATM    8  C   UNL     1      32.384  50.737  43.230  1.00  0.00     0.221 C 
HETATM    9  C   UNL     1      35.588  51.011  41.643  1.00  0.00     0.089 A 
HETATM   10  H   UNL     1      34.065  49.334  39.994  1.00  0.00     0.161 HD
ENDROOT
BRANCH   1  11
HETATM   11  C   UNL     1      36.884  52.603  43.218  1.00  0.00     0.276 C 
HETATM   12  N   UNL     1      36.880  52.856  44.576  1.00  0.00    -0.322 N 
HETATM   13  H   UNL     1      36.066  52.476  45.052  1.00  0.00     0.169 HD
HETATM   14  O   UNL     1      37.728  52.961  42.404  1.00  0.00    -0.266 OA
BRANCH  12  15
HETATM   15  C   UNL     1      37.823  53.568  45.336  1.00  0.00     0.037 A 
HETATM   16  C   UNL     1      37.926  54.959  45.347  1.00  0.00     0.066 A 
HETATM   17  C   UNL     1      38.895  55.579  46.136  1.00  0.00     0.067 A 
HETATM   18  C   UNL     1      39.768  54.834  46.922  1.00  0.00     0.036 A 
HETATM   19  C   UNL     1      39.671  53.444  46.915  1.00  0.00     0.005 A 
HETATM   20  C   UNL     1      38.704  52.815  46.124  1.00  0.00     0.029 A 
BRANCH  17  21
HETATM   21  O   UNL     1      38.959  56.942  46.111  1.00  0.00    -0.361 OA
HETATM   22  H   UNL     1      39.297  57.224  45.247  1.00  0.00     0.217 HD
ENDBRANCH  17  21
ENDBRANCH  12  15
ENDBRANCH   1  11
BRANCH   8  23
HETATM   23  C   UNL     1      31.490  51.931  42.989  1.00  0.00     0.409 C 
HETATM   24  F   UNL     1      30.225  51.611  42.662  1.00  0.00    -0.169 F 
HETATM   25  F   UNL     1      31.431  52.703  44.105  1.00  0.00    -0.169 F 
HETATM   26  F   UNL     1      31.972  52.728  42.006  1.00  0.00    -0.169 F 
ENDBRANCH   8  23
BRANCH   6  27
HETATM   27  C   UNL     1      31.309  49.887  40.106  1.00  0.00    -0.035 A 
HETATM   28  C   UNL     1      31.799  50.842  39.192  1.00  0.00     0.012 A 
HETATM   29  C   UNL     1      30.948  51.463  38.275  1.00  0.00     0.043 A 
HETATM   30  C   UNL     1      29.599  51.136  38.263  1.00  0.00     0.116 A 
HETATM   31  F   UNL     1      28.784  51.731  37.382  1.00  0.00    -0.206 F 
HETATM   32  C   UNL     1      29.086  50.202  39.152  1.00  0.00     0.043 A 
HETATM   33  C   UNL     1      29.936  49.586  40.074  1.00  0.00     0.012 A 
ENDBRANCH   6  27
TORSDOF 5
ENDMDL
MODEL 9
REMARK VINA RESULT:      -8.1      8.394     10.868
REMARK  5 active torsions:
REMARK  status: ('A' for Active; 'I' for Inactive)
REMARK    1  A    between atoms: C_3  and  O_4 
REMARK    2  A    between atoms: C_6  and  N_7 
REMARK       I    between atoms: N_7  and  C_8 
REMARK    3  A    between atoms: C_8  and  C_9 
REMARK    4  A    between atoms: C_14  and  C_15 
REMARK    5  A    between atoms: C_23  and  C_24 
ROOT
HETATM    1  C   UNL     1      27.712  41.254  49.955  1.00  0.00     0.148 A 
HETATM    2  N   UNL     1      28.498  41.090  51.046  1.00  0.00    -0.165 NA
HETATM    3  N   UNL     1      27.882  41.827  51.988  1.00  0.00    -0.240 N 
HETATM    4  C   UNL     1      26.720  42.411  51.567  1.00  0.00     0.123 A 
HETATM    5  N   UNL     1      25.949  43.143  52.397  1.00  0.00    -0.366 N 
HETATM    6  C   UNL     1      26.304  43.397  53.788  1.00  0.00     0.118 C 
HETATM    7  C   UNL     1      27.271  42.320  54.316  1.00  0.00     0.066 C 
HETATM    8  C   UNL     1      28.395  41.923  53.340  1.00  0.00     0.221 C 
HETATM    9  C   UNL     1      26.588  42.074  50.247  1.00  0.00     0.089 A 
HETATM   10  H   UNL     1      25.134  43.647  52.052  1.00  0.00     0.161 HD
ENDROOT
BRANCH   1  11
HETATM   11  C   UNL     1      28.034  40.633  48.657  1.00  0.00     0.276 C 
HETATM   12  N   UNL     1      27.348  41.233  47.619  1.00  0.00    -0.322 N 
HETATM   13  H   UNL     1      26.738  41.987  47.923  1.00  0.00     0.169 HD
HETATM   14  O   UNL     1      28.815  39.692  48.578  1.00  0.00    -0.266 OA
BRANCH  12  15
HETATM   15  C   UNL     1      27.382  40.917  46.250  1.00  0.00     0.037 A 
HETATM   16  C   UNL     1      28.452  41.214  45.406  1.00  0.00     0.066 A 
HETATM   17  C   UNL     1      28.395  40.860  44.058  1.00  0.00     0.067 A 
HETATM   18  C   UNL     1      27.285  40.208  43.531  1.00  0.00     0.036 A 
HETATM   19  C   UNL     1      26.212  39.910  44.368  1.00  0.00     0.005 A 
HETATM   20  C   UNL     1      26.260  40.265  45.720  1.00  0.00     0.029 A 
BRANCH  17  21
HETATM   21  O   UNL     1      29.466  41.174  43.272  1.00  0.00    -0.361 OA
HETATM   22  H   UNL     1      30.099  40.441  43.298  1.00  0.00     0.217 HD
ENDBRANCH  17  21
ENDBRANCH  12  15
ENDBRANCH   1  11
BRANCH   8  23
HETATM   23  C   UNL     1      29.599  42.837  53.379  1.00  0.00     0.409 C 
HETATM   24  F   UNL     1      29.485  43.925  52.597  1.00  0.00    -0.169 F 
HETATM   25  F   UNL     1      29.811  43.275  54.647  1.00  0.00    -0.169 F 
HETATM   26  F   UNL     1      30.730  42.191  53.010  1.00  0.00    -0.169 F 
ENDBRANCH   8  23
BRANCH   6  27
HETATM   27  C   UNL     1      26.748  44.830  54.030  1.00  0.00    -0.035 A 
HETATM   28  C   UNL     1      27.552  45.115  55.152  1.00  0.00     0.012 A 
HETATM   29  C   UNL     1      27.966  46.420  55.428  1.00  0.00     0.043 A 
HETATM   30  C   UNL     1      27.581  47.453  54.584  1.00  0.00     0.116 A 
HETATM   31  F   UNL     1      27.980  48.704  54.847  1.00  0.00    -0.206 F 
HETATM   32  C   UNL     1      26.788  47.205  53.472  1.00  0.00     0.043 A 
HETATM   33  C   UNL     1      26.368  45.900  53.201  1.00  0.00     0.012 A 
ENDBRANCH   6  27
TORSDOF 5
ENDMDL
MODEL 10
REMARK VINA RESULT:      -8.1      5.162     10.123
REMARK  5 active torsions:
REMARK  status: ('A' for Active; 'I' for Inactive)
REMARK    1  A    between atoms: C_3  and  O_4 
REMARK    2  A    between atoms: C_6  and  N_7 
REMARK       I    between atoms: N_7  and  C_8 
REMARK    3  A    between atoms: C_8  and  C_9 
REMARK    4  A    between atoms: C_14  and  C_15 
REMARK    5  A    between atoms: C_23  and  C_24 
ROOT
HETATM    1  C   UNL     1      16.464  52.003  48.738  1.00  0.00     0.148 A 
HETATM    2  N   UNL     1      16.622  50.870  48.015  1.00  0.00    -0.165 NA
HETATM    3  N   UNL     1      17.731  50.316  48.539  1.00  0.00    -0.240 N 
HETATM    4  C   UNL     1      18.258  51.013  49.589  1.00  0.00     0.123 A 
HETATM    5  N   UNL     1      19.340  50.574  50.265  1.00  0.00    -0.366 N 
HETATM    6  C   UNL     1      20.049  49.351  49.912  1.00  0.00     0.118 C 
HETATM    7  C   UNL     1      19.134  48.389  49.130  1.00  0.00     0.066 C 
HETATM    8  C   UNL     1      18.260  49.057  48.052  1.00  0.00     0.221 C 
HETATM    9  C   UNL     1      17.471  52.124  49.735  1.00  0.00     0.089 A 
HETATM   10  H   UNL     1      19.778  51.145  50.986  1.00  0.00     0.161 HD
ENDROOT
BRANCH   1  11
HETATM   11  C   UNL     1      15.366  52.953  48.478  1.00  0.00     0.276 C 
HETATM   12  N   UNL     1      15.009  53.646  49.618  1.00  0.00    -0.322 N 
HETATM   13  H   UNL     1      15.550  53.380  50.437  1.00  0.00     0.169 HD
HETATM   14  O   UNL     1      14.866  53.058  47.364  1.00  0.00    -0.266 OA
BRANCH  12  15
HETATM   15  C   UNL     1      14.007  54.619  49.772  1.00  0.00     0.037 A 
HETATM   16  C   UNL     1      14.216  55.988  49.601  1.00  0.00     0.066 A 
HETATM   17  C   UNL     1      13.158  56.881  49.774  1.00  0.00     0.067 A 
HETATM   18  C   UNL     1      11.886  56.433  50.115  1.00  0.00     0.036 A 
HETATM   19  C   UNL     1      11.671  55.067  50.289  1.00  0.00     0.005 A 
HETATM   20  C   UNL     1      12.727  54.166  50.120  1.00  0.00     0.029 A 
BRANCH  17  21
HETATM   21  O   UNL     1      13.413  58.210  49.599  1.00  0.00    -0.361 OA
HETATM   22  H   UNL     1      12.766  58.723  50.108  1.00  0.00     0.217 HD
ENDBRANCH  17  21
ENDBRANCH  12  15
ENDBRANCH   1  11
BRANCH   8  23
HETATM   23  C   UNL     1      18.960  49.261  46.728  1.00  0.00     0.409 C 
HETATM   24  F   UNL     1      19.536  50.469  46.593  1.00  0.00    -0.169 F 
HETATM   25  F   UNL     1      19.937  48.331  46.568  1.00  0.00    -0.169 F 
HETATM   26  F   UNL     1      18.113  49.099  45.684  1.00  0.00    -0.169 F 
ENDBRANCH   8  23
BRANCH   6  27
HETATM   27  C   UNL     1      21.399  49.617  49.267  1.00  0.00    -0.035 A 
HETATM   28  C   UNL     1      22.267  48.532  49.029  1.00  0.00     0.012 A 
HETATM   29  C   UNL     1      23.526  48.731  48.458  1.00  0.00     0.043 A 
HETATM   30  C   UNL     1      23.929  50.015  48.119  1.00  0.00     0.116 A 
HETATM   31  F   UNL     1      25.136  50.205  47.570  1.00  0.00    -0.206 F 
HETATM   32  C   UNL     1      23.099  51.104  48.343  1.00  0.00     0.043 A 
HETATM   33  C   UNL     1      21.842  50.906  48.921  1.00  0.00     0.012 A 
ENDBRANCH   6  27
TORSDOF 5
ENDMDL
