MODEL 1
REMARK VINA RESULT:     -11.0      0.000      0.000
REMARK  6 active torsions:
REMARK  status: ('A' for Active; 'I' for Inactive)
REMARK    1  A    between atoms: C_8  and  C_9 
REMARK    2  A    between atoms: C_9  and  C_10 
REMARK    3  A    between atoms: C_10  and  N_11 
REMARK       I    between atoms: N_11  and  C_12 
REMARK    4  A    between atoms: C_12  and  C_13 
REMARK    5  A    between atoms: C_18  and  C_19 
REMARK    6  A    between atoms: C_29  and  C_30 
ROOT
HETATM    1  C   UNL     1      25.641  47.547  50.133  1.00  0.00     0.148 A 
HETATM    2  N   UNL     1      25.433  46.249  49.813  1.00  0.00    -0.165 NA
HETATM    3  N   UNL     1      25.716  45.596  50.958  1.00  0.00    -0.240 N 
HETATM    4  C   UNL     1      25.975  46.420  52.012  1.00  0.00     0.123 A 
HETATM    5  N   UNL     1      26.192  45.950  53.253  1.00  0.00    -0.366 N 
HETATM    6  C   UNL     1      26.106  44.542  53.605  1.00  0.00     0.118 C 
HETATM    7  C   UNL     1      25.493  43.674  52.490  1.00  0.00     0.066 C 
HETATM    8  C   UNL     1      25.716  44.150  51.042  1.00  0.00     0.221 C 
HETATM    9  C   UNL     1      25.975  47.691  51.507  1.00  0.00     0.088 A 
HETATM   10  H   UNL     1      26.441  46.576  54.017  1.00  0.00     0.161 HD
ENDROOT
BRANCH   1  11
HETATM   11  C   UNL     1      25.531  48.647  49.164  1.00  0.00     0.272 C 
HETATM   12  N   UNL     1      24.249  49.114  48.973  1.00  0.00    -0.355 N 
HETATM   13  H   UNL     1      23.548  48.770  49.624  1.00  0.00     0.162 HD
HETATM   14  O   UNL     1      26.508  49.112  48.581  1.00  0.00    -0.266 OA
BRANCH  12  15
HETATM   15  C   UNL     1      23.997  50.255  48.120  1.00  0.00     0.127 C 
BRANCH  15  16
HETATM   16  C   UNL     1      22.630  50.225  47.439  1.00  0.00     0.060 C 
BRANCH  16  17
HETATM   17  C   UNL     1      21.520  49.856  48.373  1.00  0.00    -0.029 A 
HETATM   18  C   UNL     1      20.391  50.655  48.738  1.00  0.00    -0.002 A 
HETATM   19  C   UNL     1      19.948  51.949  48.390  1.00  0.00     0.014 A 
HETATM   20  C   UNL     1      19.624  49.911  49.636  1.00  0.00     0.042 A 
HETATM   21  C   UNL     1      18.767  52.447  48.951  1.00  0.00     0.001 A 
HETATM   22  C   UNL     1      18.026  51.679  49.847  1.00  0.00     0.002 A 
HETATM   23  C   UNL     1      18.440  50.394  50.205  1.00  0.00     0.030 A 
HETATM   24  N   UNL     1      20.260  48.705  49.810  1.00  0.00    -0.365 N 
HETATM   25  H   UNL     1      19.928  47.963  50.411  1.00  0.00     0.165 HD
HETATM   26  C   UNL     1      21.405  48.662  49.061  1.00  0.00     0.096 A 
ENDBRANCH  16  17
ENDBRANCH  15  16
ENDBRANCH  12  15
ENDBRANCH   1  11
BRANCH   8  27
HETATM   27  C   UNL     1      26.965  43.584  50.407  1.00  0.00     0.409 C 
HETATM   28  F   UNL     1      28.094  44.225  50.762  1.00  0.00    -0.169 F 
HETATM   29  F   UNL     1      27.119  42.282  50.768  1.00  0.00    -0.169 F 
HETATM   30  F   UNL     1      26.902  43.591  49.055  1.00  0.00    -0.169 F 
ENDBRANCH   8  27
BRANCH   6  31
HETATM   31  C   UNL     1      27.424  44.057  54.184  1.00  0.00    -0.033 A 
HETATM   32  C   UNL     1      28.166  44.920  55.013  1.00  0.00     0.049 A 
HETATM   33  C   UNL     1      29.411  44.511  55.447  1.00  0.00     0.105 A 
HETATM   34  C   UNL     1      29.927  43.282  55.116  1.00  0.00     0.105 A 
HETATM   35  O   UNL     1      30.271  45.247  56.202  1.00  0.00    -0.323 OA
HETATM   36  O   UNL     1      31.174  43.087  55.624  1.00  0.00    -0.323 OA
HETATM   37  C   UNL     1      29.228  42.393  54.333  1.00  0.00     0.040 A 
HETATM   38  C   UNL     1      31.407  44.359  56.262  1.00  0.00     0.352 A 
HETATM   39  C   UNL     1      27.974  42.793  53.857  1.00  0.00     0.012 A 
ENDBRANCH   6  31
TORSDOF 6
ENDMDL
MODEL 2
REMARK VINA RESULT:     -10.9      2.855      4.129
REMARK  6 active torsions:
REMARK  status: ('A' for Active; 'I' for Inactive)
REMARK    1  A    between atoms: C_8  and  C_9 
REMARK    2  A    between atoms: C_9  and  C_10 
REMARK    3  A    between atoms: C_10  and  N_11 
REMARK       I    between atoms: N_11  and  C_12 
REMARK    4  A    between atoms: C_12  and  C_13 
REMARK    5  A    between atoms: C_18  and  C_19 
REMARK    6  A    between atoms: C_29  and  C_30 
ROOT
HETATM    1  C   UNL     1      22.556  44.853  49.193  1.00  0.00     0.148 A 
HETATM    2  N   UNL     1      23.590  45.587  48.719  1.00  0.00    -0.165 NA
HETATM    3  N   UNL     1      24.568  45.365  49.621  1.00  0.00    -0.240 N 
HETATM    4  C   UNL     1      24.245  44.439  50.567  1.00  0.00     0.123 A 
HETATM    5  N   UNL     1      25.127  44.025  51.494  1.00  0.00    -0.366 N 
HETATM    6  C   UNL     1      26.512  44.465  51.539  1.00  0.00     0.118 C 
HETATM    7  C   UNL     1      26.943  45.242  50.282  1.00  0.00     0.066 C 
HETATM    8  C   UNL     1      25.846  46.043  49.554  1.00  0.00     0.221 C 
HETATM    9  C   UNL     1      22.936  44.114  50.346  1.00  0.00     0.088 A 
HETATM   10  H   UNL     1      24.851  43.375  52.229  1.00  0.00     0.161 HD
ENDROOT
BRANCH   1  11
HETATM   11  C   UNL     1      21.223  44.841  48.574  1.00  0.00     0.272 C 
HETATM   12  N   UNL     1      20.354  45.787  49.071  1.00  0.00    -0.355 N 
HETATM   13  H   UNL     1      20.761  46.487  49.686  1.00  0.00     0.162 HD
HETATM   14  O   UNL     1      20.917  44.053  47.682  1.00  0.00    -0.266 OA
BRANCH  12  15
HETATM   15  C   UNL     1      19.037  45.957  48.497  1.00  0.00     0.127 C 
BRANCH  15  16
HETATM   16  C   UNL     1      18.736  47.388  48.057  1.00  0.00     0.060 C 
BRANCH  16  17
HETATM   17  C   UNL     1      19.346  48.417  48.958  1.00  0.00    -0.029 A 
HETATM   18  C   UNL     1      20.548  49.162  48.737  1.00  0.00    -0.002 A 
HETATM   19  C   UNL     1      21.502  49.202  47.698  1.00  0.00     0.014 A 
HETATM   20  C   UNL     1      20.732  49.996  49.840  1.00  0.00     0.042 A 
HETATM   21  C   UNL     1      22.598  50.066  47.803  1.00  0.00     0.001 A 
HETATM   22  C   UNL     1      22.754  50.885  48.919  1.00  0.00     0.002 A 
HETATM   23  C   UNL     1      21.822  50.866  49.960  1.00  0.00     0.030 A 
HETATM   24  N   UNL     1      19.683  49.770  50.698  1.00  0.00    -0.365 N 
HETATM   25  H   UNL     1      19.557  50.239  51.585  1.00  0.00     0.165 HD
HETATM   26  C   UNL     1      18.846  48.818  50.183  1.00  0.00     0.096 A 
ENDBRANCH  16  17
ENDBRANCH  15  16
ENDBRANCH  12  15
ENDBRANCH   1  11
BRANCH   8  27
HETATM   27  C   UNL     1      25.715  47.466  50.044  1.00  0.00     0.409 C 
HETATM   28  F   UNL     1      26.797  47.916  50.705  1.00  0.00    -0.169 F 
HETATM   29  F   UNL     1      25.520  48.303  48.989  1.00  0.00    -0.169 F 
HETATM   30  F   UNL     1      24.645  47.634  50.855  1.00  0.00    -0.169 F 
ENDBRANCH   8  27
BRANCH   6  31
HETATM   31  C   UNL     1      26.817  45.125  52.873  1.00  0.00    -0.033 A 
HETATM   32  C   UNL     1      26.033  46.219  53.291  1.00  0.00     0.049 A 
HETATM   33  C   UNL     1      26.385  46.879  54.451  1.00  0.00     0.105 A 
HETATM   34  C   UNL     1      27.455  46.482  55.216  1.00  0.00     0.105 A 
HETATM   35  O   UNL     1      25.768  47.981  54.956  1.00  0.00    -0.323 OA
HETATM   36  O   UNL     1      27.643  47.279  56.301  1.00  0.00    -0.323 OA
HETATM   37  C   UNL     1      28.232  45.402  54.864  1.00  0.00     0.040 A 
HETATM   38  C   UNL     1      26.606  48.260  56.098  1.00  0.00     0.352 A 
HETATM   39  C   UNL     1      27.914  44.731  53.678  1.00  0.00     0.012 A 
ENDBRANCH   6  31
TORSDOF 6
ENDMDL
MODEL 3
REMARK VINA RESULT:     -10.6      4.040     11.264
REMARK  6 active torsions:
REMARK  status: ('A' for Active; 'I' for Inactive)
REMARK    1  A    between atoms: C_8  and  C_9 
REMARK    2  A    between atoms: C_9  and  C_10 
REMARK    3  A    between atoms: C_10  and  N_11 
REMARK       I    between atoms: N_11  and  C_12 
REMARK    4  A    between atoms: C_12  and  C_13 
REMARK    5  A    between atoms: C_18  and  C_19 
REMARK    6  A    between atoms: C_29  and  C_30 
ROOT
HETATM    1  C   UNL     1      24.309  47.282  49.641  1.00  0.00     0.148 A 
HETATM    2  N   UNL     1      23.954  48.549  49.956  1.00  0.00    -0.165 NA
HETATM    3  N   UNL     1      22.693  48.646  49.486  1.00  0.00    -0.240 N 
HETATM    4  C   UNL     1      22.196  47.474  49.001  1.00  0.00     0.123 A 
HETATM    5  N   UNL     1      20.927  47.357  48.572  1.00  0.00    -0.366 N 
HETATM    6  C   UNL     1      19.953  48.435  48.643  1.00  0.00     0.118 C 
HETATM    7  C   UNL     1      20.430  49.629  49.489  1.00  0.00     0.066 C 
HETATM    8  C   UNL     1      21.948  49.887  49.526  1.00  0.00     0.221 C 
HETATM    9  C   UNL     1      23.227  46.577  49.048  1.00  0.00     0.088 A 
HETATM   10  H   UNL     1      20.589  46.490  48.158  1.00  0.00     0.161 HD
ENDROOT
BRANCH   1  11
HETATM   11  C   UNL     1      25.649  46.732  49.890  1.00  0.00     0.272 C 
HETATM   12  N   UNL     1      25.689  45.732  50.838  1.00  0.00    -0.355 N 
HETATM   13  H   UNL     1      24.789  45.373  51.145  1.00  0.00     0.162 HD
HETATM   14  O   UNL     1      26.646  47.130  49.293  1.00  0.00    -0.266 OA
BRANCH  12  15
HETATM   15  C   UNL     1      26.923  45.032  51.122  1.00  0.00     0.127 C 
BRANCH  15  16
HETATM   16  C   UNL     1      26.882  44.209  52.408  1.00  0.00     0.060 C 
BRANCH  16  17
HETATM   17  C   UNL     1      27.552  44.893  53.560  1.00  0.00    -0.029 A 
HETATM   18  C   UNL     1      28.715  44.457  54.271  1.00  0.00    -0.002 A 
HETATM   19  C   UNL     1      29.573  43.342  54.163  1.00  0.00     0.014 A 
HETATM   20  C   UNL     1      28.974  45.399  55.267  1.00  0.00     0.042 A 
HETATM   21  C   UNL     1      30.647  43.211  55.050  1.00  0.00     0.001 A 
HETATM   22  C   UNL     1      30.878  44.169  56.034  1.00  0.00     0.002 A 
HETATM   23  C   UNL     1      30.045  45.284  56.161  1.00  0.00     0.030 A 
HETATM   24  N   UNL     1      28.009  46.372  55.165  1.00  0.00    -0.365 N 
HETATM   25  H   UNL     1      27.949  47.185  55.763  1.00  0.00     0.165 HD
HETATM   26  C   UNL     1      27.144  46.076  54.147  1.00  0.00     0.096 A 
ENDBRANCH  16  17
ENDBRANCH  15  16
ENDBRANCH  12  15
ENDBRANCH   1  11
BRANCH   8  27
HETATM   27  C   UNL     1      22.427  50.825  48.443  1.00  0.00     0.409 C 
HETATM   28  F   UNL     1      22.702  50.214  47.276  1.00  0.00    -0.169 F 
HETATM   29  F   UNL     1      21.474  51.760  48.185  1.00  0.00    -0.169 F 
HETATM   30  F   UNL     1      23.533  51.513  48.812  1.00  0.00    -0.169 F 
ENDBRANCH   8  27
BRANCH   6  31
HETATM   31  C   UNL     1      19.420  48.763  47.259  1.00  0.00    -0.033 A 
HETATM   32  C   UNL     1      19.029  50.086  46.972  1.00  0.00     0.049 A 
HETATM   33  C   UNL     1      18.447  50.353  45.749  1.00  0.00     0.105 A 
HETATM   34  C   UNL     1      18.267  49.374  44.803  1.00  0.00     0.105 A 
HETATM   35  O   UNL     1      17.966  51.559  45.345  1.00  0.00    -0.323 OA
HETATM   36  O   UNL     1      17.656  49.841  43.681  1.00  0.00    -0.323 OA
HETATM   37  C   UNL     1      18.659  48.075  45.025  1.00  0.00     0.040 A 
HETATM   38  C   UNL     1      17.417  51.213  44.056  1.00  0.00     0.352 A 
HETATM   39  C   UNL     1      19.228  47.771  46.267  1.00  0.00     0.012 A 
ENDBRANCH   6  31
TORSDOF 6
ENDMDL
MODEL 4
REMARK VINA RESULT:     -10.6      3.947     11.214
REMARK  6 active torsions:
REMARK  status: ('A' for Active; 'I' for Inactive)
REMARK    1  A    between atoms: C_8  and  C_9 
REMARK    2  A    between atoms: C_9  and  C_10 
REMARK    3  A    between atoms: C_10  and  N_11 
REMARK       I    between atoms: N_11  and  C_12 
REMARK    4  A    between atoms: C_12  and  C_13 
REMARK    5  A    between atoms: C_18  and  C_19 
REMARK    6  A    between atoms: C_29  and  C_30 
ROOT
HETATM    1  C   UNL     1      23.757  47.889  49.349  1.00  0.00     0.148 A 
HETATM    2  N   UNL     1      22.782  47.143  48.778  1.00  0.00    -0.165 NA
HETATM    3  N   UNL     1      21.892  48.065  48.356  1.00  0.00    -0.240 N 
HETATM    4  C   UNL     1      22.311  49.351  48.523  1.00  0.00     0.123 A 
HETATM    5  N   UNL     1      21.596  50.400  48.081  1.00  0.00    -0.366 N 
HETATM    6  C   UNL     1      20.356  50.269  47.333  1.00  0.00     0.118 C 
HETATM    7  C   UNL     1      20.075  48.828  46.871  1.00  0.00     0.066 C 
HETATM    8  C   UNL     1      20.625  47.697  47.761  1.00  0.00     0.221 C 
HETATM    9  C   UNL     1      23.497  49.278  49.199  1.00  0.00     0.088 A 
HETATM   10  H   UNL     1      21.895  51.356  48.266  1.00  0.00     0.161 HD
ENDROOT
BRANCH   1  11
HETATM   11  C   UNL     1      24.924  47.309  50.030  1.00  0.00     0.272 C 
HETATM   12  N   UNL     1      25.325  46.087  49.537  1.00  0.00    -0.355 N 
HETATM   13  H   UNL     1      24.885  45.790  48.670  1.00  0.00     0.162 HD
HETATM   14  O   UNL     1      25.495  47.878  50.957  1.00  0.00    -0.266 OA
BRANCH  12  15
HETATM   15  C   UNL     1      26.514  45.438  50.046  1.00  0.00     0.127 C 
BRANCH  15  16
HETATM   16  C   UNL     1      26.230  44.366  51.096  1.00  0.00     0.060 C 
BRANCH  16  17
HETATM   17  C   UNL     1      26.907  44.635  52.404  1.00  0.00    -0.029 A 
HETATM   18  C   UNL     1      28.101  44.025  52.905  1.00  0.00    -0.002 A 
HETATM   19  C   UNL     1      28.990  43.049  52.406  1.00  0.00     0.014 A 
HETATM   20  C   UNL     1      28.357  44.575  54.161  1.00  0.00     0.042 A 
HETATM   21  C   UNL     1      30.090  42.662  53.179  1.00  0.00     0.001 A 
HETATM   22  C   UNL     1      30.316  43.229  54.431  1.00  0.00     0.002 A 
HETATM   23  C   UNL     1      29.453  44.200  54.946  1.00  0.00     0.030 A 
HETATM   24  N   UNL     1      27.359  45.486  54.415  1.00  0.00    -0.365 N 
HETATM   25  H   UNL     1      27.289  46.040  55.258  1.00  0.00     0.165 HD
HETATM   26  C   UNL     1      26.478  45.527  53.369  1.00  0.00     0.096 A 
ENDBRANCH  16  17
ENDBRANCH  15  16
ENDBRANCH  12  15
ENDBRANCH   1  11
BRANCH   8  27
HETATM   27  C   UNL     1      19.654  47.243  48.826  1.00  0.00     0.409 C 
HETATM   28  F   UNL     1      19.843  45.973  49.229  1.00  0.00    -0.169 F 
HETATM   29  F   UNL     1      19.773  48.030  49.929  1.00  0.00    -0.169 F 
HETATM   30  F   UNL     1      18.365  47.355  48.427  1.00  0.00    -0.169 F 
ENDBRANCH   8  27
BRANCH   6  31
HETATM   31  C   UNL     1      19.220  50.974  48.056  1.00  0.00    -0.033 A 
HETATM   32  C   UNL     1      17.985  51.134  47.398  1.00  0.00     0.049 A 
HETATM   33  C   UNL     1      16.996  51.869  48.021  1.00  0.00     0.105 A 
HETATM   34  C   UNL     1      17.175  52.418  49.267  1.00  0.00     0.105 A 
HETATM   35  O   UNL     1      15.775  52.161  47.496  1.00  0.00    -0.323 OA
HETATM   36  O   UNL     1      16.089  53.120  49.686  1.00  0.00    -0.323 OA
HETATM   37  C   UNL     1      18.353  52.263  49.960  1.00  0.00     0.040 A 
HETATM   38  C   UNL     1      15.229  53.001  48.535  1.00  0.00     0.352 A 
HETATM   39  C   UNL     1      19.383  51.546  49.341  1.00  0.00     0.012 A 
ENDBRANCH   6  31
TORSDOF 6
ENDMDL
MODEL 5
REMARK VINA RESULT:     -10.1      6.348     10.114
REMARK  6 active torsions:
REMARK  status: ('A' for Active; 'I' for Inactive)
REMARK    1  A    between atoms: C_8  and  C_9 
REMARK    2  A    between atoms: C_9  and  C_10 
REMARK    3  A    between atoms: C_10  and  N_11 
REMARK       I    between atoms: N_11  and  C_12 
REMARK    4  A    between atoms: C_12  and  C_13 
REMARK    5  A    between atoms: C_18  and  C_19 
REMARK    6  A    between atoms: C_29  and  C_30 
ROOT
HETATM    1  C   UNL     1      16.938  52.052  49.239  1.00  0.00     0.148 A 
HETATM    2  N   UNL     1      16.917  50.826  48.666  1.00  0.00    -0.165 NA
HETATM    3  N   UNL     1      18.149  50.341  48.923  1.00  0.00    -0.240 N 
HETATM    4  C   UNL     1      18.900  51.144  49.728  1.00  0.00     0.123 A 
HETATM    5  N   UNL     1      20.120  50.784  50.162  1.00  0.00    -0.366 N 
HETATM    6  C   UNL     1      20.725  49.492  49.878  1.00  0.00     0.118 C 
HETATM    7  C   UNL     1      19.740  48.484  49.258  1.00  0.00     0.066 C 
HETATM    8  C   UNL     1      18.602  49.069  48.400  1.00  0.00     0.221 C 
HETATM    9  C   UNL     1      18.164  52.280  49.921  1.00  0.00     0.088 A 
HETATM   10  H   UNL     1      20.691  51.420  50.716  1.00  0.00     0.161 HD
ENDROOT
BRANCH   1  11
HETATM   11  C   UNL     1      15.822  53.005  49.151  1.00  0.00     0.272 C 
HETATM   12  N   UNL     1      15.783  53.934  50.167  1.00  0.00    -0.355 N 
HETATM   13  H   UNL     1      16.600  53.969  50.771  1.00  0.00     0.162 HD
HETATM   14  O   UNL     1      15.000  52.974  48.239  1.00  0.00    -0.266 OA
BRANCH  12  15
HETATM   15  C   UNL     1      14.797  54.993  50.164  1.00  0.00     0.127 C 
BRANCH  15  16
HETATM   16  C   UNL     1      15.204  56.216  50.983  1.00  0.00     0.060 C 
BRANCH  16  17
HETATM   17  C   UNL     1      14.485  56.307  52.294  1.00  0.00    -0.029 A 
HETATM   18  C   UNL     1      14.655  57.301  53.309  1.00  0.00    -0.002 A 
HETATM   19  C   UNL     1      15.473  58.444  53.439  1.00  0.00     0.014 A 
HETATM   20  C   UNL     1      13.786  56.984  54.354  1.00  0.00     0.042 A 
HETATM   21  C   UNL     1      15.394  59.218  54.602  1.00  0.00     0.001 A 
HETATM   22  C   UNL     1      14.517  58.873  55.628  1.00  0.00     0.002 A 
HETATM   23  C   UNL     1      13.694  57.749  55.523  1.00  0.00     0.030 A 
HETATM   24  N   UNL     1      13.112  55.844  53.989  1.00  0.00    -0.365 N 
HETATM   25  H   UNL     1      12.414  55.383  54.557  1.00  0.00     0.165 HD
HETATM   26  C   UNL     1      13.528  55.423  52.755  1.00  0.00     0.096 A 
ENDBRANCH  16  17
ENDBRANCH  15  16
ENDBRANCH  12  15
ENDBRANCH   1  11
BRANCH   8  27
HETATM   27  C   UNL     1      18.954  49.195  46.936  1.00  0.00     0.409 C 
HETATM   28  F   UNL     1      19.933  48.361  46.539  1.00  0.00    -0.169 F 
HETATM   29  F   UNL     1      17.864  48.917  46.172  1.00  0.00    -0.169 F 
HETATM   30  F   UNL     1      19.331  50.451  46.605  1.00  0.00    -0.169 F 
ENDBRANCH   8  27
BRANCH   6  31
HETATM   31  C   UNL     1      22.047  49.672  49.151  1.00  0.00    -0.033 A 
HETATM   32  C   UNL     1      23.157  48.901  49.549  1.00  0.00     0.049 A 
HETATM   33  C   UNL     1      24.379  49.147  48.955  1.00  0.00     0.105 A 
HETATM   34  C   UNL     1      24.531  50.098  47.976  1.00  0.00     0.105 A 
HETATM   35  O   UNL     1      25.551  48.532  49.267  1.00  0.00    -0.323 OA
HETATM   36  O   UNL     1      25.817  50.197  47.543  1.00  0.00    -0.323 OA
HETATM   37  C   UNL     1      23.471  50.854  47.534  1.00  0.00     0.040 A 
HETATM   38  C   UNL     1      26.466  49.242  48.407  1.00  0.00     0.352 A 
HETATM   39  C   UNL     1      22.226  50.644  48.137  1.00  0.00     0.012 A 
ENDBRANCH   6  31
TORSDOF 6
ENDMDL
MODEL 6
REMARK VINA RESULT:     -10.1      4.776     11.463
REMARK  6 active torsions:
REMARK  status: ('A' for Active; 'I' for Inactive)
REMARK    1  A    between atoms: C_8  and  C_9 
REMARK    2  A    between atoms: C_9  and  C_10 
REMARK    3  A    between atoms: C_10  and  N_11 
REMARK       I    between atoms: N_11  and  C_12 
REMARK    4  A    between atoms: C_12  and  C_13 
REMARK    5  A    between atoms: C_18  and  C_19 
REMARK    6  A    between atoms: C_29  and  C_30 
ROOT
HETATM    1  C   UNL     1      21.303  47.116  48.584  1.00  0.00     0.148 A 
HETATM    2  N   UNL     1      21.721  48.312  49.060  1.00  0.00    -0.165 NA
HETATM    3  N   UNL     1      20.573  48.996  49.238  1.00  0.00    -0.240 N 
HETATM    4  C   UNL     1      19.450  48.255  49.014  1.00  0.00     0.123 A 
HETATM    5  N   UNL     1      18.216  48.743  49.227  1.00  0.00    -0.366 N 
HETATM    6  C   UNL     1      17.958  50.066  49.773  1.00  0.00     0.118 C 
HETATM    7  C   UNL     1      19.221  50.751  50.325  1.00  0.00     0.066 C 
HETATM    8  C   UNL     1      20.557  50.383  49.653  1.00  0.00     0.221 C 
HETATM    9  C   UNL     1      19.883  47.044  48.551  1.00  0.00     0.088 A 
HETATM   10  H   UNL     1      17.387  48.196  49.000  1.00  0.00     0.161 HD
ENDROOT
BRANCH   1  11
HETATM   11  C   UNL     1      22.220  46.047  48.162  1.00  0.00     0.272 C 
HETATM   12  N   UNL     1      22.999  45.531  49.174  1.00  0.00    -0.355 N 
HETATM   13  H   UNL     1      22.754  45.820  50.117  1.00  0.00     0.162 HD
HETATM   14  O   UNL     1      22.275  45.647  47.002  1.00  0.00    -0.266 OA
BRANCH  12  15
HETATM   15  C   UNL     1      23.882  44.411  48.929  1.00  0.00     0.127 C 
BRANCH  15  16
HETATM   16  C   UNL     1      25.327  44.662  49.353  1.00  0.00     0.060 C 
BRANCH  16  17
HETATM   17  C   UNL     1      25.578  44.340  50.794  1.00  0.00    -0.029 A 
HETATM   18  C   UNL     1      25.698  45.264  51.881  1.00  0.00    -0.002 A 
HETATM   19  C   UNL     1      25.631  46.669  51.989  1.00  0.00     0.014 A 
HETATM   20  C   UNL     1      25.935  44.520  53.038  1.00  0.00     0.042 A 
HETATM   21  C   UNL     1      25.806  47.272  53.240  1.00  0.00     0.001 A 
HETATM   22  C   UNL     1      26.042  46.501  54.375  1.00  0.00     0.002 A 
HETATM   23  C   UNL     1      26.110  45.107  54.296  1.00  0.00     0.030 A 
HETATM   24  N   UNL     1      25.956  43.196  52.670  1.00  0.00    -0.365 N 
HETATM   25  H   UNL     1      26.108  42.426  53.308  1.00  0.00     0.165 HD
HETATM   26  C   UNL     1      25.748  43.075  51.323  1.00  0.00     0.096 A 
ENDBRANCH  16  17
ENDBRANCH  15  16
ENDBRANCH  12  15
ENDBRANCH   1  11
BRANCH   8  27
HETATM   27  C   UNL     1      20.918  51.284  48.495  1.00  0.00     0.409 C 
HETATM   28  F   UNL     1      22.217  51.633  48.461  1.00  0.00    -0.169 F 
HETATM   29  F   UNL     1      20.646  50.659  47.318  1.00  0.00    -0.169 F 
HETATM   30  F   UNL     1      20.190  52.425  48.486  1.00  0.00    -0.169 F 
ENDBRANCH   8  27
BRANCH   6  31
HETATM   31  C   UNL     1      17.118  50.885  48.809  1.00  0.00    -0.033 A 
HETATM   32  C   UNL     1      16.435  52.020  49.290  1.00  0.00     0.049 A 
HETATM   33  C   UNL     1      15.589  52.695  48.433  1.00  0.00     0.105 A 
HETATM   34  C   UNL     1      15.421  52.308  47.126  1.00  0.00     0.105 A 
HETATM   35  O   UNL     1      14.820  53.768  48.758  1.00  0.00    -0.323 OA
HETATM   36  O   UNL     1      14.529  53.091  46.462  1.00  0.00    -0.323 OA
HETATM   37  C   UNL     1      16.089  51.225  46.603  1.00  0.00     0.040 A 
HETATM   38  C   UNL     1      14.110  53.978  47.519  1.00  0.00     0.352 A 
HETATM   39  C   UNL     1      16.931  50.506  47.458  1.00  0.00     0.012 A 
ENDBRANCH   6  31
TORSDOF 6
ENDMDL
MODEL 7
REMARK VINA RESULT:      -9.9      5.022     12.148
REMARK  6 active torsions:
REMARK  status: ('A' for Active; 'I' for Inactive)
REMARK    1  A    between atoms: C_8  and  C_9 
REMARK    2  A    between atoms: C_9  and  C_10 
REMARK    3  A    between atoms: C_10  and  N_11 
REMARK       I    between atoms: N_11  and  C_12 
REMARK    4  A    between atoms: C_12  and  C_13 
REMARK    5  A    between atoms: C_18  and  C_19 
REMARK    6  A    between atoms: C_29  and  C_30 
ROOT
HETATM    1  C   UNL     1      22.014  48.851  48.895  1.00  0.00     0.148 A 
HETATM    2  N   UNL     1      21.062  49.453  49.645  1.00  0.00    -0.165 NA
HETATM    3  N   UNL     1      20.024  49.574  48.792  1.00  0.00    -0.240 N 
HETATM    4  C   UNL     1      20.229  48.974  47.586  1.00  0.00     0.123 A 
HETATM    5  N   UNL     1      19.273  48.915  46.643  1.00  0.00    -0.366 N 
HETATM    6  C   UNL     1      17.922  49.418  46.836  1.00  0.00     0.118 C 
HETATM    7  C   UNL     1      17.615  49.785  48.299  1.00  0.00     0.066 C 
HETATM    8  C   UNL     1      18.803  50.261  49.157  1.00  0.00     0.221 C 
HETATM    9  C   UNL     1      21.522  48.529  47.600  1.00  0.00     0.088 A 
HETATM   10  H   UNL     1      19.462  48.514  45.726  1.00  0.00     0.161 HD
ENDROOT
BRANCH   1  11
HETATM   11  C   UNL     1      23.374  48.578  49.381  1.00  0.00     0.272 C 
HETATM   12  N   UNL     1      23.558  47.308  49.880  1.00  0.00    -0.355 N 
HETATM   13  H   UNL     1      22.799  46.651  49.719  1.00  0.00     0.162 HD
HETATM   14  O   UNL     1      24.271  49.417  49.335  1.00  0.00    -0.266 OA
BRANCH  12  15
HETATM   15  C   UNL     1      24.867  46.864  50.309  1.00  0.00     0.127 C 
BRANCH  15  16
HETATM   16  C   UNL     1      25.116  47.036  51.806  1.00  0.00     0.060 C 
BRANCH  16  17
HETATM   17  C   UNL     1      26.025  45.989  52.371  1.00  0.00    -0.029 A 
HETATM   18  C   UNL     1      26.879  46.105  53.514  1.00  0.00    -0.002 A 
HETATM   19  C   UNL     1      27.151  47.137  54.437  1.00  0.00     0.014 A 
HETATM   20  C   UNL     1      27.544  44.888  53.665  1.00  0.00     0.042 A 
HETATM   21  C   UNL     1      28.074  46.916  55.465  1.00  0.00     0.001 A 
HETATM   22  C   UNL     1      28.723  45.690  55.587  1.00  0.00     0.002 A 
HETATM   23  C   UNL     1      28.468  44.650  54.689  1.00  0.00     0.030 A 
HETATM   24  N   UNL     1      27.112  44.062  52.656  1.00  0.00    -0.365 N 
HETATM   25  H   UNL     1      27.428  43.112  52.517  1.00  0.00     0.165 HD
HETATM   26  C   UNL     1      26.203  44.714  51.867  1.00  0.00     0.096 A 
ENDBRANCH  16  17
ENDBRANCH  15  16
ENDBRANCH  12  15
ENDBRANCH   1  11
BRANCH   8  27
HETATM   27  C   UNL     1      19.009  51.758  49.121  1.00  0.00     0.409 C 
HETATM   28  F   UNL     1      19.886  52.164  48.185  1.00  0.00    -0.169 F 
HETATM   29  F   UNL     1      17.830  52.382  48.857  1.00  0.00    -0.169 F 
HETATM   30  F   UNL     1      19.430  52.246  50.311  1.00  0.00    -0.169 F 
ENDBRANCH   8  27
BRANCH   6  31
HETATM   31  C   UNL     1      17.595  50.476  45.797  1.00  0.00    -0.033 A 
HETATM   32  C   UNL     1      18.156  50.368  44.509  1.00  0.00     0.049 A 
HETATM   33  C   UNL     1      17.939  51.390  43.606  1.00  0.00     0.105 A 
HETATM   34  C   UNL     1      17.172  52.485  43.920  1.00  0.00     0.105 A 
HETATM   35  O   UNL     1      18.456  51.462  42.350  1.00  0.00    -0.323 OA
HETATM   36  O   UNL     1      17.105  53.382  42.900  1.00  0.00    -0.323 OA
HETATM   37  C   UNL     1      16.580  52.621  45.153  1.00  0.00     0.040 A 
HETATM   38  C   UNL     1      17.968  52.754  41.931  1.00  0.00     0.352 A 
HETATM   39  C   UNL     1      16.805  51.613  46.098  1.00  0.00     0.012 A 
ENDBRANCH   6  31
TORSDOF 6
ENDMDL
MODEL 8
REMARK VINA RESULT:      -9.5      4.762     12.056
REMARK  6 active torsions:
REMARK  status: ('A' for Active; 'I' for Inactive)
REMARK    1  A    between atoms: C_8  and  C_9 
REMARK    2  A    between atoms: C_9  and  C_10 
REMARK    3  A    between atoms: C_10  and  N_11 
REMARK       I    between atoms: N_11  and  C_12 
REMARK    4  A    between atoms: C_12  and  C_13 
REMARK    5  A    between atoms: C_18  and  C_19 
REMARK    6  A    between atoms: C_29  and  C_30 
ROOT
HETATM    1  C   UNL     1      20.681  47.248  48.620  1.00  0.00     0.148 A 
HETATM    2  N   UNL     1      21.007  48.426  49.201  1.00  0.00    -0.165 NA
HETATM    3  N   UNL     1      19.874  49.149  49.097  1.00  0.00    -0.240 N 
HETATM    4  C   UNL     1      18.819  48.450  48.591  1.00  0.00     0.123 A 
HETATM    5  N   UNL     1      17.587  48.981  48.497  1.00  0.00    -0.366 N 
HETATM    6  C   UNL     1      17.246  50.309  48.980  1.00  0.00     0.118 C 
HETATM    7  C   UNL     1      18.353  50.947  49.838  1.00  0.00     0.066 C 
HETATM    8  C   UNL     1      19.802  50.534  49.514  1.00  0.00     0.221 C 
HETATM    9  C   UNL     1      19.313  47.226  48.233  1.00  0.00     0.088 A 
HETATM   10  H   UNL     1      16.824  48.464  48.063  1.00  0.00     0.161 HD
ENDROOT
BRANCH   1  11
HETATM   11  C   UNL     1      21.638  46.149  48.425  1.00  0.00     0.272 C 
HETATM   12  N   UNL     1      22.798  46.265  49.160  1.00  0.00    -0.355 N 
HETATM   13  H   UNL     1      22.806  46.995  49.867  1.00  0.00     0.162 HD
HETATM   14  O   UNL     1      21.412  45.205  47.673  1.00  0.00    -0.266 OA
BRANCH  12  15
HETATM   15  C   UNL     1      23.792  45.214  49.143  1.00  0.00     0.127 C 
BRANCH  15  16
HETATM   16  C   UNL     1      23.987  44.528  50.493  1.00  0.00     0.060 C 
BRANCH  16  17
HETATM   17  C   UNL     1      25.427  44.419  50.890  1.00  0.00    -0.029 A 
HETATM   18  C   UNL     1      25.954  44.287  52.214  1.00  0.00    -0.002 A 
HETATM   19  C   UNL     1      25.377  44.215  53.500  1.00  0.00     0.014 A 
HETATM   20  C   UNL     1      27.344  44.227  52.107  1.00  0.00     0.042 A 
HETATM   21  C   UNL     1      26.205  44.092  54.621  1.00  0.00     0.001 A 
HETATM   22  C   UNL     1      27.590  44.037  54.480  1.00  0.00     0.002 A 
HETATM   23  C   UNL     1      28.187  44.102  53.217  1.00  0.00     0.030 A 
HETATM   24  N   UNL     1      27.652  44.317  50.771  1.00  0.00    -0.365 N 
HETATM   25  H   UNL     1      28.590  44.301  50.396  1.00  0.00     0.165 HD
HETATM   26  C   UNL     1      26.508  44.439  50.029  1.00  0.00     0.096 A 
ENDBRANCH  16  17
ENDBRANCH  15  16
ENDBRANCH  12  15
ENDBRANCH   1  11
BRANCH   8  27
HETATM   27  C   UNL     1      20.469  51.428  48.494  1.00  0.00     0.409 C 
HETATM   28  F   UNL     1      21.774  51.651  48.738  1.00  0.00    -0.169 F 
HETATM   29  F   UNL     1      20.389  50.863  47.259  1.00  0.00    -0.169 F 
HETATM   30  F   UNL     1      19.862  52.633  48.392  1.00  0.00    -0.169 F 
ENDBRANCH   8  27
BRANCH   6  31
HETATM   31  C   UNL     1      16.699  51.163  47.848  1.00  0.00    -0.033 A 
HETATM   32  C   UNL     1      17.345  51.134  46.596  1.00  0.00     0.049 A 
HETATM   33  C   UNL     1      16.907  51.992  45.607  1.00  0.00     0.105 A 
HETATM   34  C   UNL     1      15.849  52.846  45.803  1.00  0.00     0.105 A 
HETATM   35  O   UNL     1      17.458  52.126  44.371  1.00  0.00    -0.323 OA
HETATM   36  O   UNL     1      15.596  53.620  44.714  1.00  0.00    -0.323 OA
HETATM   37  C   UNL     1      15.169  52.888  46.998  1.00  0.00     0.040 A 
HETATM   38  C   UNL     1      16.656  53.198  43.832  1.00  0.00     0.352 A 
HETATM   39  C   UNL     1      15.609  52.048  48.027  1.00  0.00     0.012 A 
ENDBRANCH   6  31
TORSDOF 6
ENDMDL
MODEL 9
REMARK VINA RESULT:      -9.5      1.441      2.185
REMARK  6 active torsions:
REMARK  status: ('A' for Active; 'I' for Inactive)
REMARK    1  A    between atoms: C_8  and  C_9 
REMARK    2  A    between atoms: C_9  and  C_10 
REMARK    3  A    between atoms: C_10  and  N_11 
REMARK       I    between atoms: N_11  and  C_12 
REMARK    4  A    between atoms: C_12  and  C_13 
REMARK    5  A    between atoms: C_18  and  C_19 
REMARK    6  A    between atoms: C_29  and  C_30 
ROOT
HETATM    1  C   UNL     1      24.587  47.506  50.063  1.00  0.00     0.148 A 
HETATM    2  N   UNL     1      24.840  46.206  49.781  1.00  0.00    -0.165 NA
HETATM    3  N   UNL     1      25.304  45.718  50.949  1.00  0.00    -0.240 N 
HETATM    4  C   UNL     1      25.244  46.608  51.981  1.00  0.00     0.123 A 
HETATM    5  N   UNL     1      25.580  46.271  53.238  1.00  0.00    -0.366 N 
HETATM    6  C   UNL     1      25.971  44.927  53.632  1.00  0.00     0.118 C 
HETATM    7  C   UNL     1      25.715  43.875  52.538  1.00  0.00     0.066 C 
HETATM    8  C   UNL     1      25.793  44.362  51.078  1.00  0.00     0.221 C 
HETATM    9  C   UNL     1      24.822  47.789  51.436  1.00  0.00     0.088 A 
HETATM   10  H   UNL     1      25.584  46.963  53.985  1.00  0.00     0.161 HD
ENDROOT
BRANCH   1  11
HETATM   11  C   UNL     1      24.131  48.478  49.059  1.00  0.00     0.272 C 
HETATM   12  N   UNL     1      22.762  48.606  48.970  1.00  0.00    -0.355 N 
HETATM   13  H   UNL     1      22.222  48.147  49.699  1.00  0.00     0.162 HD
HETATM   14  O   UNL     1      24.912  49.125  48.366  1.00  0.00    -0.266 OA
BRANCH  12  15
HETATM   15  C   UNL     1      22.167  49.591  48.092  1.00  0.00     0.127 C 
BRANCH  15  16
HETATM   16  C   UNL     1      21.651  50.832  48.818  1.00  0.00     0.060 C 
BRANCH  16  17
HETATM   17  C   UNL     1      20.186  51.063  48.609  1.00  0.00    -0.029 A 
HETATM   18  C   UNL     1      19.144  50.083  48.612  1.00  0.00    -0.002 A 
HETATM   19  C   UNL     1      19.110  48.684  48.793  1.00  0.00     0.014 A 
HETATM   20  C   UNL     1      17.942  50.749  48.371  1.00  0.00     0.042 A 
HETATM   21  C   UNL     1      17.886  48.010  48.724  1.00  0.00     0.001 A 
HETATM   22  C   UNL     1      16.704  48.705  48.480  1.00  0.00     0.002 A 
HETATM   23  C   UNL     1      16.709  50.091  48.300  1.00  0.00     0.030 A 
HETATM   24  N   UNL     1      18.240  52.083  48.230  1.00  0.00    -0.365 N 
HETATM   25  H   UNL     1      17.558  52.807  48.047  1.00  0.00     0.165 HD
HETATM   26  C   UNL     1      19.587  52.284  48.365  1.00  0.00     0.096 A 
ENDBRANCH  16  17
ENDBRANCH  15  16
ENDBRANCH  12  15
ENDBRANCH   1  11
BRANCH   8  27
HETATM   27  C   UNL     1      27.174  44.240  50.476  1.00  0.00     0.409 C 
HETATM   28  F   UNL     1      27.983  43.393  51.139  1.00  0.00    -0.169 F 
HETATM   29  F   UNL     1      27.083  43.782  49.199  1.00  0.00    -0.169 F 
HETATM   30  F   UNL     1      27.809  45.432  50.400  1.00  0.00    -0.169 F 
ENDBRANCH   8  27
BRANCH   6  31
HETATM   31  C   UNL     1      27.362  44.934  54.242  1.00  0.00    -0.033 A 
HETATM   32  C   UNL     1      28.081  43.726  54.321  1.00  0.00     0.049 A 
HETATM   33  C   UNL     1      29.298  43.723  54.973  1.00  0.00     0.105 A 
HETATM   34  C   UNL     1      29.833  44.865  55.516  1.00  0.00     0.105 A 
HETATM   35  O   UNL     1      30.084  42.632  55.183  1.00  0.00    -0.323 OA
HETATM   36  O   UNL     1      31.025  44.640  56.132  1.00  0.00    -0.323 OA
HETATM   37  C   UNL     1      29.182  46.074  55.438  1.00  0.00     0.040 A 
HETATM   38  C   UNL     1      31.148  43.213  55.966  1.00  0.00     0.352 A 
HETATM   39  C   UNL     1      27.934  46.101  54.806  1.00  0.00     0.012 A 
ENDBRANCH   6  31
TORSDOF 6
ENDMDL
MODEL 10
REMARK VINA RESULT:      -9.4     12.559     16.208
REMARK  6 active torsions:
REMARK  status: ('A' for Active; 'I' for Inactive)
REMARK    1  A    between atoms: C_8  and  C_9 
REMARK    2  A    between atoms: C_9  and  C_10 
REMARK    3  A    between atoms: C_10  and  N_11 
REMARK       I    between atoms: N_11  and  C_12 
REMARK    4  A    between atoms: C_12  and  C_13 
REMARK    5  A    between atoms: C_18  and  C_19 
REMARK    6  A    between atoms: C_29  and  C_30 
ROOT
HETATM    1  C   UNL     1      33.652  51.212  42.267  1.00  0.00     0.148 A 
HETATM    2  N   UNL     1      33.146  51.995  41.286  1.00  0.00    -0.165 NA
HETATM    3  N   UNL     1      31.897  51.514  41.117  1.00  0.00    -0.240 N 
HETATM    4  C   UNL     1      31.550  50.553  42.019  1.00  0.00     0.123 A 
HETATM    5  N   UNL     1      30.316  50.022  42.061  1.00  0.00    -0.366 N 
HETATM    6  C   UNL     1      29.224  50.459  41.206  1.00  0.00     0.118 C 
HETATM    7  C   UNL     1      29.537  51.754  40.436  1.00  0.00     0.066 C 
HETATM    8  C   UNL     1      31.015  52.007  40.081  1.00  0.00     0.221 C 
HETATM    9  C   UNL     1      32.675  50.303  42.756  1.00  0.00     0.088 A 
HETATM   10  H   UNL     1      30.091  49.264  42.703  1.00  0.00     0.161 HD
ENDROOT
BRANCH   1  11
HETATM   11  C   UNL     1      35.039  51.310  42.746  1.00  0.00     0.272 C 
HETATM   12  N   UNL     1      35.257  52.318  43.660  1.00  0.00    -0.355 N 
HETATM   13  H   UNL     1      34.426  52.778  44.024  1.00  0.00     0.162 HD
HETATM   14  O   UNL     1      35.923  50.548  42.365  1.00  0.00    -0.266 OA
BRANCH  12  15
HETATM   15  C   UNL     1      36.550  52.478  44.290  1.00  0.00     0.127 C 
BRANCH  15  16
HETATM   16  C   UNL     1      36.943  53.935  44.528  1.00  0.00     0.060 C 
BRANCH  16  17
HETATM   17  C   UNL     1      38.359  54.089  44.989  1.00  0.00    -0.029 A 
HETATM   18  C   UNL     1      38.847  54.015  46.332  1.00  0.00    -0.002 A 
HETATM   19  C   UNL     1      38.242  53.790  47.587  1.00  0.00     0.014 A 
HETATM   20  C   UNL     1      40.226  54.225  46.289  1.00  0.00     0.042 A 
HETATM   21  C   UNL     1      39.032  53.788  48.742  1.00  0.00     0.001 A 
HETATM   22  C   UNL     1      40.406  54.004  48.665  1.00  0.00     0.002 A 
HETATM   23  C   UNL     1      41.030  54.225  47.434  1.00  0.00     0.030 A 
HETATM   24  N   UNL     1      40.565  54.419  44.971  1.00  0.00    -0.365 N 
HETATM   25  H   UNL     1      41.504  54.595  44.641  1.00  0.00     0.165 HD
HETATM   26  C   UNL     1      39.451  54.345  44.180  1.00  0.00     0.096 A 
ENDBRANCH  16  17
ENDBRANCH  15  16
ENDBRANCH  12  15
ENDBRANCH   1  11
BRANCH   8  27
HETATM   27  C   UNL     1      31.415  51.446  38.736  1.00  0.00     0.409 C 
HETATM   28  F   UNL     1      30.485  51.614  37.778  1.00  0.00    -0.169 F 
HETATM   29  F   UNL     1      32.548  52.057  38.298  1.00  0.00    -0.169 F 
HETATM   30  F   UNL     1      31.703  50.125  38.796  1.00  0.00    -0.169 F 
ENDBRANCH   8  27
BRANCH   6  31
HETATM   31  C   UNL     1      28.698  49.298  40.379  1.00  0.00    -0.033 A 
HETATM   32  C   UNL     1      29.028  47.982  40.759  1.00  0.00     0.049 A 
HETATM   33  C   UNL     1      28.636  46.941  39.941  1.00  0.00     0.105 A 
HETATM   34  C   UNL     1      27.913  47.153  38.793  1.00  0.00     0.105 A 
HETATM   35  O   UNL     1      28.924  45.626  40.137  1.00  0.00    -0.323 OA
HETATM   36  O   UNL     1      27.650  45.998  38.124  1.00  0.00    -0.323 OA
HETATM   37  C   UNL     1      27.542  48.417  38.397  1.00  0.00     0.040 A 
HETATM   38  C   UNL     1      28.344  45.043  38.952  1.00  0.00     0.352 A 
HETATM   39  C   UNL     1      27.950  49.493  39.193  1.00  0.00     0.012 A 
ENDBRANCH   6  31
TORSDOF 6
ENDMDL
