MODEL 1
REMARK VINA RESULT:     -11.6      0.000      0.000
REMARK  7 active torsions:
REMARK  status: ('A' for Active; 'I' for Inactive)
REMARK    1  A    between atoms: C_3  and  S_4 
REMARK    2  A    between atoms: S_4  and  N_5 
REMARK    3  A    between atoms: N_5  and  C_6 
REMARK    4  A    between atoms: C_6  and  C_7 
REMARK    5  A    between atoms: C_20  and  C_21 
REMARK    6  A    between atoms: C_25  and  N_26 
REMARK    7  A    between atoms: N_26  and  C_27 
ROOT
HETATM    1  C   UNL     1      28.068  43.128  52.493  1.00  0.00     0.050 C 
HETATM    2  C   UNL     1      27.088  44.037  51.805  1.00  0.00    -0.039 A 
HETATM    3  C   UNL     1      26.039  44.704  52.461  1.00  0.00     0.081 A 
HETATM    4  C   UNL     1      25.143  45.506  51.730  1.00  0.00     0.039 A 
HETATM    5  C   UNL     1      25.301  45.714  50.351  1.00  0.00    -0.003 A 
HETATM    6  C   UNL     1      26.340  45.038  49.701  1.00  0.00     0.014 A 
HETATM    7  C   UNL     1      27.212  44.209  50.415  1.00  0.00     0.009 A 
ENDROOT
BRANCH   5   8
HETATM    8  C   UNL     1      24.381  46.594  49.613  1.00  0.00     0.098 A 
HETATM    9  N   UNL     1      23.135  46.095  49.507  1.00  0.00    -0.172 NA
HETATM   10  N   UNL     1      22.199  46.837  48.945  1.00  0.00    -0.262 N 
HETATM   11  H   UNL     1      21.266  46.444  48.887  1.00  0.00     0.191 HD
HETATM   12  C   UNL     1      22.397  48.071  48.451  1.00  0.00     0.129 A 
HETATM   13  C   UNL     1      23.701  48.630  48.547  1.00  0.00     0.022 A 
HETATM   14  C   UNL     1      24.732  47.860  49.120  1.00  0.00     0.009 A 
HETATM   15  C   UNL     1      24.012  49.941  48.106  1.00  0.00     0.016 A 
HETATM   16  C   UNL     1      26.044  48.398  49.173  1.00  0.00     0.015 A 
HETATM   17  C   UNL     1      26.324  49.685  48.718  1.00  0.00     0.001 A 
HETATM   18  C   UNL     1      25.305  50.461  48.192  1.00  0.00     0.001 A 
BRANCH  12  19
HETATM   19  N   UNL     1      21.340  48.804  47.916  1.00  0.00    -0.370 N 
HETATM   20  H   UNL     1      21.288  48.693  46.900  1.00  0.00     0.161 HD
BRANCH  19  21
HETATM   21  C   UNL     1      20.018  48.959  48.536  1.00  0.00     0.083 C 
HETATM   22  C   UNL     1      20.121  49.733  49.859  1.00  0.00     0.025 C 
HETATM   23  C   UNL     1      20.513  51.197  49.659  1.00  0.00     0.002 C 
HETATM   24  C   UNL     1      19.570  51.904  48.693  1.00  0.00     0.000 C 
HETATM   25  C   UNL     1      19.465  51.162  47.365  1.00  0.00     0.002 C 
HETATM   26  C   UNL     1      19.081  49.695  47.563  1.00  0.00     0.025 C 
ENDBRANCH  19  21
ENDBRANCH  12  19
ENDBRANCH   5   8
BRANCH   3  27
HETATM   27  S   UNL     1      25.755  44.587  54.229  1.00  0.00     0.242 S 
HETATM   28  O   UNL     1      24.352  44.291  54.425  1.00  0.00    -0.206 OA
HETATM   29  O   UNL     1      26.789  43.770  54.813  1.00  0.00    -0.206 OA
BRANCH  27  30
HETATM   30  N   UNL     1      26.030  46.187  54.715  1.00  0.00    -0.208 NA
HETATM   31  H   UNL     1      25.849  46.297  55.716  1.00  0.00     0.140 HD
BRANCH  30  32
HETATM   32  C   UNL     1      27.342  46.730  54.325  1.00  0.00     0.182 C 
BRANCH  32  33
HETATM   33  C   UNL     1      28.376  46.178  55.241  1.00  0.00     0.119 A 
HETATM   34  N   UNL     1      28.578  46.525  56.499  1.00  0.00    -0.232 NA
HETATM   35  C   UNL     1      29.603  45.717  56.938  1.00  0.00     0.085 A 
HETATM   36  C   UNL     1      30.053  44.887  55.917  1.00  0.00     0.062 A 
HETATM   37  C   UNL     1      30.204  45.634  58.203  1.00  0.00     0.034 A 
HETATM   38  N   UNL     1      29.264  45.208  54.845  1.00  0.00    -0.342 N 
HETATM   39  C   UNL     1      31.090  43.966  56.078  1.00  0.00     0.032 A 
HETATM   40  H   UNL     1      29.322  44.802  53.920  1.00  0.00     0.167 HD
HETATM   41  C   UNL     1      31.676  43.895  57.347  1.00  0.00     0.002 A 
HETATM   42  C   UNL     1      31.242  44.712  58.394  1.00  0.00     0.002 A 
ENDBRANCH  32  33
ENDBRANCH  30  32
ENDBRANCH  27  30
ENDBRANCH   3  27
TORSDOF 7
ENDMDL
MODEL 2
REMARK VINA RESULT:     -11.2      2.239      4.216
REMARK  7 active torsions:
REMARK  status: ('A' for Active; 'I' for Inactive)
REMARK    1  A    between atoms: C_3  and  S_4 
REMARK    2  A    between atoms: S_4  and  N_5 
REMARK    3  A    between atoms: N_5  and  C_6 
REMARK    4  A    between atoms: C_6  and  C_7 
REMARK    5  A    between atoms: C_20  and  C_21 
REMARK    6  A    between atoms: C_25  and  N_26 
REMARK    7  A    between atoms: N_26  and  C_27 
ROOT
HETATM    1  C   UNL     1      27.642  48.509  49.136  1.00  0.00     0.050 C 
HETATM    2  C   UNL     1      26.152  48.703  49.199  1.00  0.00    -0.039 A 
HETATM    3  C   UNL     1      25.283  47.884  49.941  1.00  0.00     0.081 A 
HETATM    4  C   UNL     1      23.895  48.114  49.911  1.00  0.00     0.039 A 
HETATM    5  C   UNL     1      23.345  49.192  49.200  1.00  0.00    -0.003 A 
HETATM    6  C   UNL     1      24.214  49.996  48.454  1.00  0.00     0.014 A 
HETATM    7  C   UNL     1      25.591  49.750  48.448  1.00  0.00     0.009 A 
ENDROOT
BRANCH   5   8
HETATM    8  C   UNL     1      21.896  49.444  49.219  1.00  0.00     0.098 A 
HETATM    9  N   UNL     1      21.535  50.425  50.068  1.00  0.00    -0.172 NA
HETATM   10  N   UNL     1      20.272  50.803  50.104  1.00  0.00    -0.262 N 
HETATM   11  H   UNL     1      20.028  51.552  50.744  1.00  0.00     0.191 HD
HETATM   12  C   UNL     1      19.294  50.269  49.353  1.00  0.00     0.129 A 
HETATM   13  C   UNL     1      19.637  49.231  48.444  1.00  0.00     0.022 A 
HETATM   14  C   UNL     1      20.973  48.785  48.392  1.00  0.00     0.009 A 
HETATM   15  C   UNL     1      18.698  48.631  47.567  1.00  0.00     0.016 A 
HETATM   16  C   UNL     1      21.307  47.717  47.520  1.00  0.00     0.015 A 
HETATM   17  C   UNL     1      20.360  47.135  46.681  1.00  0.00     0.001 A 
HETATM   18  C   UNL     1      19.055  47.600  46.697  1.00  0.00     0.001 A 
BRANCH  12  19
HETATM   19  N   UNL     1      17.992  50.761  49.421  1.00  0.00    -0.370 N 
HETATM   20  H   UNL     1      17.483  50.357  50.210  1.00  0.00     0.161 HD
BRANCH  19  21
HETATM   21  C   UNL     1      17.597  52.148  49.144  1.00  0.00     0.083 C 
HETATM   22  C   UNL     1      18.331  52.691  47.908  1.00  0.00     0.025 C 
HETATM   23  C   UNL     1      17.893  52.008  46.613  1.00  0.00     0.002 C 
HETATM   24  C   UNL     1      16.383  52.085  46.420  1.00  0.00     0.000 C 
HETATM   25  C   UNL     1      15.632  51.535  47.628  1.00  0.00     0.002 C 
HETATM   26  C   UNL     1      16.075  52.212  48.927  1.00  0.00     0.025 C 
ENDBRANCH  19  21
ENDBRANCH  12  19
ENDBRANCH   5   8
BRANCH   3  27
HETATM   27  S   UNL     1      25.849  46.513  50.951  1.00  0.00     0.242 S 
HETATM   28  O   UNL     1      24.677  45.797  51.407  1.00  0.00    -0.206 OA
HETATM   29  O   UNL     1      26.926  45.842  50.265  1.00  0.00    -0.206 OA
BRANCH  27  30
HETATM   30  N   UNL     1      26.516  47.331  52.277  1.00  0.00    -0.208 NA
HETATM   31  H   UNL     1      26.350  48.338  52.200  1.00  0.00     0.140 HD
BRANCH  30  32
HETATM   32  C   UNL     1      26.116  46.800  53.591  1.00  0.00     0.182 C 
BRANCH  32  33
HETATM   33  C   UNL     1      27.253  46.023  54.155  1.00  0.00     0.119 A 
HETATM   34  N   UNL     1      27.635  44.813  53.793  1.00  0.00    -0.232 NA
HETATM   35  C   UNL     1      28.746  44.538  54.559  1.00  0.00     0.085 A 
HETATM   36  C   UNL     1      29.022  45.589  55.427  1.00  0.00     0.062 A 
HETATM   37  C   UNL     1      29.575  43.406  54.569  1.00  0.00     0.034 A 
HETATM   38  N   UNL     1      28.052  46.517  55.158  1.00  0.00    -0.342 N 
HETATM   39  C   UNL     1      30.090  45.580  56.327  1.00  0.00     0.032 A 
HETATM   40  H   UNL     1      27.940  47.411  55.616  1.00  0.00     0.167 HD
HETATM   41  C   UNL     1      30.908  44.445  56.321  1.00  0.00     0.002 A 
HETATM   42  C   UNL     1      30.658  43.375  55.457  1.00  0.00     0.002 A 
ENDBRANCH  32  33
ENDBRANCH  30  32
ENDBRANCH  27  30
ENDBRANCH   3  27
TORSDOF 7
ENDMDL
MODEL 3
REMARK VINA RESULT:     -11.1      2.301      4.288
REMARK  7 active torsions:
REMARK  status: ('A' for Active; 'I' for Inactive)
REMARK    1  A    between atoms: C_3  and  S_4 
REMARK    2  A    between atoms: S_4  and  N_5 
REMARK    3  A    between atoms: N_5  and  C_6 
REMARK    4  A    between atoms: C_6  and  C_7 
REMARK    5  A    between atoms: C_20  and  C_21 
REMARK    6  A    between atoms: C_25  and  N_26 
REMARK    7  A    between atoms: N_26  and  C_27 
ROOT
HETATM    1  C   UNL     1      27.458  48.840  49.452  1.00  0.00     0.050 C 
HETATM    2  C   UNL     1      25.988  48.765  49.146  1.00  0.00    -0.039 A 
HETATM    3  C   UNL     1      25.127  47.782  49.663  1.00  0.00     0.081 A 
HETATM    4  C   UNL     1      23.770  47.763  49.291  1.00  0.00     0.039 A 
HETATM    5  C   UNL     1      23.225  48.747  48.452  1.00  0.00    -0.003 A 
HETATM    6  C   UNL     1      24.090  49.716  47.931  1.00  0.00     0.014 A 
HETATM    7  C   UNL     1      25.448  49.719  48.266  1.00  0.00     0.009 A 
ENDROOT
BRANCH   5   8
HETATM    8  C   UNL     1      21.794  48.738  48.112  1.00  0.00     0.098 A 
HETATM    9  N   UNL     1      21.469  47.810  47.192  1.00  0.00    -0.172 NA
HETATM   10  N   UNL     1      20.199  47.645  46.875  1.00  0.00    -0.262 N 
HETATM   11  H   UNL     1      19.978  46.932  46.188  1.00  0.00     0.191 HD
HETATM   12  C   UNL     1      19.183  48.351  47.401  1.00  0.00     0.129 A 
HETATM   13  C   UNL     1      19.488  49.339  48.376  1.00  0.00     0.022 A 
HETATM   14  C   UNL     1      20.835  49.560  48.725  1.00  0.00     0.009 A 
HETATM   15  C   UNL     1      18.494  50.108  49.034  1.00  0.00     0.016 A 
HETATM   16  C   UNL     1      21.145  50.579  49.663  1.00  0.00     0.015 A 
HETATM   17  C   UNL     1      20.148  51.329  50.282  1.00  0.00     0.001 A 
HETATM   18  C   UNL     1      18.819  51.086  49.974  1.00  0.00     0.001 A 
BRANCH  12  19
HETATM   19  N   UNL     1      17.864  48.080  47.043  1.00  0.00    -0.370 N 
HETATM   20  H   UNL     1      17.215  48.349  47.787  1.00  0.00     0.161 HD
BRANCH  19  21
HETATM   21  C   UNL     1      17.295  48.266  45.702  1.00  0.00     0.083 C 
HETATM   22  C   UNL     1      15.814  47.858  45.674  1.00  0.00     0.025 C 
HETATM   23  C   UNL     1      14.926  48.796  46.490  1.00  0.00     0.002 C 
HETATM   24  C   UNL     1      15.094  50.248  46.056  1.00  0.00     0.000 C 
HETATM   25  C   UNL     1      16.556  50.681  46.093  1.00  0.00     0.002 C 
HETATM   26  C   UNL     1      17.448  49.738  45.283  1.00  0.00     0.025 C 
ENDBRANCH  19  21
ENDBRANCH  12  19
ENDBRANCH   5   8
BRANCH   3  27
HETATM   27  S   UNL     1      25.666  46.502  50.800  1.00  0.00     0.242 S 
HETATM   28  O   UNL     1      24.504  45.715  51.151  1.00  0.00    -0.206 OA
HETATM   29  O   UNL     1      26.864  45.891  50.277  1.00  0.00    -0.206 OA
BRANCH  27  30
HETATM   30  N   UNL     1      26.108  47.424  52.151  1.00  0.00    -0.208 NA
HETATM   31  H   UNL     1      25.735  48.374  52.077  1.00  0.00     0.140 HD
BRANCH  30  32
HETATM   32  C   UNL     1      25.792  46.802  53.448  1.00  0.00     0.182 C 
BRANCH  32  33
HETATM   33  C   UNL     1      27.005  46.097  53.944  1.00  0.00     0.119 A 
HETATM   34  N   UNL     1      27.804  46.496  54.916  1.00  0.00    -0.232 NA
HETATM   35  C   UNL     1      28.750  45.503  55.040  1.00  0.00     0.085 A 
HETATM   36  C   UNL     1      28.540  44.498  54.102  1.00  0.00     0.062 A 
HETATM   37  C   UNL     1      29.824  45.389  55.935  1.00  0.00     0.034 A 
HETATM   38  N   UNL     1      27.430  44.905  53.410  1.00  0.00    -0.342 N 
HETATM   39  C   UNL     1      29.352  43.368  53.993  1.00  0.00     0.032 A 
HETATM   40  H   UNL     1      26.996  44.416  52.639  1.00  0.00     0.167 HD
HETATM   41  C   UNL     1      30.416  43.269  54.896  1.00  0.00     0.002 A 
HETATM   42  C   UNL     1      30.650  44.260  55.853  1.00  0.00     0.002 A 
ENDBRANCH  32  33
ENDBRANCH  30  32
ENDBRANCH  27  30
ENDBRANCH   3  27
TORSDOF 7
ENDMDL
MODEL 4
REMARK VINA RESULT:     -11.1     11.585     14.324
REMARK  7 active torsions:
REMARK  status: ('A' for Active; 'I' for Inactive)
REMARK    1  A    between atoms: C_3  and  S_4 
REMARK    2  A    between atoms: S_4  and  N_5 
REMARK    3  A    between atoms: N_5  and  C_6 
REMARK    4  A    between atoms: C_6  and  C_7 
REMARK    5  A    between atoms: C_20  and  C_21 
REMARK    6  A    between atoms: C_25  and  N_26 
REMARK    7  A    between atoms: N_26  and  C_27 
ROOT
HETATM    1  C   UNL     1      36.019  52.694  44.406  1.00  0.00     0.050 C 
HETATM    2  C   UNL     1      34.764  52.058  43.876  1.00  0.00    -0.039 A 
HETATM    3  C   UNL     1      34.651  51.488  42.596  1.00  0.00     0.081 A 
HETATM    4  C   UNL     1      33.425  50.948  42.167  1.00  0.00     0.039 A 
HETATM    5  C   UNL     1      32.305  50.905  43.013  1.00  0.00    -0.003 A 
HETATM    6  C   UNL     1      32.420  51.484  44.282  1.00  0.00     0.014 A 
HETATM    7  C   UNL     1      33.626  52.057  44.701  1.00  0.00     0.009 A 
ENDROOT
BRANCH   5   8
HETATM    8  C   UNL     1      31.046  50.294  42.562  1.00  0.00     0.098 A 
HETATM    9  N   UNL     1      31.003  48.960  42.745  1.00  0.00    -0.172 NA
HETATM   10  N   UNL     1      29.888  48.315  42.463  1.00  0.00    -0.262 N 
HETATM   11  H   UNL     1      29.877  47.312  42.620  1.00  0.00     0.191 HD
HETATM   12  C   UNL     1      28.770  48.892  41.989  1.00  0.00     0.129 A 
HETATM   13  C   UNL     1      28.778  50.299  41.785  1.00  0.00     0.022 A 
HETATM   14  C   UNL     1      29.958  51.021  42.053  1.00  0.00     0.009 A 
HETATM   15  C   UNL     1      27.641  51.020  41.338  1.00  0.00     0.016 A 
HETATM   16  C   UNL     1      29.982  52.418  41.804  1.00  0.00     0.015 A 
HETATM   17  C   UNL     1      28.854  53.097  41.350  1.00  0.00     0.001 A 
HETATM   18  C   UNL     1      27.679  52.399  41.126  1.00  0.00     0.001 A 
BRANCH  12  19
HETATM   19  N   UNL     1      27.619  48.141  41.763  1.00  0.00    -0.370 N 
HETATM   20  H   UNL     1      26.786  48.624  42.108  1.00  0.00     0.161 HD
BRANCH  19  21
HETATM   21  C   UNL     1      27.351  47.345  40.558  1.00  0.00     0.083 C 
HETATM   22  C   UNL     1      27.225  45.853  40.903  1.00  0.00     0.025 C 
HETATM   23  C   UNL     1      25.979  45.541  41.731  1.00  0.00     0.002 C 
HETATM   24  C   UNL     1      24.711  46.046  41.051  1.00  0.00     0.000 C 
HETATM   25  C   UNL     1      24.806  47.530  40.714  1.00  0.00     0.002 C 
HETATM   26  C   UNL     1      26.058  47.846  39.892  1.00  0.00     0.025 C 
ENDBRANCH  19  21
ENDBRANCH  12  19
ENDBRANCH   5   8
BRANCH   3  27
HETATM   27  S   UNL     1      36.016  51.409  41.432  1.00  0.00     0.242 S 
HETATM   28  O   UNL     1      36.361  52.768  41.076  1.00  0.00    -0.206 OA
HETATM   29  O   UNL     1      37.002  50.485  41.935  1.00  0.00    -0.206 OA
BRANCH  27  30
HETATM   30  N   UNL     1      35.269  50.686  40.094  1.00  0.00    -0.208 NA
HETATM   31  H   UNL     1      34.546  50.027  40.397  1.00  0.00     0.140 HD
BRANCH  30  32
HETATM   32  C   UNL     1      34.769  51.633  39.084  1.00  0.00     0.182 C 
BRANCH  32  33
HETATM   33  C   UNL     1      33.317  51.384  38.876  1.00  0.00     0.119 A 
HETATM   34  N   UNL     1      32.416  52.265  38.486  1.00  0.00    -0.232 NA
HETATM   35  C   UNL     1      31.235  51.563  38.396  1.00  0.00     0.085 A 
HETATM   36  C   UNL     1      31.417  50.236  38.770  1.00  0.00     0.062 A 
HETATM   37  C   UNL     1      29.960  51.992  37.998  1.00  0.00     0.034 A 
HETATM   38  N   UNL     1      32.748  50.150  39.082  1.00  0.00    -0.342 N 
HETATM   39  C   UNL     1      30.388  49.293  38.780  1.00  0.00     0.032 A 
HETATM   40  H   UNL     1      33.232  49.324  39.407  1.00  0.00     0.167 HD
HETATM   41  C   UNL     1      29.124  49.738  38.378  1.00  0.00     0.002 A 
HETATM   42  C   UNL     1      28.911  51.064  37.991  1.00  0.00     0.002 A 
ENDBRANCH  32  33
ENDBRANCH  30  32
ENDBRANCH  27  30
ENDBRANCH   3  27
TORSDOF 7
ENDMDL
MODEL 5
REMARK VINA RESULT:     -10.8      2.679     10.683
REMARK  7 active torsions:
REMARK  status: ('A' for Active; 'I' for Inactive)
REMARK    1  A    between atoms: C_3  and  S_4 
REMARK    2  A    between atoms: S_4  and  N_5 
REMARK    3  A    between atoms: N_5  and  C_6 
REMARK    4  A    between atoms: C_6  and  C_7 
REMARK    5  A    between atoms: C_20  and  C_21 
REMARK    6  A    between atoms: C_25  and  N_26 
REMARK    7  A    between atoms: N_26  and  C_27 
ROOT
HETATM    1  C   UNL     1      22.404  46.311  48.096  1.00  0.00     0.050 C 
HETATM    2  C   UNL     1      23.409  46.155  49.204  1.00  0.00    -0.039 A 
HETATM    3  C   UNL     1      24.224  47.196  49.680  1.00  0.00     0.081 A 
HETATM    4  C   UNL     1      25.166  46.950  50.696  1.00  0.00     0.039 A 
HETATM    5  C   UNL     1      25.281  45.690  51.301  1.00  0.00    -0.003 A 
HETATM    6  C   UNL     1      24.476  44.653  50.815  1.00  0.00     0.014 A 
HETATM    7  C   UNL     1      23.563  44.881  49.780  1.00  0.00     0.009 A 
ENDROOT
BRANCH   5   8
HETATM    8  C   UNL     1      26.240  45.464  52.393  1.00  0.00     0.098 A 
HETATM    9  N   UNL     1      26.393  46.532  53.199  1.00  0.00    -0.172 NA
HETATM   10  N   UNL     1      27.158  46.419  54.268  1.00  0.00    -0.262 N 
HETATM   11  H   UNL     1      27.249  47.234  54.865  1.00  0.00     0.191 HD
HETATM   12  C   UNL     1      27.820  45.302  54.617  1.00  0.00     0.129 A 
HETATM   13  C   UNL     1      27.681  44.154  53.791  1.00  0.00     0.022 A 
HETATM   14  C   UNL     1      26.890  44.242  52.629  1.00  0.00     0.009 A 
HETATM   15  C   UNL     1      28.291  42.909  54.090  1.00  0.00     0.016 A 
HETATM   16  C   UNL     1      26.789  43.111  51.777  1.00  0.00     0.015 A 
HETATM   17  C   UNL     1      27.413  41.906  52.089  1.00  0.00     0.001 A 
HETATM   18  C   UNL     1      28.157  41.801  53.253  1.00  0.00     0.001 A 
BRANCH  12  19
HETATM   19  N   UNL     1      28.571  45.255  55.791  1.00  0.00    -0.370 N 
HETATM   20  H   UNL     1      28.476  44.349  56.255  1.00  0.00     0.161 HD
BRANCH  19  21
HETATM   21  C   UNL     1      29.905  45.843  55.965  1.00  0.00     0.083 C 
HETATM   22  C   UNL     1      30.170  46.171  57.444  1.00  0.00     0.025 C 
HETATM   23  C   UNL     1      30.296  44.920  58.313  1.00  0.00     0.002 C 
HETATM   24  C   UNL     1      31.355  43.965  57.773  1.00  0.00     0.000 C 
HETATM   25  C   UNL     1      31.103  43.612  56.312  1.00  0.00     0.002 C 
HETATM   26  C   UNL     1      30.968  44.863  55.441  1.00  0.00     0.025 C 
ENDBRANCH  19  21
ENDBRANCH  12  19
ENDBRANCH   5   8
BRANCH   3  27
HETATM   27  S   UNL     1      24.140  48.875  49.050  1.00  0.00     0.242 S 
HETATM   28  O   UNL     1      25.432  49.487  49.273  1.00  0.00    -0.206 OA
HETATM   29  O   UNL     1      23.530  48.851  47.744  1.00  0.00    -0.206 OA
BRANCH  27  30
HETATM   30  N   UNL     1      23.031  49.577  50.122  1.00  0.00    -0.208 NA
HETATM   31  H   UNL     1      23.504  49.898  50.971  1.00  0.00     0.140 HD
BRANCH  30  32
HETATM   32  C   UNL     1      22.182  50.624  49.529  1.00  0.00     0.182 C 
BRANCH  32  33
HETATM   33  C   UNL     1      20.822  50.063  49.308  1.00  0.00     0.119 A 
HETATM   34  N   UNL     1      19.791  50.689  48.773  1.00  0.00    -0.232 NA
HETATM   35  C   UNL     1      18.777  49.758  48.738  1.00  0.00     0.085 A 
HETATM   36  C   UNL     1      19.193  48.552  49.294  1.00  0.00     0.062 A 
HETATM   37  C   UNL     1      17.469  49.868  48.244  1.00  0.00     0.034 A 
HETATM   38  N   UNL     1      20.494  48.776  49.659  1.00  0.00    -0.342 N 
HETATM   39  C   UNL     1      18.369  47.430  49.396  1.00  0.00     0.032 A 
HETATM   40  H   UNL     1      21.109  48.111  50.108  1.00  0.00     0.167 HD
HETATM   41  C   UNL     1      17.068  47.558  48.895  1.00  0.00     0.002 A 
HETATM   42  C   UNL     1      16.624  48.754  48.327  1.00  0.00     0.002 A 
ENDBRANCH  32  33
ENDBRANCH  30  32
ENDBRANCH  27  30
ENDBRANCH   3  27
TORSDOF 7
ENDMDL
MODEL 6
REMARK VINA RESULT:     -10.7      3.437     10.528
REMARK  7 active torsions:
REMARK  status: ('A' for Active; 'I' for Inactive)
REMARK    1  A    between atoms: C_3  and  S_4 
REMARK    2  A    between atoms: S_4  and  N_5 
REMARK    3  A    between atoms: N_5  and  C_6 
REMARK    4  A    between atoms: C_6  and  C_7 
REMARK    5  A    between atoms: C_20  and  C_21 
REMARK    6  A    between atoms: C_25  and  N_26 
REMARK    7  A    between atoms: N_26  and  C_27 
ROOT
HETATM    1  C   UNL     1      25.746  50.849  47.713  1.00  0.00     0.050 C 
HETATM    2  C   UNL     1      25.770  49.609  48.562  1.00  0.00    -0.039 A 
HETATM    3  C   UNL     1      24.623  49.001  49.100  1.00  0.00     0.081 A 
HETATM    4  C   UNL     1      24.742  47.862  49.918  1.00  0.00     0.039 A 
HETATM    5  C   UNL     1      25.987  47.266  50.170  1.00  0.00    -0.003 A 
HETATM    6  C   UNL     1      27.127  47.882  49.641  1.00  0.00     0.014 A 
HETATM    7  C   UNL     1      27.020  49.036  48.858  1.00  0.00     0.009 A 
ENDROOT
BRANCH   5   8
HETATM    8  C   UNL     1      26.086  46.048  50.989  1.00  0.00     0.098 A 
HETATM    9  N   UNL     1      25.993  44.912  50.271  1.00  0.00    -0.172 NA
HETATM   10  N   UNL     1      26.160  43.756  50.884  1.00  0.00    -0.262 N 
HETATM   11  H   UNL     1      26.096  42.916  50.320  1.00  0.00     0.191 HD
HETATM   12  C   UNL     1      26.410  43.619  52.198  1.00  0.00     0.129 A 
HETATM   13  C   UNL     1      26.516  44.796  52.987  1.00  0.00     0.022 A 
HETATM   14  C   UNL     1      26.322  46.049  52.372  1.00  0.00     0.009 A 
HETATM   15  C   UNL     1      26.827  44.772  54.371  1.00  0.00     0.016 A 
HETATM   16  C   UNL     1      26.381  47.222  53.168  1.00  0.00     0.015 A 
HETATM   17  C   UNL     1      26.673  47.167  54.529  1.00  0.00     0.001 A 
HETATM   18  C   UNL     1      26.907  45.941  55.129  1.00  0.00     0.001 A 
BRANCH  12  19
HETATM   19  N   UNL     1      26.619  42.359  52.757  1.00  0.00    -0.370 N 
HETATM   20  H   UNL     1      25.737  41.857  52.881  1.00  0.00     0.161 HD
BRANCH  19  21
HETATM   21  C   UNL     1      27.738  41.465  52.432  1.00  0.00     0.083 C 
HETATM   22  C   UNL     1      28.766  42.176  51.537  1.00  0.00     0.025 C 
HETATM   23  C   UNL     1      29.504  43.300  52.263  1.00  0.00     0.002 C 
HETATM   24  C   UNL     1      30.158  42.806  53.549  1.00  0.00     0.000 C 
HETATM   25  C   UNL     1      29.153  42.111  54.460  1.00  0.00     0.002 C 
HETATM   26  C   UNL     1      28.407  40.990  53.733  1.00  0.00     0.025 C 
ENDBRANCH  19  21
ENDBRANCH  12  19
ENDBRANCH   5   8
BRANCH   3  27
HETATM   27  S   UNL     1      22.960  49.610  48.807  1.00  0.00     0.242 S 
HETATM   28  O   UNL     1      22.816  50.850  49.539  1.00  0.00    -0.206 OA
HETATM   29  O   UNL     1      22.677  49.528  47.395  1.00  0.00    -0.206 OA
BRANCH  27  30
HETATM   30  N   UNL     1      22.031  48.426  49.586  1.00  0.00    -0.208 NA
HETATM   31  H   UNL     1      21.753  48.741  50.519  1.00  0.00     0.140 HD
BRANCH  30  32
HETATM   32  C   UNL     1      20.886  47.930  48.803  1.00  0.00     0.182 C 
BRANCH  32  33
HETATM   33  C   UNL     1      19.786  48.928  48.887  1.00  0.00     0.119 A 
HETATM   34  N   UNL     1      18.587  48.824  48.344  1.00  0.00    -0.232 NA
HETATM   35  C   UNL     1      17.914  49.961  48.730  1.00  0.00     0.085 A 
HETATM   36  C   UNL     1      18.731  50.787  49.494  1.00  0.00     0.062 A 
HETATM   37  C   UNL     1      16.595  50.360  48.466  1.00  0.00     0.034 A 
HETATM   38  N   UNL     1      19.921  50.112  49.570  1.00  0.00    -0.342 N 
HETATM   39  C   UNL     1      18.312  52.011  50.017  1.00  0.00     0.032 A 
HETATM   40  H   UNL     1      20.755  50.427  50.047  1.00  0.00     0.167 HD
HETATM   41  C   UNL     1      16.992  52.392  49.745  1.00  0.00     0.002 A 
HETATM   42  C   UNL     1      16.145  51.581  48.985  1.00  0.00     0.002 A 
ENDBRANCH  32  33
ENDBRANCH  30  32
ENDBRANCH  27  30
ENDBRANCH   3  27
TORSDOF 7
ENDMDL
MODEL 7
REMARK VINA RESULT:     -10.6      2.623     10.041
REMARK  7 active torsions:
REMARK  status: ('A' for Active; 'I' for Inactive)
REMARK    1  A    between atoms: C_3  and  S_4 
REMARK    2  A    between atoms: S_4  and  N_5 
REMARK    3  A    between atoms: N_5  and  C_6 
REMARK    4  A    between atoms: C_6  and  C_7 
REMARK    5  A    between atoms: C_20  and  C_21 
REMARK    6  A    between atoms: C_25  and  N_26 
REMARK    7  A    between atoms: N_26  and  C_27 
ROOT
HETATM    1  C   UNL     1      24.013  41.503  47.308  1.00  0.00     0.050 C 
HETATM    2  C   UNL     1      24.633  42.031  48.572  1.00  0.00    -0.039 A 
HETATM    3  C   UNL     1      24.261  43.240  49.185  1.00  0.00     0.081 A 
HETATM    4  C   UNL     1      24.923  43.678  50.347  1.00  0.00     0.039 A 
HETATM    5  C   UNL     1      25.921  42.904  50.959  1.00  0.00    -0.003 A 
HETATM    6  C   UNL     1      26.295  41.707  50.338  1.00  0.00     0.014 A 
HETATM    7  C   UNL     1      25.667  41.283  49.161  1.00  0.00     0.009 A 
ENDROOT
BRANCH   5   8
HETATM    8  C   UNL     1      26.569  43.356  52.200  1.00  0.00     0.098 A 
HETATM    9  N   UNL     1      27.343  42.415  52.772  1.00  0.00    -0.172 NA
HETATM   10  N   UNL     1      28.048  42.735  53.841  1.00  0.00    -0.262 N 
HETATM   11  H   UNL     1      28.633  42.012  54.247  1.00  0.00     0.191 HD
HETATM   12  C   UNL     1      28.046  43.947  54.422  1.00  0.00     0.129 A 
HETATM   13  C   UNL     1      27.241  44.966  53.844  1.00  0.00     0.022 A 
HETATM   14  C   UNL     1      26.457  44.657  52.715  1.00  0.00     0.009 A 
HETATM   15  C   UNL     1      27.201  46.293  54.342  1.00  0.00     0.016 A 
HETATM   16  C   UNL     1      25.616  45.660  52.167  1.00  0.00     0.015 A 
HETATM   17  C   UNL     1      25.586  46.952  52.686  1.00  0.00     0.001 A 
HETATM   18  C   UNL     1      26.387  47.272  53.770  1.00  0.00     0.001 A 
BRANCH  12  19
HETATM   19  N   UNL     1      28.858  44.212  55.523  1.00  0.00    -0.370 N 
HETATM   20  H   UNL     1      28.807  43.458  56.212  1.00  0.00     0.161 HD
BRANCH  19  21
HETATM   21  C   UNL     1      30.187  44.834  55.463  1.00  0.00     0.083 C 
HETATM   22  C   UNL     1      30.280  46.022  56.435  1.00  0.00     0.025 C 
HETATM   23  C   UNL     1      30.234  45.592  57.901  1.00  0.00     0.002 C 
HETATM   24  C   UNL     1      31.304  44.552  58.215  1.00  0.00     0.000 C 
HETATM   25  C   UNL     1      31.221  43.356  57.274  1.00  0.00     0.002 C 
HETATM   26  C   UNL     1      31.258  43.785  55.806  1.00  0.00     0.025 C 
ENDBRANCH  19  21
ENDBRANCH  12  19
ENDBRANCH   5   8
BRANCH   3  27
HETATM   27  S   UNL     1      22.957  44.300  48.555  1.00  0.00     0.242 S 
HETATM   28  O   UNL     1      23.393  44.810  47.273  1.00  0.00    -0.206 OA
HETATM   29  O   UNL     1      21.692  43.624  48.710  1.00  0.00    -0.206 OA
BRANCH  27  30
HETATM   30  N   UNL     1      22.997  45.574  49.672  1.00  0.00    -0.208 NA
HETATM   31  H   UNL     1      23.308  45.242  50.588  1.00  0.00     0.140 HD
BRANCH  30  32
HETATM   32  C   UNL     1      23.751  46.758  49.225  1.00  0.00     0.182 C 
BRANCH  32  33
HETATM   33  C   UNL     1      22.787  47.857  48.944  1.00  0.00     0.119 A 
HETATM   34  N   UNL     1      21.900  47.893  47.968  1.00  0.00    -0.232 NA
HETATM   35  C   UNL     1      21.217  49.076  48.142  1.00  0.00     0.085 A 
HETATM   36  C   UNL     1      21.723  49.787  49.225  1.00  0.00     0.062 A 
HETATM   37  C   UNL     1      20.147  49.614  47.411  1.00  0.00     0.034 A 
HETATM   38  N   UNL     1      22.728  48.994  49.712  1.00  0.00    -0.342 N 
HETATM   39  C   UNL     1      21.224  51.026  49.631  1.00  0.00     0.032 A 
HETATM   40  H   UNL     1      23.325  49.206  50.500  1.00  0.00     0.167 HD
HETATM   41  C   UNL     1      20.155  51.546  48.892  1.00  0.00     0.002 A 
HETATM   42  C   UNL     1      19.622  50.853  47.802  1.00  0.00     0.002 A 
ENDBRANCH  32  33
ENDBRANCH  30  32
ENDBRANCH  27  30
ENDBRANCH   3  27
TORSDOF 7
ENDMDL
MODEL 8
REMARK VINA RESULT:     -10.6      2.294      3.325
REMARK  7 active torsions:
REMARK  status: ('A' for Active; 'I' for Inactive)
REMARK    1  A    between atoms: C_3  and  S_4 
REMARK    2  A    between atoms: S_4  and  N_5 
REMARK    3  A    between atoms: N_5  and  C_6 
REMARK    4  A    between atoms: C_6  and  C_7 
REMARK    5  A    between atoms: C_20  and  C_21 
REMARK    6  A    between atoms: C_25  and  N_26 
REMARK    7  A    between atoms: N_26  and  C_27 
ROOT
HETATM    1  C   UNL     1      25.362  42.532  48.678  1.00  0.00     0.050 C 
HETATM    2  C   UNL     1      24.499  43.763  48.706  1.00  0.00    -0.039 A 
HETATM    3  C   UNL     1      24.765  44.893  49.499  1.00  0.00     0.081 A 
HETATM    4  C   UNL     1      23.881  45.987  49.492  1.00  0.00     0.039 A 
HETATM    5  C   UNL     1      22.751  46.013  48.660  1.00  0.00    -0.003 A 
HETATM    6  C   UNL     1      22.485  44.881  47.881  1.00  0.00     0.014 A 
HETATM    7  C   UNL     1      23.339  43.774  47.911  1.00  0.00     0.009 A 
ENDROOT
BRANCH   5   8
HETATM    8  C   UNL     1      21.864  47.186  48.632  1.00  0.00     0.098 A 
HETATM    9  N   UNL     1      20.560  46.873  48.756  1.00  0.00    -0.172 NA
HETATM   10  N   UNL     1      19.676  47.849  48.838  1.00  0.00    -0.262 N 
HETATM   11  H   UNL     1      18.702  47.588  48.942  1.00  0.00     0.191 HD
HETATM   12  C   UNL     1      19.979  49.158  48.795  1.00  0.00     0.129 A 
HETATM   13  C   UNL     1      21.346  49.526  48.666  1.00  0.00     0.022 A 
HETATM   14  C   UNL     1      22.317  48.512  48.554  1.00  0.00     0.009 A 
HETATM   15  C   UNL     1      21.784  50.875  48.661  1.00  0.00     0.016 A 
HETATM   16  C   UNL     1      23.677  48.879  48.376  1.00  0.00     0.015 A 
HETATM   17  C   UNL     1      24.077  50.213  48.360  1.00  0.00     0.001 A 
HETATM   18  C   UNL     1      23.130  51.212  48.513  1.00  0.00     0.001 A 
BRANCH  12  19
HETATM   19  N   UNL     1      18.985  50.125  48.935  1.00  0.00    -0.370 N 
HETATM   20  H   UNL     1      19.085  50.635  49.816  1.00  0.00     0.161 HD
BRANCH  19  21
HETATM   21  C   UNL     1      18.467  50.969  47.850  1.00  0.00     0.083 C 
HETATM   22  C   UNL     1      17.040  50.549  47.464  1.00  0.00     0.025 C 
HETATM   23  C   UNL     1      16.019  50.842  48.564  1.00  0.00     0.002 C 
HETATM   24  C   UNL     1      16.055  52.306  48.988  1.00  0.00     0.000 C 
HETATM   25  C   UNL     1      17.459  52.742  49.392  1.00  0.00     0.002 C 
HETATM   26  C   UNL     1      18.483  52.441  48.296  1.00  0.00     0.025 C 
ENDBRANCH  19  21
ENDBRANCH  12  19
ENDBRANCH   5   8
BRANCH   3  27
HETATM   27  S   UNL     1      26.206  45.030  50.560  1.00  0.00     0.242 S 
HETATM   28  O   UNL     1      27.351  44.581  49.798  1.00  0.00    -0.206 OA
HETATM   29  O   UNL     1      26.187  46.319  51.206  1.00  0.00    -0.206 OA
BRANCH  27  30
HETATM   30  N   UNL     1      25.864  43.860  51.737  1.00  0.00    -0.208 NA
HETATM   31  H   UNL     1      26.561  43.111  51.715  1.00  0.00     0.140 HD
BRANCH  30  32
HETATM   32  C   UNL     1      25.666  44.395  53.095  1.00  0.00     0.182 C 
BRANCH  32  33
HETATM   33  C   UNL     1      26.960  44.326  53.826  1.00  0.00     0.119 A 
HETATM   34  N   UNL     1      27.845  43.348  53.768  1.00  0.00    -0.232 NA
HETATM   35  C   UNL     1      28.886  43.751  54.573  1.00  0.00     0.085 A 
HETATM   36  C   UNL     1      28.613  44.984  55.158  1.00  0.00     0.062 A 
HETATM   37  C   UNL     1      30.105  43.116  54.855  1.00  0.00     0.034 A 
HETATM   38  N   UNL     1      27.376  45.322  54.675  1.00  0.00    -0.342 N 
HETATM   39  C   UNL     1      29.491  45.632  56.027  1.00  0.00     0.032 A 
HETATM   40  H   UNL     1      26.858  46.160  54.902  1.00  0.00     0.167 HD
HETATM   41  C   UNL     1      30.703  44.985  56.295  1.00  0.00     0.002 A 
HETATM   42  C   UNL     1      31.008  43.749  55.719  1.00  0.00     0.002 A 
ENDBRANCH  32  33
ENDBRANCH  30  32
ENDBRANCH  27  30
ENDBRANCH   3  27
TORSDOF 7
ENDMDL
MODEL 9
REMARK VINA RESULT:     -10.5      3.963      9.348
REMARK  7 active torsions:
REMARK  status: ('A' for Active; 'I' for Inactive)
REMARK    1  A    between atoms: C_3  and  S_4 
REMARK    2  A    between atoms: S_4  and  N_5 
REMARK    3  A    between atoms: N_5  and  C_6 
REMARK    4  A    between atoms: C_6  and  C_7 
REMARK    5  A    between atoms: C_20  and  C_21 
REMARK    6  A    between atoms: C_25  and  N_26 
REMARK    7  A    between atoms: N_26  and  C_27 
ROOT
HETATM    1  C   UNL     1      22.973  51.056  47.884  1.00  0.00     0.050 C 
HETATM    2  C   UNL     1      23.557  49.791  48.449  1.00  0.00    -0.039 A 
HETATM    3  C   UNL     1      22.794  48.672  48.828  1.00  0.00     0.081 A 
HETATM    4  C   UNL     1      23.422  47.543  49.386  1.00  0.00     0.039 A 
HETATM    5  C   UNL     1      24.817  47.472  49.525  1.00  0.00    -0.003 A 
HETATM    6  C   UNL     1      25.570  48.593  49.158  1.00  0.00     0.014 A 
HETATM    7  C   UNL     1      24.949  49.734  48.637  1.00  0.00     0.009 A 
ENDROOT
BRANCH   5   8
HETATM    8  C   UNL     1      25.458  46.265  50.067  1.00  0.00     0.098 A 
HETATM    9  N   UNL     1      25.647  45.301  49.146  1.00  0.00    -0.172 NA
HETATM   10  N   UNL     1      26.297  44.207  49.495  1.00  0.00    -0.262 N 
HETATM   11  H   UNL     1      26.437  43.500  48.780  1.00  0.00     0.191 HD
HETATM   12  C   UNL     1      26.785  43.968  50.724  1.00  0.00     0.129 A 
HETATM   13  C   UNL     1      26.605  44.964  51.722  1.00  0.00     0.022 A 
HETATM   14  C   UNL     1      25.897  46.137  51.395  1.00  0.00     0.009 A 
HETATM   15  C   UNL     1      27.122  44.841  53.037  1.00  0.00     0.016 A 
HETATM   16  C   UNL     1      25.674  47.110  52.403  1.00  0.00     0.015 A 
HETATM   17  C   UNL     1      26.181  46.956  53.691  1.00  0.00     0.001 A 
HETATM   18  C   UNL     1      26.914  45.824  54.006  1.00  0.00     0.001 A 
BRANCH  12  19
HETATM   19  N   UNL     1      27.502  42.803  50.994  1.00  0.00    -0.370 N 
HETATM   20  H   UNL     1      28.427  43.016  51.373  1.00  0.00     0.161 HD
BRANCH  19  21
HETATM   21  C   UNL     1      26.932  41.571  51.553  1.00  0.00     0.083 C 
HETATM   22  C   UNL     1      26.945  40.440  50.512  1.00  0.00     0.025 C 
HETATM   23  C   UNL     1      28.357  39.969  50.168  1.00  0.00     0.002 C 
HETATM   24  C   UNL     1      29.134  39.562  51.416  1.00  0.00     0.000 C 
HETATM   25  C   UNL     1      29.149  40.676  52.457  1.00  0.00     0.002 C 
HETATM   26  C   UNL     1      27.737  41.155  52.797  1.00  0.00     0.025 C 
ENDBRANCH  19  21
ENDBRANCH  12  19
ENDBRANCH   5   8
BRANCH   3  27
HETATM   27  S   UNL     1      21.011  48.592  48.644  1.00  0.00     0.242 S 
HETATM   28  O   UNL     1      20.437  49.556  49.558  1.00  0.00    -0.206 OA
HETATM   29  O   UNL     1      20.687  48.597  47.239  1.00  0.00    -0.206 OA
BRANCH  27  30
HETATM   30  N   UNL     1      20.685  47.040  49.241  1.00  0.00    -0.208 NA
HETATM   31  H   UNL     1      20.032  47.086  50.028  1.00  0.00     0.140 HD
BRANCH  30  32
HETATM   32  C   UNL     1      20.259  46.067  48.221  1.00  0.00     0.182 C 
BRANCH  32  33
HETATM   33  C   UNL     1      21.247  44.955  48.183  1.00  0.00     0.119 A 
HETATM   34  N   UNL     1      21.681  44.254  49.214  1.00  0.00    -0.232 NA
HETATM   35  C   UNL     1      22.540  43.319  48.682  1.00  0.00     0.085 A 
HETATM   36  C   UNL     1      22.654  43.477  47.305  1.00  0.00     0.062 A 
HETATM   37  C   UNL     1      23.263  42.296  49.315  1.00  0.00     0.034 A 
HETATM   38  N   UNL     1      21.830  44.532  47.014  1.00  0.00    -0.342 N 
HETATM   39  C   UNL     1      23.463  42.669  46.504  1.00  0.00     0.032 A 
HETATM   40  H   UNL     1      21.675  44.931  46.098  1.00  0.00     0.167 HD
HETATM   41  C   UNL     1      24.175  41.653  47.152  1.00  0.00     0.002 A 
HETATM   42  C   UNL     1      24.076  41.466  48.534  1.00  0.00     0.002 A 
ENDBRANCH  32  33
ENDBRANCH  30  32
ENDBRANCH  27  30
ENDBRANCH   3  27
TORSDOF 7
ENDMDL
MODEL 10
REMARK VINA RESULT:     -10.5      1.685      2.677
REMARK  7 active torsions:
REMARK  status: ('A' for Active; 'I' for Inactive)
REMARK    1  A    between atoms: C_3  and  S_4 
REMARK    2  A    between atoms: S_4  and  N_5 
REMARK    3  A    between atoms: N_5  and  C_6 
REMARK    4  A    between atoms: C_6  and  C_7 
REMARK    5  A    between atoms: C_20  and  C_21 
REMARK    6  A    between atoms: C_25  and  N_26 
REMARK    7  A    between atoms: N_26  and  C_27 
ROOT
HETATM    1  C   UNL     1      26.884  42.162  50.796  1.00  0.00     0.050 C 
HETATM    2  C   UNL     1      25.950  43.300  50.491  1.00  0.00    -0.039 A 
HETATM    3  C   UNL     1      25.526  44.246  51.441  1.00  0.00     0.081 A 
HETATM    4  C   UNL     1      24.619  45.257  51.077  1.00  0.00     0.039 A 
HETATM    5  C   UNL     1      24.159  45.392  49.758  1.00  0.00    -0.003 A 
HETATM    6  C   UNL     1      24.575  44.441  48.819  1.00  0.00     0.014 A 
HETATM    7  C   UNL     1      25.449  43.410  49.183  1.00  0.00     0.009 A 
ENDROOT
BRANCH   5   8
HETATM    8  C   UNL     1      23.247  46.484  49.387  1.00  0.00     0.098 A 
HETATM    9  N   UNL     1      23.733  47.707  49.672  1.00  0.00    -0.172 NA
HETATM   10  N   UNL     1      23.044  48.769  49.301  1.00  0.00    -0.262 N 
HETATM   11  H   UNL     1      23.437  49.679  49.516  1.00  0.00     0.191 HD
HETATM   12  C   UNL     1      21.865  48.726  48.657  1.00  0.00     0.129 A 
HETATM   13  C   UNL     1      21.320  47.452  48.339  1.00  0.00     0.022 A 
HETATM   14  C   UNL     1      22.017  46.294  48.738  1.00  0.00     0.009 A 
HETATM   15  C   UNL     1      20.110  47.288  47.618  1.00  0.00     0.016 A 
HETATM   16  C   UNL     1      21.451  45.022  48.464  1.00  0.00     0.015 A 
HETATM   17  C   UNL     1      20.252  44.892  47.767  1.00  0.00     0.001 A 
HETATM   18  C   UNL     1      19.585  46.026  47.335  1.00  0.00     0.001 A 
BRANCH  12  19
HETATM   19  N   UNL     1      21.225  49.899  48.260  1.00  0.00    -0.370 N 
HETATM   20  H   UNL     1      20.485  49.706  47.581  1.00  0.00     0.161 HD
BRANCH  19  21
HETATM   21  C   UNL     1      20.902  51.027  49.143  1.00  0.00     0.083 C 
HETATM   22  C   UNL     1      19.950  52.013  48.446  1.00  0.00     0.025 C 
HETATM   23  C   UNL     1      18.558  51.427  48.215  1.00  0.00     0.002 C 
HETATM   24  C   UNL     1      17.944  50.908  49.511  1.00  0.00     0.000 C 
HETATM   25  C   UNL     1      18.864  49.914  50.212  1.00  0.00     0.002 C 
HETATM   26  C   UNL     1      20.261  50.496  50.436  1.00  0.00     0.025 C 
ENDBRANCH  19  21
ENDBRANCH  12  19
ENDBRANCH   5   8
BRANCH   3  27
HETATM   27  S   UNL     1      26.083  44.240  53.148  1.00  0.00     0.242 S 
HETATM   28  O   UNL     1      24.928  44.493  53.982  1.00  0.00    -0.206 OA
HETATM   29  O   UNL     1      26.930  43.092  53.357  1.00  0.00    -0.206 OA
BRANCH  27  30
HETATM   30  N   UNL     1      27.069  45.618  53.179  1.00  0.00    -0.208 NA
HETATM   31  H   UNL     1      26.865  46.226  52.381  1.00  0.00     0.140 HD
BRANCH  30  32
HETATM   32  C   UNL     1      27.056  46.353  54.455  1.00  0.00     0.182 C 
BRANCH  32  33
HETATM   33  C   UNL     1      28.192  45.876  55.290  1.00  0.00     0.119 A 
HETATM   34  N   UNL     1      28.538  46.329  56.479  1.00  0.00    -0.232 NA
HETATM   35  C   UNL     1      29.610  45.556  56.865  1.00  0.00     0.085 A 
HETATM   36  C   UNL     1      29.941  44.636  55.875  1.00  0.00     0.062 A 
HETATM   37  C   UNL     1      30.356  45.579  58.054  1.00  0.00     0.034 A 
HETATM   38  N   UNL     1      29.030  44.868  54.879  1.00  0.00    -0.342 N 
HETATM   39  C   UNL     1      30.991  43.726  55.994  1.00  0.00     0.032 A 
HETATM   40  H   UNL     1      28.981  44.383  53.993  1.00  0.00     0.167 HD
HETATM   41  C   UNL     1      31.723  43.761  57.187  1.00  0.00     0.002 A 
HETATM   42  C   UNL     1      31.411  44.670  58.202  1.00  0.00     0.002 A 
ENDBRANCH  32  33
ENDBRANCH  30  32
ENDBRANCH  27  30
ENDBRANCH   3  27
TORSDOF 7
ENDMDL
