MODEL 1
REMARK VINA RESULT:      -9.7      0.000      0.000
REMARK  5 active torsions:
REMARK  status: ('A' for Active; 'I' for Inactive)
REMARK    1  A    between atoms: C_3  and  O_4 
REMARK    2  A    between atoms: C_6  and  N_7 
REMARK       I    between atoms: N_7  and  C_8 
REMARK    3  A    between atoms: C_8  and  C_9 
REMARK    4  A    between atoms: C_12  and  C_13 
REMARK    5  A    between atoms: C_18  and  C_19 
ROOT
HETATM    1  C   UNL     1      27.481  44.122  53.252  1.00  0.00     0.096 A 
HETATM    2  C   UNL     1      26.397  44.618  52.551  1.00  0.00     0.138 A 
HETATM    3  N   UNL     1      26.119  43.684  51.584  1.00  0.00    -0.240 N 
HETATM    4  C   UNL     1      25.053  43.792  50.608  1.00  0.00     0.221 C 
HETATM    5  C   UNL     1      24.044  44.873  51.033  1.00  0.00     0.066 C 
HETATM    6  C   UNL     1      24.680  46.132  51.648  1.00  0.00     0.118 C 
HETATM    7  N   UNL     1      25.671  45.763  52.661  1.00  0.00    -0.365 N 
HETATM    8  N   UNL     1      26.918  42.607  51.624  1.00  0.00    -0.181 NA
HETATM    9  C   UNL     1      27.778  42.898  52.606  1.00  0.00     0.160 A 
HETATM   10  H   UNL     1      26.096  46.578  53.111  1.00  0.00     0.161 HD
ENDROOT
BRANCH   1  11
HETATM   11  C   UNL     1      28.181  44.701  54.387  1.00  0.00     0.261 C 
HETATM   12  N   UNL     1      29.296  43.972  54.759  1.00  0.00    -0.323 N 
HETATM   13  H   UNL     1      29.564  43.237  54.113  1.00  0.00     0.169 HD
HETATM   14  O   UNL     1      27.801  45.750  54.889  1.00  0.00    -0.267 OA
BRANCH  12  15
HETATM   15  C   UNL     1      30.141  44.183  55.865  1.00  0.00     0.037 A 
HETATM   16  C   UNL     1      30.072  45.301  56.694  1.00  0.00     0.066 A 
HETATM   17  C   UNL     1      30.932  45.408  57.787  1.00  0.00     0.067 A 
HETATM   18  C   UNL     1      31.869  44.421  58.067  1.00  0.00     0.036 A 
HETATM   19  C   UNL     1      31.943  43.302  57.241  1.00  0.00     0.005 A 
HETATM   20  C   UNL     1      31.079  43.181  56.148  1.00  0.00     0.029 A 
BRANCH  17  21
HETATM   21  O   UNL     1      30.817  46.514  58.580  1.00  0.00    -0.361 OA
HETATM   22  H   UNL     1      30.269  46.295  59.349  1.00  0.00     0.217 HD
ENDBRANCH  17  21
ENDBRANCH  12  15
ENDBRANCH   1  11
BRANCH   4  23
HETATM   23  C   UNL     1      25.620  43.995  49.219  1.00  0.00     0.409 C 
HETATM   24  F   UNL     1      26.788  44.665  49.201  1.00  0.00    -0.169 F 
HETATM   25  F   UNL     1      25.811  42.826  48.567  1.00  0.00    -0.169 F 
HETATM   26  F   UNL     1      24.743  44.708  48.462  1.00  0.00    -0.169 F 
ENDBRANCH   4  23
BRANCH   6  27
HETATM   27  C   UNL     1      25.197  47.156  50.650  1.00  0.00    -0.035 A 
HETATM   28  C   UNL     1      24.274  47.809  49.808  1.00  0.00     0.012 A 
HETATM   29  C   UNL     1      24.696  48.773  48.889  1.00  0.00     0.043 A 
HETATM   30  C   UNL     1      26.042  49.095  48.803  1.00  0.00     0.116 A 
HETATM   31  F   UNL     1      26.445  50.021  47.922  1.00  0.00    -0.206 F 
HETATM   32  C   UNL     1      26.975  48.473  49.619  1.00  0.00     0.043 A 
HETATM   33  C   UNL     1      26.555  47.511  50.541  1.00  0.00     0.012 A 
ENDBRANCH   6  27
TORSDOF 5
ENDMDL
MODEL 2
REMARK VINA RESULT:      -9.4      4.252      8.658
REMARK  5 active torsions:
REMARK  status: ('A' for Active; 'I' for Inactive)
REMARK    1  A    between atoms: C_3  and  O_4 
REMARK    2  A    between atoms: C_6  and  N_7 
REMARK       I    between atoms: N_7  and  C_8 
REMARK    3  A    between atoms: C_8  and  C_9 
REMARK    4  A    between atoms: C_12  and  C_13 
REMARK    5  A    between atoms: C_18  and  C_19 
ROOT
HETATM    1  C   UNL     1      23.626  46.269  49.155  1.00  0.00     0.096 A 
HETATM    2  C   UNL     1      24.759  45.616  49.605  1.00  0.00     0.138 A 
HETATM    3  N   UNL     1      24.711  44.360  49.053  1.00  0.00    -0.240 N 
HETATM    4  C   UNL     1      25.704  43.325  49.259  1.00  0.00     0.221 C 
HETATM    5  C   UNL     1      26.995  43.927  49.842  1.00  0.00     0.066 C 
HETATM    6  C   UNL     1      26.766  45.022  50.899  1.00  0.00     0.118 C 
HETATM    7  N   UNL     1      25.776  45.992  50.427  1.00  0.00    -0.365 N 
HETATM    8  N   UNL     1      23.652  44.159  48.254  1.00  0.00    -0.181 NA
HETATM    9  C   UNL     1      22.967  45.302  48.358  1.00  0.00     0.160 A 
HETATM   10  H   UNL     1      25.619  46.751  51.095  1.00  0.00     0.161 HD
ENDROOT
BRANCH   1  11
HETATM   11  C   UNL     1      23.182  47.627  49.425  1.00  0.00     0.261 C 
HETATM   12  N   UNL     1      21.861  47.839  49.073  1.00  0.00    -0.323 N 
HETATM   13  H   UNL     1      21.343  47.004  48.826  1.00  0.00     0.169 HD
HETATM   14  O   UNL     1      23.931  48.438  49.951  1.00  0.00    -0.267 OA
BRANCH  12  15
HETATM   15  C   UNL     1      21.140  49.048  49.101  1.00  0.00     0.037 A 
HETATM   16  C   UNL     1      19.940  49.222  49.789  1.00  0.00     0.066 A 
HETATM   17  C   UNL     1      19.312  50.468  49.784  1.00  0.00     0.067 A 
HETATM   18  C   UNL     1      19.857  51.548  49.098  1.00  0.00     0.036 A 
HETATM   19  C   UNL     1      21.055  51.379  48.409  1.00  0.00     0.005 A 
HETATM   20  C   UNL     1      21.697  50.137  48.415  1.00  0.00     0.029 A 
BRANCH  17  21
HETATM   21  O   UNL     1      18.147  50.594  50.484  1.00  0.00    -0.361 OA
HETATM   22  H   UNL     1      18.150  51.446  50.948  1.00  0.00     0.217 HD
ENDBRANCH  17  21
ENDBRANCH  12  15
ENDBRANCH   1  11
BRANCH   4  23
HETATM   23  C   UNL     1      25.131  42.192  50.082  1.00  0.00     0.409 C 
HETATM   24  F   UNL     1      24.210  42.587  50.983  1.00  0.00    -0.169 F 
HETATM   25  F   UNL     1      24.565  41.234  49.314  1.00  0.00    -0.169 F 
HETATM   26  F   UNL     1      26.125  41.577  50.777  1.00  0.00    -0.169 F 
ENDBRANCH   4  23
BRANCH   6  27
HETATM   27  C   UNL     1      26.489  44.521  52.307  1.00  0.00    -0.035 A 
HETATM   28  C   UNL     1      25.311  44.942  52.958  1.00  0.00     0.012 A 
HETATM   29  C   UNL     1      25.000  44.493  54.244  1.00  0.00     0.043 A 
HETATM   30  C   UNL     1      25.860  43.619  54.892  1.00  0.00     0.116 A 
HETATM   31  F   UNL     1      25.561  43.188  56.125  1.00  0.00    -0.206 F 
HETATM   32  C   UNL     1      27.026  43.183  54.278  1.00  0.00     0.043 A 
HETATM   33  C   UNL     1      27.336  43.628  52.991  1.00  0.00     0.012 A 
ENDBRANCH   6  27
TORSDOF 5
ENDMDL
MODEL 3
REMARK VINA RESULT:      -8.7      1.891      4.012
REMARK  5 active torsions:
REMARK  status: ('A' for Active; 'I' for Inactive)
REMARK    1  A    between atoms: C_3  and  O_4 
REMARK    2  A    between atoms: C_6  and  N_7 
REMARK       I    between atoms: N_7  and  C_8 
REMARK    3  A    between atoms: C_8  and  C_9 
REMARK    4  A    between atoms: C_12  and  C_13 
REMARK    5  A    between atoms: C_18  and  C_19 
ROOT
HETATM    1  C   UNL     1      26.881  45.948  53.614  1.00  0.00     0.096 A 
HETATM    2  C   UNL     1      26.821  45.795  52.240  1.00  0.00     0.138 A 
HETATM    3  N   UNL     1      26.109  46.873  51.775  1.00  0.00    -0.240 N 
HETATM    4  C   UNL     1      25.796  47.123  50.382  1.00  0.00     0.221 C 
HETATM    5  C   UNL     1      26.684  46.257  49.470  1.00  0.00     0.066 C 
HETATM    6  C   UNL     1      26.916  44.824  49.982  1.00  0.00     0.118 C 
HETATM    7  N   UNL     1      27.295  44.840  51.397  1.00  0.00    -0.365 N 
HETATM    8  N   UNL     1      25.730  47.729  52.737  1.00  0.00    -0.181 NA
HETATM    9  C   UNL     1      26.155  47.139  53.859  1.00  0.00     0.160 A 
HETATM   10  H   UNL     1      27.484  43.903  51.764  1.00  0.00     0.161 HD
ENDROOT
BRANCH   1  11
HETATM   11  C   UNL     1      27.522  45.098  54.604  1.00  0.00     0.261 C 
HETATM   12  N   UNL     1      28.794  45.528  54.937  1.00  0.00    -0.323 N 
HETATM   13  H   UNL     1      29.046  46.442  54.576  1.00  0.00     0.169 HD
HETATM   14  O   UNL     1      26.930  44.143  55.088  1.00  0.00    -0.267 OA
BRANCH  12  15
HETATM   15  C   UNL     1      29.731  44.896  55.775  1.00  0.00     0.037 A 
HETATM   16  C   UNL     1      30.103  45.379  57.029  1.00  0.00     0.066 A 
HETATM   17  C   UNL     1      31.018  44.666  57.804  1.00  0.00     0.067 A 
HETATM   18  C   UNL     1      31.578  43.478  57.348  1.00  0.00     0.036 A 
HETATM   19  C   UNL     1      31.211  42.992  56.095  1.00  0.00     0.005 A 
HETATM   20  C   UNL     1      30.287  43.694  55.316  1.00  0.00     0.029 A 
BRANCH  17  21
HETATM   21  O   UNL     1      31.340  45.170  59.031  1.00  0.00    -0.361 OA
HETATM   22  H   UNL     1      31.249  46.135  59.009  1.00  0.00     0.217 HD
ENDBRANCH  17  21
ENDBRANCH  12  15
ENDBRANCH   1  11
BRANCH   4  23
HETATM   23  C   UNL     1      24.313  46.957  50.130  1.00  0.00     0.409 C 
HETATM   24  F   UNL     1      23.745  45.973  50.853  1.00  0.00    -0.169 F 
HETATM   25  F   UNL     1      23.622  48.093  50.375  1.00  0.00    -0.169 F 
HETATM   26  F   UNL     1      24.098  46.661  48.820  1.00  0.00    -0.169 F 
ENDBRANCH   4  23
BRANCH   6  27
HETATM   27  C   UNL     1      25.808  43.832  49.669  1.00  0.00    -0.035 A 
HETATM   28  C   UNL     1      25.355  42.976  50.694  1.00  0.00     0.012 A 
HETATM   29  C   UNL     1      24.325  42.061  50.463  1.00  0.00     0.043 A 
HETATM   30  C   UNL     1      23.735  41.992  49.209  1.00  0.00     0.116 A 
HETATM   31  F   UNL     1      22.747  41.116  48.990  1.00  0.00    -0.206 F 
HETATM   32  C   UNL     1      24.157  42.822  48.181  1.00  0.00     0.043 A 
HETATM   33  C   UNL     1      25.185  43.741  48.410  1.00  0.00     0.012 A 
ENDBRANCH   6  27
TORSDOF 5
ENDMDL
MODEL 4
REMARK VINA RESULT:      -8.7      7.392     10.295
REMARK  5 active torsions:
REMARK  status: ('A' for Active; 'I' for Inactive)
REMARK    1  A    between atoms: C_3  and  O_4 
REMARK    2  A    between atoms: C_6  and  N_7 
REMARK       I    between atoms: N_7  and  C_8 
REMARK    3  A    between atoms: C_8  and  C_9 
REMARK    4  A    between atoms: C_12  and  C_13 
REMARK    5  A    between atoms: C_18  and  C_19 
ROOT
HETATM    1  C   UNL     1      20.301  48.340  48.604  1.00  0.00     0.096 A 
HETATM    2  C   UNL     1      19.512  49.456  48.387  1.00  0.00     0.138 A 
HETATM    3  N   UNL     1      18.271  49.137  48.880  1.00  0.00    -0.240 N 
HETATM    4  C   UNL     1      17.119  50.016  48.861  1.00  0.00     0.221 C 
HETATM    5  C   UNL     1      17.556  51.466  48.584  1.00  0.00     0.066 C 
HETATM    6  C   UNL     1      18.672  51.605  47.534  1.00  0.00     0.118 C 
HETATM    7  N   UNL     1      19.758  50.663  47.812  1.00  0.00    -0.365 N 
HETATM    8  N   UNL     1      18.203  47.913  49.428  1.00  0.00    -0.181 NA
HETATM    9  C   UNL     1      19.424  47.412  49.213  1.00  0.00     0.160 A 
HETATM   10  H   UNL     1      20.531  50.747  47.147  1.00  0.00     0.161 HD
ENDROOT
BRANCH   1  11
HETATM   11  C   UNL     1      21.704  48.134  48.284  1.00  0.00     0.261 C 
HETATM   12  N   UNL     1      22.550  48.518  49.309  1.00  0.00    -0.323 N 
HETATM   13  H   UNL     1      22.090  48.739  50.185  1.00  0.00     0.169 HD
HETATM   14  O   UNL     1      22.037  47.628  47.221  1.00  0.00    -0.267 OA
BRANCH  12  15
HETATM   15  C   UNL     1      23.957  48.552  49.305  1.00  0.00     0.037 A 
HETATM   16  C   UNL     1      24.710  49.484  48.591  1.00  0.00     0.066 A 
HETATM   17  C   UNL     1      26.103  49.459  48.673  1.00  0.00     0.067 A 
HETATM   18  C   UNL     1      26.763  48.514  49.451  1.00  0.00     0.036 A 
HETATM   19  C   UNL     1      26.015  47.581  50.164  1.00  0.00     0.005 A 
HETATM   20  C   UNL     1      24.619  47.603  50.096  1.00  0.00     0.029 A 
BRANCH  17  21
HETATM   21  O   UNL     1      26.797  50.401  47.970  1.00  0.00    -0.361 OA
HETATM   22  H   UNL     1      26.846  51.214  48.496  1.00  0.00     0.217 HD
ENDBRANCH  17  21
ENDBRANCH  12  15
ENDBRANCH   1  11
BRANCH   4  23
HETATM   23  C   UNL     1      16.069  49.499  47.902  1.00  0.00     0.409 C 
HETATM   24  F   UNL     1      16.576  48.830  46.849  1.00  0.00    -0.169 F 
HETATM   25  F   UNL     1      15.176  48.685  48.510  1.00  0.00    -0.169 F 
HETATM   26  F   UNL     1      15.349  50.539  47.401  1.00  0.00    -0.169 F 
ENDBRANCH   4  23
BRANCH   6  27
HETATM   27  C   UNL     1      18.212  51.578  46.085  1.00  0.00    -0.035 A 
HETATM   28  C   UNL     1      17.282  52.545  45.651  1.00  0.00     0.012 A 
HETATM   29  C   UNL     1      16.844  52.576  44.325  1.00  0.00     0.043 A 
HETATM   30  C   UNL     1      17.330  51.644  43.419  1.00  0.00     0.116 A 
HETATM   31  F   UNL     1      16.910  51.676  42.148  1.00  0.00    -0.206 F 
HETATM   32  C   UNL     1      18.248  50.682  43.815  1.00  0.00     0.043 A 
HETATM   33  C   UNL     1      18.690  50.652  45.140  1.00  0.00     0.012 A 
ENDBRANCH   6  27
TORSDOF 5
ENDMDL
MODEL 5
REMARK VINA RESULT:      -8.7      4.056      7.046
REMARK  5 active torsions:
REMARK  status: ('A' for Active; 'I' for Inactive)
REMARK    1  A    between atoms: C_3  and  O_4 
REMARK    2  A    between atoms: C_6  and  N_7 
REMARK       I    between atoms: N_7  and  C_8 
REMARK    3  A    between atoms: C_8  and  C_9 
REMARK    4  A    between atoms: C_12  and  C_13 
REMARK    5  A    between atoms: C_18  and  C_19 
ROOT
HETATM    1  C   UNL     1      25.949  42.973  50.550  1.00  0.00     0.096 A 
HETATM    2  C   UNL     1      25.837  43.545  51.804  1.00  0.00     0.138 A 
HETATM    3  N   UNL     1      25.524  44.864  51.587  1.00  0.00    -0.240 N 
HETATM    4  C   UNL     1      25.314  45.850  52.628  1.00  0.00     0.221 C 
HETATM    5  C   UNL     1      25.101  45.159  53.986  1.00  0.00     0.066 C 
HETATM    6  C   UNL     1      26.005  43.937  54.228  1.00  0.00     0.118 C 
HETATM    7  N   UNL     1      25.992  43.051  53.062  1.00  0.00    -0.365 N 
HETATM    8  N   UNL     1      25.392  45.183  50.290  1.00  0.00    -0.181 NA
HETATM    9  C   UNL     1      25.701  44.045  49.660  1.00  0.00     0.160 A 
HETATM   10  H   UNL     1      26.562  42.212  53.198  1.00  0.00     0.161 HD
ENDROOT
BRANCH   1  11
HETATM   11  C   UNL     1      26.257  41.597  50.194  1.00  0.00     0.261 C 
HETATM   12  N   UNL     1      27.614  41.370  50.056  1.00  0.00    -0.323 N 
HETATM   13  H   UNL     1      28.210  42.129  50.365  1.00  0.00     0.169 HD
HETATM   14  O   UNL     1      25.367  40.764  50.087  1.00  0.00    -0.267 OA
BRANCH  12  15
HETATM   15  C   UNL     1      28.256  40.194  49.625  1.00  0.00     0.037 A 
HETATM   16  C   UNL     1      28.963  39.339  50.470  1.00  0.00     0.066 A 
HETATM   17  C   UNL     1      29.541  38.178  49.956  1.00  0.00     0.067 A 
HETATM   18  C   UNL     1      29.434  37.854  48.608  1.00  0.00     0.036 A 
HETATM   19  C   UNL     1      28.729  38.705  47.760  1.00  0.00     0.005 A 
HETATM   20  C   UNL     1      28.139  39.866  48.267  1.00  0.00     0.029 A 
BRANCH  17  21
HETATM   21  O   UNL     1      30.210  37.364  50.824  1.00  0.00    -0.361 OA
HETATM   22  H   UNL     1      29.820  37.457  51.707  1.00  0.00     0.217 HD
ENDBRANCH  17  21
ENDBRANCH  12  15
ENDBRANCH   1  11
BRANCH   4  23
HETATM   23  C   UNL     1      26.431  46.871  52.628  1.00  0.00     0.409 C 
HETATM   24  F   UNL     1      27.662  46.329  52.568  1.00  0.00    -0.169 F 
HETATM   25  F   UNL     1      26.322  47.751  51.608  1.00  0.00    -0.169 F 
HETATM   26  F   UNL     1      26.380  47.610  53.769  1.00  0.00    -0.169 F 
ENDBRANCH   4  23
BRANCH   6  27
HETATM   27  C   UNL     1      27.407  44.251  54.725  1.00  0.00    -0.035 A 
HETATM   28  C   UNL     1      28.471  43.415  54.329  1.00  0.00     0.012 A 
HETATM   29  C   UNL     1      29.780  43.672  54.741  1.00  0.00     0.043 A 
HETATM   30  C   UNL     1      30.041  44.767  55.553  1.00  0.00     0.116 A 
HETATM   31  F   UNL     1      31.297  45.014  55.947  1.00  0.00    -0.206 F 
HETATM   32  C   UNL     1      29.017  45.610  55.959  1.00  0.00     0.043 A 
HETATM   33  C   UNL     1      27.707  45.356  55.544  1.00  0.00     0.012 A 
ENDBRANCH   6  27
TORSDOF 5
ENDMDL
MODEL 6
REMARK VINA RESULT:      -8.7     15.973     18.757
REMARK  5 active torsions:
REMARK  status: ('A' for Active; 'I' for Inactive)
REMARK    1  A    between atoms: C_3  and  O_4 
REMARK    2  A    between atoms: C_6  and  N_7 
REMARK       I    between atoms: N_7  and  C_8 
REMARK    3  A    between atoms: C_8  and  C_9 
REMARK    4  A    between atoms: C_12  and  C_13 
REMARK    5  A    between atoms: C_18  and  C_19 
ROOT
HETATM    1  C   UNL     1      39.580  46.084  64.863  1.00  0.00     0.096 A 
HETATM    2  C   UNL     1      39.084  44.997  64.166  1.00  0.00     0.138 A 
HETATM    3  N   UNL     1      37.848  44.740  64.704  1.00  0.00    -0.240 N 
HETATM    4  C   UNL     1      36.962  43.675  64.277  1.00  0.00     0.221 C 
HETATM    5  C   UNL     1      37.402  43.128  62.908  1.00  0.00     0.066 C 
HETATM    6  C   UNL     1      38.926  43.004  62.731  1.00  0.00     0.118 C 
HETATM    7  N   UNL     1      39.594  44.235  63.161  1.00  0.00    -0.365 N 
HETATM    8  N   UNL     1      37.490  45.595  65.674  1.00  0.00    -0.181 NA
HETATM    9  C   UNL     1      38.565  46.380  65.805  1.00  0.00     0.160 A 
HETATM   10  H   UNL     1      40.608  44.198  63.032  1.00  0.00     0.161 HD
ENDROOT
BRANCH   1  11
HETATM   11  C   UNL     1      40.846  46.779  64.699  1.00  0.00     0.261 C 
HETATM   12  N   UNL     1      41.937  45.985  65.000  1.00  0.00    -0.323 N 
HETATM   13  H   UNL     1      41.728  45.003  65.141  1.00  0.00     0.169 HD
HETATM   14  O   UNL     1      40.880  47.932  64.290  1.00  0.00    -0.267 OA
BRANCH  12  15
HETATM   15  C   UNL     1      43.294  46.357  65.049  1.00  0.00     0.037 A 
HETATM   16  C   UNL     1      44.251  45.929  64.129  1.00  0.00     0.066 A 
HETATM   17  C   UNL     1      45.568  46.376  64.240  1.00  0.00     0.067 A 
HETATM   18  C   UNL     1      45.952  47.241  65.258  1.00  0.00     0.036 A 
HETATM   19  C   UNL     1      45.000  47.671  66.179  1.00  0.00     0.005 A 
HETATM   20  C   UNL     1      43.676  47.235  66.072  1.00  0.00     0.029 A 
BRANCH  17  21
HETATM   21  O   UNL     1      46.466  45.942  63.308  1.00  0.00    -0.361 OA
HETATM   22  H   UNL     1      46.590  44.986  63.413  1.00  0.00     0.217 HD
ENDBRANCH  17  21
ENDBRANCH  12  15
ENDBRANCH   1  11
BRANCH   4  23
HETATM   23  C   UNL     1      36.845  42.616  65.352  1.00  0.00     0.409 C 
HETATM   24  F   UNL     1      36.702  41.366  64.870  1.00  0.00    -0.169 F 
HETATM   25  F   UNL     1      37.909  42.612  66.186  1.00  0.00    -0.169 F 
HETATM   26  F   UNL     1      35.758  42.866  66.130  1.00  0.00    -0.169 F 
ENDBRANCH   4  23
BRANCH   6  27
HETATM   27  C   UNL     1      39.551  41.748  63.317  1.00  0.00    -0.035 A 
HETATM   28  C   UNL     1      39.234  40.501  62.742  1.00  0.00     0.012 A 
HETATM   29  C   UNL     1      39.798  39.320  63.230  1.00  0.00     0.043 A 
HETATM   30  C   UNL     1      40.686  39.372  64.294  1.00  0.00     0.116 A 
HETATM   31  F   UNL     1      41.228  38.239  64.760  1.00  0.00    -0.206 F 
HETATM   32  C   UNL     1      41.021  40.584  64.880  1.00  0.00     0.043 A 
HETATM   33  C   UNL     1      40.461  41.767  64.391  1.00  0.00     0.012 A 
ENDBRANCH   6  27
TORSDOF 5
ENDMDL
MODEL 7
REMARK VINA RESULT:      -8.6     12.571     13.828
REMARK  5 active torsions:
REMARK  status: ('A' for Active; 'I' for Inactive)
REMARK    1  A    between atoms: C_3  and  O_4 
REMARK    2  A    between atoms: C_6  and  N_7 
REMARK       I    between atoms: N_7  and  C_8 
REMARK    3  A    between atoms: C_8  and  C_9 
REMARK    4  A    between atoms: C_12  and  C_13 
REMARK    5  A    between atoms: C_18  and  C_19 
ROOT
HETATM    1  C   UNL     1      35.123  50.864  42.106  1.00  0.00     0.096 A 
HETATM    2  C   UNL     1      33.769  50.722  42.355  1.00  0.00     0.138 A 
HETATM    3  N   UNL     1      33.395  49.558  41.731  1.00  0.00    -0.240 N 
HETATM    4  C   UNL     1      32.052  49.014  41.726  1.00  0.00     0.221 C 
HETATM    5  C   UNL     1      31.198  49.684  42.817  1.00  0.00     0.066 C 
HETATM    6  C   UNL     1      31.436  51.196  42.973  1.00  0.00     0.118 C 
HETATM    7  N   UNL     1      32.870  51.486  43.030  1.00  0.00    -0.365 N 
HETATM    8  N   UNL     1      34.407  48.918  41.125  1.00  0.00    -0.181 NA
HETATM    9  C   UNL     1      35.445  49.739  41.310  1.00  0.00     0.160 A 
HETATM   10  H   UNL     1      33.065  52.482  43.161  1.00  0.00     0.161 HD
ENDROOT
BRANCH   1  11
HETATM   11  C   UNL     1      36.029  51.915  42.538  1.00  0.00     0.261 C 
HETATM   12  N   UNL     1      36.678  51.611  43.720  1.00  0.00    -0.323 N 
HETATM   13  H   UNL     1      36.562  50.656  44.041  1.00  0.00     0.169 HD
HETATM   14  O   UNL     1      36.191  52.921  41.860  1.00  0.00    -0.267 OA
BRANCH  12  15
HETATM   15  C   UNL     1      37.539  52.432  44.473  1.00  0.00     0.037 A 
HETATM   16  C   UNL     1      37.186  53.689  44.961  1.00  0.00     0.066 A 
HETATM   17  C   UNL     1      38.098  54.418  45.725  1.00  0.00     0.067 A 
HETATM   18  C   UNL     1      39.364  53.919  46.008  1.00  0.00     0.036 A 
HETATM   19  C   UNL     1      39.722  52.664  45.521  1.00  0.00     0.005 A 
HETATM   20  C   UNL     1      38.813  51.922  44.762  1.00  0.00     0.029 A 
BRANCH  17  21
HETATM   21  O   UNL     1      37.701  55.637  46.195  1.00  0.00    -0.361 OA
HETATM   22  H   UNL     1      36.908  55.522  46.740  1.00  0.00     0.217 HD
ENDBRANCH  17  21
ENDBRANCH  12  15
ENDBRANCH   1  11
BRANCH   4  23
HETATM   23  C   UNL     1      31.448  49.095  40.340  1.00  0.00     0.409 C 
HETATM   24  F   UNL     1      31.885  50.144  39.618  1.00  0.00    -0.169 F 
HETATM   25  F   UNL     1      31.678  47.977  39.615  1.00  0.00    -0.169 F 
HETATM   26  F   UNL     1      30.096  49.212  40.431  1.00  0.00    -0.169 F 
ENDBRANCH   4  23
BRANCH   6  27
HETATM   27  C   UNL     1      30.684  52.080  41.990  1.00  0.00    -0.035 A 
HETATM   28  C   UNL     1      31.406  53.040  41.252  1.00  0.00     0.012 A 
HETATM   29  C   UNL     1      30.766  53.861  40.322  1.00  0.00     0.043 A 
HETATM   30  C   UNL     1      29.399  53.732  40.117  1.00  0.00     0.116 A 
HETATM   31  F   UNL     1      28.787  54.519  39.223  1.00  0.00    -0.206 F 
HETATM   32  C   UNL     1      28.661  52.795  40.825  1.00  0.00     0.043 A 
HETATM   33  C   UNL     1      29.301  51.970  41.754  1.00  0.00     0.012 A 
ENDBRANCH   6  27
TORSDOF 5
ENDMDL
MODEL 8
REMARK VINA RESULT:      -8.5     11.621     13.825
REMARK  5 active torsions:
REMARK  status: ('A' for Active; 'I' for Inactive)
REMARK    1  A    between atoms: C_3  and  O_4 
REMARK    2  A    between atoms: C_6  and  N_7 
REMARK       I    between atoms: N_7  and  C_8 
REMARK    3  A    between atoms: C_8  and  C_9 
REMARK    4  A    between atoms: C_12  and  C_13 
REMARK    5  A    between atoms: C_18  and  C_19 
ROOT
HETATM    1  C   UNL     1      26.617  49.029  39.544  1.00  0.00     0.096 A 
HETATM    2  C   UNL     1      27.273  50.117  40.093  1.00  0.00     0.138 A 
HETATM    3  N   UNL     1      27.580  50.939  39.037  1.00  0.00    -0.240 N 
HETATM    4  C   UNL     1      28.279  52.204  39.146  1.00  0.00     0.221 C 
HETATM    5  C   UNL     1      28.282  52.690  40.607  1.00  0.00     0.066 C 
HETATM    6  C   UNL     1      28.497  51.578  41.648  1.00  0.00     0.118 C 
HETATM    7  N   UNL     1      27.624  50.436  41.367  1.00  0.00    -0.365 N 
HETATM    8  N   UNL     1      27.147  50.484  37.851  1.00  0.00    -0.181 NA
HETATM    9  C   UNL     1      26.608  49.299  38.154  1.00  0.00     0.160 A 
HETATM   10  H   UNL     1      27.722  49.687  42.057  1.00  0.00     0.161 HD
ENDROOT
BRANCH   1  11
HETATM   11  C   UNL     1      26.064  47.861  40.209  1.00  0.00     0.261 C 
HETATM   12  N   UNL     1      27.032  46.945  40.579  1.00  0.00    -0.323 N 
HETATM   13  H   UNL     1      27.988  47.269  40.483  1.00  0.00     0.169 HD
HETATM   14  O   UNL     1      24.863  47.776  40.431  1.00  0.00    -0.267 OA
BRANCH  12  15
HETATM   15  C   UNL     1      26.847  45.670  41.146  1.00  0.00     0.037 A 
HETATM   16  C   UNL     1      26.003  45.414  42.227  1.00  0.00     0.066 A 
HETATM   17  C   UNL     1      25.861  44.110  42.701  1.00  0.00     0.067 A 
HETATM   18  C   UNL     1      26.552  43.052  42.121  1.00  0.00     0.036 A 
HETATM   19  C   UNL     1      27.397  43.303  41.043  1.00  0.00     0.005 A 
HETATM   20  C   UNL     1      27.539  44.605  40.554  1.00  0.00     0.029 A 
BRANCH  17  21
HETATM   21  O   UNL     1      25.012  43.905  43.751  1.00  0.00    -0.361 OA
HETATM   22  H   UNL     1      25.481  44.101  44.577  1.00  0.00     0.217 HD
ENDBRANCH  17  21
ENDBRANCH  12  15
ENDBRANCH   1  11
BRANCH   4  23
HETATM   23  C   UNL     1      29.657  52.108  38.530  1.00  0.00     0.409 C 
HETATM   24  F   UNL     1      29.700  52.471  37.234  1.00  0.00    -0.169 F 
HETATM   25  F   UNL     1      30.569  52.854  39.192  1.00  0.00    -0.169 F 
HETATM   26  F   UNL     1      30.104  50.824  38.595  1.00  0.00    -0.169 F 
ENDBRANCH   4  23
BRANCH   6  27
HETATM   27  C   UNL     1      29.945  51.180  41.887  1.00  0.00    -0.035 A 
HETATM   28  C   UNL     1      30.861  52.168  42.304  1.00  0.00     0.012 A 
HETATM   29  C   UNL     1      32.197  51.849  42.558  1.00  0.00     0.043 A 
HETATM   30  C   UNL     1      32.632  50.542  42.400  1.00  0.00     0.116 A 
HETATM   31  F   UNL     1      33.913  50.237  42.645  1.00  0.00    -0.206 F 
HETATM   32  C   UNL     1      31.756  49.546  41.994  1.00  0.00     0.043 A 
HETATM   33  C   UNL     1      30.418  49.862  41.743  1.00  0.00     0.012 A 
ENDBRANCH   6  27
TORSDOF 5
ENDMDL
MODEL 9
REMARK VINA RESULT:      -8.4     13.145     16.126
REMARK  5 active torsions:
REMARK  status: ('A' for Active; 'I' for Inactive)
REMARK    1  A    between atoms: C_3  and  O_4 
REMARK    2  A    between atoms: C_6  and  N_7 
REMARK       I    between atoms: N_7  and  C_8 
REMARK    3  A    between atoms: C_8  and  C_9 
REMARK    4  A    between atoms: C_12  and  C_13 
REMARK    5  A    between atoms: C_18  and  C_19 
ROOT
HETATM    1  C   UNL     1      34.715  51.679  40.432  1.00  0.00     0.096 A 
HETATM    2  C   UNL     1      33.509  51.783  41.102  1.00  0.00     0.138 A 
HETATM    3  N   UNL     1      33.398  50.636  41.849  1.00  0.00    -0.240 N 
HETATM    4  C   UNL     1      32.280  50.314  42.714  1.00  0.00     0.221 C 
HETATM    5  C   UNL     1      31.437  51.571  42.992  1.00  0.00     0.066 C 
HETATM    6  C   UNL     1      31.252  52.495  41.775  1.00  0.00     0.118 C 
HETATM    7  N   UNL     1      32.536  52.733  41.111  1.00  0.00    -0.365 N 
HETATM    8  N   UNL     1      34.452  49.813  41.739  1.00  0.00    -0.181 NA
HETATM    9  C   UNL     1      35.227  50.424  40.838  1.00  0.00     0.160 A 
HETATM   10  H   UNL     1      32.454  53.366  40.312  1.00  0.00     0.161 HD
ENDROOT
BRANCH   1  11
HETATM   11  C   UNL     1      35.335  52.618  39.511  1.00  0.00     0.261 C 
HETATM   12  N   UNL     1      35.378  53.908  40.008  1.00  0.00    -0.323 N 
HETATM   13  H   UNL     1      35.124  54.000  40.985  1.00  0.00     0.169 HD
HETATM   14  O   UNL     1      35.791  52.238  38.441  1.00  0.00    -0.267 OA
BRANCH  12  15
HETATM   15  C   UNL     1      35.812  55.075  39.352  1.00  0.00     0.037 A 
HETATM   16  C   UNL     1      35.005  56.191  39.135  1.00  0.00     0.066 A 
HETATM   17  C   UNL     1      35.533  57.317  38.503  1.00  0.00     0.067 A 
HETATM   18  C   UNL     1      36.855  57.350  38.074  1.00  0.00     0.036 A 
HETATM   19  C   UNL     1      37.665  56.238  38.287  1.00  0.00     0.005 A 
HETATM   20  C   UNL     1      37.148  55.108  38.928  1.00  0.00     0.029 A 
BRANCH  17  21
HETATM   21  O   UNL     1      34.708  58.391  38.326  1.00  0.00    -0.361 OA
HETATM   22  H   UNL     1      35.236  59.203  38.374  1.00  0.00     0.217 HD
ENDBRANCH  17  21
ENDBRANCH  12  15
ENDBRANCH   1  11
BRANCH   4  23
HETATM   23  C   UNL     1      31.486  49.156  42.150  1.00  0.00     0.409 C 
HETATM   24  F   UNL     1      31.440  49.132  40.805  1.00  0.00    -0.169 F 
HETATM   25  F   UNL     1      31.960  47.959  42.564  1.00  0.00    -0.169 F 
HETATM   26  F   UNL     1      30.200  49.221  42.588  1.00  0.00    -0.169 F 
ENDBRANCH   4  23
BRANCH   6  27
HETATM   27  C   UNL     1      30.145  52.094  40.813  1.00  0.00    -0.035 A 
HETATM   28  C   UNL     1      28.844  51.898  41.319  1.00  0.00     0.012 A 
HETATM   29  C   UNL     1      27.789  51.549  40.473  1.00  0.00     0.043 A 
HETATM   30  C   UNL     1      28.021  51.394  39.114  1.00  0.00     0.116 A 
HETATM   31  F   UNL     1      27.008  51.060  38.304  1.00  0.00    -0.206 F 
HETATM   32  C   UNL     1      29.289  51.581  38.585  1.00  0.00     0.043 A 
HETATM   33  C   UNL     1      30.345  51.934  39.429  1.00  0.00     0.012 A 
ENDBRANCH   6  27
TORSDOF 5
ENDMDL
MODEL 10
REMARK VINA RESULT:      -8.4      2.731      4.561
REMARK  5 active torsions:
REMARK  status: ('A' for Active; 'I' for Inactive)
REMARK    1  A    between atoms: C_3  and  O_4 
REMARK    2  A    between atoms: C_6  and  N_7 
REMARK       I    between atoms: N_7  and  C_8 
REMARK    3  A    between atoms: C_8  and  C_9 
REMARK    4  A    between atoms: C_12  and  C_13 
REMARK    5  A    between atoms: C_18  and  C_19 
ROOT
HETATM    1  C   UNL     1      26.438  45.191  53.284  1.00  0.00     0.096 A 
HETATM    2  C   UNL     1      26.466  44.739  51.977  1.00  0.00     0.138 A 
HETATM    3  N   UNL     1      25.154  44.565  51.614  1.00  0.00    -0.240 N 
HETATM    4  C   UNL     1      24.706  44.095  50.318  1.00  0.00     0.221 C 
HETATM    5  C   UNL     1      25.847  44.193  49.289  1.00  0.00     0.066 C 
HETATM    6  C   UNL     1      27.232  43.803  49.835  1.00  0.00     0.118 C 
HETATM    7  N   UNL     1      27.483  44.463  51.117  1.00  0.00    -0.365 N 
HETATM    8  N   UNL     1      24.277  44.899  52.574  1.00  0.00    -0.181 NA
HETATM    9  C   UNL     1      25.060  45.231  53.605  1.00  0.00     0.160 A 
HETATM   10  H   UNL     1      28.408  44.247  51.497  1.00  0.00     0.161 HD
ENDROOT
BRANCH   1  11
HETATM   11  C   UNL     1      27.547  45.544  54.156  1.00  0.00     0.261 C 
HETATM   12  N   UNL     1      28.291  44.447  54.549  1.00  0.00    -0.323 N 
HETATM   13  H   UNL     1      28.069  43.583  54.067  1.00  0.00     0.169 HD
HETATM   14  O   UNL     1      27.774  46.713  54.440  1.00  0.00    -0.267 OA
BRANCH  12  15
HETATM   15  C   UNL     1      29.361  44.407  55.462  1.00  0.00     0.037 A 
HETATM   16  C   UNL     1      29.553  45.343  56.478  1.00  0.00     0.066 A 
HETATM   17  C   UNL     1      30.628  45.203  57.356  1.00  0.00     0.067 A 
HETATM   18  C   UNL     1      31.524  44.148  57.237  1.00  0.00     0.036 A 
HETATM   19  C   UNL     1      31.338  43.211  56.224  1.00  0.00     0.005 A 
HETATM   20  C   UNL     1      30.259  43.337  55.344  1.00  0.00     0.029 A 
BRANCH  17  21
HETATM   21  O   UNL     1      30.765  46.136  58.344  1.00  0.00    -0.361 OA
HETATM   22  H   UNL     1      30.315  46.950  58.073  1.00  0.00     0.217 HD
ENDBRANCH  17  21
ENDBRANCH  12  15
ENDBRANCH   1  11
BRANCH   4  23
HETATM   23  C   UNL     1      24.100  42.713  50.431  1.00  0.00     0.409 C 
HETATM   24  F   UNL     1      24.692  41.934  51.357  1.00  0.00    -0.169 F 
HETATM   25  F   UNL     1      22.780  42.754  50.717  1.00  0.00    -0.169 F 
HETATM   26  F   UNL     1      24.207  42.063  49.241  1.00  0.00    -0.169 F 
ENDBRANCH   4  23
BRANCH   6  27
HETATM   27  C   UNL     1      27.525  42.311  49.862  1.00  0.00    -0.035 A 
HETATM   28  C   UNL     1      27.341  41.562  48.682  1.00  0.00     0.012 A 
HETATM   29  C   UNL     1      27.617  40.193  48.649  1.00  0.00     0.043 A 
HETATM   30  C   UNL     1      28.081  39.559  49.792  1.00  0.00     0.116 A 
HETATM   31  F   UNL     1      28.347  38.247  49.759  1.00  0.00    -0.206 F 
HETATM   32  C   UNL     1      28.276  40.268  50.968  1.00  0.00     0.043 A 
HETATM   33  C   UNL     1      28.004  41.639  51.002  1.00  0.00     0.012 A 
ENDBRANCH   6  27
TORSDOF 5
ENDMDL
