MODEL 1
REMARK VINA RESULT:     -10.2      0.000      0.000
REMARK  7 active torsions:
REMARK  status: ('A' for Active; 'I' for Inactive)
REMARK    1  A    between atoms: C_2  and  O_3 
REMARK    2  A    between atoms: O_3  and  C_4 
REMARK    3  A    between atoms: C_5  and  C_6 
REMARK    4  A    between atoms: C_9  and  C_10 
REMARK       I    between atoms: C_10  and  N_11 
REMARK    5  A    between atoms: N_11  and  C_12 
REMARK    6  A    between atoms: C_25  and  C_26 
REMARK       I    between atoms: C_26  and  N_27 
REMARK    7  A    between atoms: N_27  and  C_28 
ROOT
HETATM    1  C   UNL     1      22.741  45.320  49.299  1.00  0.00     0.188 A 
HETATM    2  N   UNL     1      23.726  44.413  49.920  1.00  0.00    -0.239 N 
HETATM    3  C   UNL     1      24.971  44.802  50.369  1.00  0.00     0.142 A 
HETATM    4  C   UNL     1      25.567  43.660  50.867  1.00  0.00     0.097 A 
HETATM    5  C   UNL     1      24.601  42.645  50.652  1.00  0.00     0.160 A 
HETATM    6  N   UNL     1      23.462  43.104  50.132  1.00  0.00    -0.181 NA
HETATM    7  N   UNL     1      25.350  46.099  50.223  1.00  0.00    -0.343 N 
HETATM    8  C   UNL     1      24.532  47.059  49.622  1.00  0.00     0.021 A 
HETATM    9  C   UNL     1      25.072  48.462  49.514  1.00  0.00     0.069 C 
HETATM   10  C   UNL     1      23.302  46.721  49.171  1.00  0.00     0.061 A 
HETATM   11  H   UNL     1      26.312  46.392  50.386  1.00  0.00     0.167 HD
ENDROOT
BRANCH   4  12
HETATM   12  C   UNL     1      26.867  43.457  51.477  1.00  0.00     0.261 C 
HETATM   13  N   UNL     1      27.035  44.140  52.669  1.00  0.00    -0.323 N 
HETATM   14  H   UNL     1      26.225  44.649  53.002  1.00  0.00     0.169 HD
HETATM   15  O   UNL     1      27.669  42.685  50.969  1.00  0.00    -0.267 OA
BRANCH  13  16
HETATM   16  C   UNL     1      28.132  44.049  53.553  1.00  0.00     0.035 A 
HETATM   17  C   UNL     1      29.013  42.962  53.594  1.00  0.00     0.032 A 
HETATM   18  C   UNL     1      30.056  42.927  54.527  1.00  0.00     0.044 A 
HETATM   19  C   UNL     1      30.219  43.980  55.415  1.00  0.00     0.116 A 
HETATM   20  F   UNL     1      31.212  43.941  56.312  1.00  0.00    -0.206 F 
HETATM   21  C   UNL     1      29.364  45.073  55.384  1.00  0.00     0.044 A 
HETATM   22  C   UNL     1      28.321  45.108  54.453  1.00  0.00     0.032 A 
ENDBRANCH  13  16
ENDBRANCH   4  12
BRANCH   1  23
HETATM   23  C   UNL     1      22.213  44.703  48.003  1.00  0.00     0.005 A 
HETATM   24  C   UNL     1      20.844  44.588  47.703  1.00  0.00     0.077 A 
HETATM   25  C   UNL     1      20.422  44.014  46.499  1.00  0.00     0.037 A 
HETATM   26  C   UNL     1      21.359  43.594  45.556  1.00  0.00     0.003 A 
HETATM   27  C   UNL     1      22.718  43.727  45.822  1.00  0.00     0.001 A 
HETATM   28  C   UNL     1      23.142  44.273  47.034  1.00  0.00     0.012 A 
BRANCH  24  29
HETATM   29  O   UNL     1      19.929  44.910  48.674  1.00  0.00    -0.351 OA
BRANCH  29  30
HETATM   30  C   UNL     1      18.667  45.313  48.130  1.00  0.00     0.171 C 
HETATM   31  C   UNL     1      18.712  46.817  47.931  1.00  0.00     0.034 C 
ENDBRANCH  29  30
ENDBRANCH  24  29
ENDBRANCH   1  23
BRANCH  10  32
HETATM   32  C   UNL     1      22.395  47.718  48.556  1.00  0.00     0.256 C 
HETATM   33  N   UNL     1      21.660  48.389  49.507  1.00  0.00    -0.323 N 
HETATM   34  H   UNL     1      21.842  48.132  50.474  1.00  0.00     0.169 HD
HETATM   35  O   UNL     1      22.403  47.874  47.344  1.00  0.00    -0.267 OA
BRANCH  33  36
HETATM   36  C   UNL     1      20.857  49.531  49.324  1.00  0.00     0.035 A 
HETATM   37  C   UNL     1      21.211  50.612  48.519  1.00  0.00     0.029 A 
HETATM   38  C   UNL     1      20.371  51.728  48.426  1.00  0.00     0.002 A 
HETATM   39  C   UNL     1      19.175  51.770  49.139  1.00  0.00     0.000 A 
HETATM   40  C   UNL     1      18.811  50.691  49.941  1.00  0.00     0.002 A 
HETATM   41  C   UNL     1      19.646  49.575  50.028  1.00  0.00     0.029 A 
ENDBRANCH  33  36
ENDBRANCH  10  32
TORSDOF 7
ENDMDL
MODEL 2
REMARK VINA RESULT:      -9.4      2.059      4.638
REMARK  7 active torsions:
REMARK  status: ('A' for Active; 'I' for Inactive)
REMARK    1  A    between atoms: C_2  and  O_3 
REMARK    2  A    between atoms: O_3  and  C_4 
REMARK    3  A    between atoms: C_5  and  C_6 
REMARK    4  A    between atoms: C_9  and  C_10 
REMARK       I    between atoms: C_10  and  N_11 
REMARK    5  A    between atoms: N_11  and  C_12 
REMARK    6  A    between atoms: C_25  and  C_26 
REMARK       I    between atoms: C_26  and  N_27 
REMARK    7  A    between atoms: N_27  and  C_28 
ROOT
HETATM    1  C   UNL     1      22.890  47.230  48.145  1.00  0.00     0.188 A 
HETATM    2  N   UNL     1      23.723  47.004  49.342  1.00  0.00    -0.239 N 
HETATM    3  C   UNL     1      23.993  45.763  49.882  1.00  0.00     0.142 A 
HETATM    4  C   UNL     1      24.793  45.998  50.983  1.00  0.00     0.097 A 
HETATM    5  C   UNL     1      24.924  47.408  51.021  1.00  0.00     0.160 A 
HETATM    6  N   UNL     1      24.328  48.020  49.997  1.00  0.00    -0.181 NA
HETATM    7  N   UNL     1      23.451  44.660  49.304  1.00  0.00    -0.343 N 
HETATM    8  C   UNL     1      22.615  44.729  48.186  1.00  0.00     0.021 A 
HETATM    9  C   UNL     1      22.073  43.431  47.644  1.00  0.00     0.069 C 
HETATM   10  C   UNL     1      22.328  45.925  47.622  1.00  0.00     0.061 A 
HETATM   11  H   UNL     1      23.487  43.750  49.760  1.00  0.00     0.167 HD
ENDROOT
BRANCH   4  12
HETATM   12  C   UNL     1      25.392  45.079  51.932  1.00  0.00     0.261 C 
HETATM   13  N   UNL     1      26.762  45.226  52.059  1.00  0.00    -0.323 N 
HETATM   14  H   UNL     1      27.175  45.983  51.526  1.00  0.00     0.169 HD
HETATM   15  O   UNL     1      24.686  44.317  52.579  1.00  0.00    -0.267 OA
BRANCH  13  16
HETATM   16  C   UNL     1      27.606  44.570  52.982  1.00  0.00     0.035 A 
HETATM   17  C   UNL     1      27.938  45.088  54.239  1.00  0.00     0.032 A 
HETATM   18  C   UNL     1      28.813  44.396  55.084  1.00  0.00     0.044 A 
HETATM   19  C   UNL     1      29.350  43.185  54.674  1.00  0.00     0.116 A 
HETATM   20  F   UNL     1      30.193  42.528  55.481  1.00  0.00    -0.206 F 
HETATM   21  C   UNL     1      29.025  42.648  53.436  1.00  0.00     0.044 A 
HETATM   22  C   UNL     1      28.152  43.340  52.591  1.00  0.00     0.032 A 
ENDBRANCH  13  16
ENDBRANCH   4  12
BRANCH   1  23
HETATM   23  C   UNL     1      21.857  48.322  48.430  1.00  0.00     0.005 A 
HETATM   24  C   UNL     1      21.931  49.617  47.886  1.00  0.00     0.077 A 
HETATM   25  C   UNL     1      20.955  50.574  48.183  1.00  0.00     0.037 A 
HETATM   26  C   UNL     1      19.866  50.237  48.986  1.00  0.00     0.003 A 
HETATM   27  C   UNL     1      19.760  48.953  49.509  1.00  0.00     0.001 A 
HETATM   28  C   UNL     1      20.747  48.005  49.237  1.00  0.00     0.012 A 
BRANCH  24  29
HETATM   29  O   UNL     1      23.054  49.971  47.181  1.00  0.00    -0.351 OA
BRANCH  29  30
HETATM   30  C   UNL     1      23.952  50.784  47.946  1.00  0.00     0.171 C 
HETATM   31  C   UNL     1      25.349  50.218  47.767  1.00  0.00     0.034 C 
ENDBRANCH  29  30
ENDBRANCH  24  29
ENDBRANCH   1  23
BRANCH  10  32
HETATM   32  C   UNL     1      21.471  46.034  46.418  1.00  0.00     0.256 C 
HETATM   33  N   UNL     1      20.135  46.079  46.749  1.00  0.00    -0.323 N 
HETATM   34  H   UNL     1      19.921  46.048  47.743  1.00  0.00     0.169 HD
HETATM   35  O   UNL     1      21.990  46.108  45.313  1.00  0.00    -0.267 OA
BRANCH  33  36
HETATM   36  C   UNL     1      19.051  46.382  45.904  1.00  0.00     0.035 A 
HETATM   37  C   UNL     1      18.468  45.469  45.026  1.00  0.00     0.029 A 
HETATM   38  C   UNL     1      17.419  45.866  44.190  1.00  0.00     0.002 A 
HETATM   39  C   UNL     1      16.949  47.177  44.223  1.00  0.00     0.000 A 
HETATM   40  C   UNL     1      17.522  48.094  45.101  1.00  0.00     0.002 A 
HETATM   41  C   UNL     1      18.564  47.695  45.941  1.00  0.00     0.029 A 
ENDBRANCH  33  36
ENDBRANCH  10  32
TORSDOF 7
ENDMDL
MODEL 3
REMARK VINA RESULT:      -9.3      2.802      5.911
REMARK  7 active torsions:
REMARK  status: ('A' for Active; 'I' for Inactive)
REMARK    1  A    between atoms: C_2  and  O_3 
REMARK    2  A    between atoms: O_3  and  C_4 
REMARK    3  A    between atoms: C_5  and  C_6 
REMARK    4  A    between atoms: C_9  and  C_10 
REMARK       I    between atoms: C_10  and  N_11 
REMARK    5  A    between atoms: N_11  and  C_12 
REMARK    6  A    between atoms: C_25  and  C_26 
REMARK       I    between atoms: C_26  and  N_27 
REMARK    7  A    between atoms: N_27  and  C_28 
ROOT
HETATM    1  C   UNL     1      20.904  48.903  47.579  1.00  0.00     0.188 A 
HETATM    2  N   UNL     1      22.276  48.979  48.117  1.00  0.00    -0.239 N 
HETATM    3  C   UNL     1      22.919  47.944  48.765  1.00  0.00     0.142 A 
HETATM    4  C   UNL     1      24.166  48.430  49.107  1.00  0.00     0.097 A 
HETATM    5  C   UNL     1      24.158  49.766  48.633  1.00  0.00     0.160 A 
HETATM    6  N   UNL     1      23.040  50.087  47.981  1.00  0.00    -0.181 NA
HETATM    7  N   UNL     1      22.259  46.772  48.953  1.00  0.00    -0.343 N 
HETATM    8  C   UNL     1      20.943  46.572  48.526  1.00  0.00     0.021 A 
HETATM    9  C   UNL     1      20.322  45.226  48.801  1.00  0.00     0.069 C 
HETATM   10  C   UNL     1      20.278  47.558  47.882  1.00  0.00     0.061 A 
HETATM   11  H   UNL     1      22.629  46.047  49.565  1.00  0.00     0.167 HD
ENDROOT
BRANCH   4  12
HETATM   12  C   UNL     1      25.276  47.796  49.791  1.00  0.00     0.261 C 
HETATM   13  N   UNL     1      24.946  47.290  51.036  1.00  0.00    -0.323 N 
HETATM   14  H   UNL     1      23.971  47.369  51.299  1.00  0.00     0.169 HD
HETATM   15  O   UNL     1      26.360  47.688  49.234  1.00  0.00    -0.267 OA
BRANCH  13  16
HETATM   16  C   UNL     1      25.767  46.516  51.885  1.00  0.00     0.035 A 
HETATM   17  C   UNL     1      26.171  45.207  51.598  1.00  0.00     0.032 A 
HETATM   18  C   UNL     1      26.955  44.489  52.508  1.00  0.00     0.044 A 
HETATM   19  C   UNL     1      27.339  45.083  53.702  1.00  0.00     0.116 A 
HETATM   20  F   UNL     1      28.082  44.392  54.575  1.00  0.00    -0.206 F 
HETATM   21  C   UNL     1      26.959  46.384  54.001  1.00  0.00     0.044 A 
HETATM   22  C   UNL     1      26.174  47.101  53.092  1.00  0.00     0.032 A 
ENDBRANCH  13  16
ENDBRANCH   4  12
BRANCH   1  23
HETATM   23  C   UNL     1      20.099  50.120  48.037  1.00  0.00     0.005 A 
HETATM   24  C   UNL     1      19.258  50.857  47.184  1.00  0.00     0.077 A 
HETATM   25  C   UNL     1      18.546  51.962  47.661  1.00  0.00     0.037 A 
HETATM   26  C   UNL     1      18.624  52.317  49.007  1.00  0.00     0.003 A 
HETATM   27  C   UNL     1      19.427  51.583  49.873  1.00  0.00     0.001 A 
HETATM   28  C   UNL     1      20.160  50.497  49.393  1.00  0.00     0.012 A 
BRANCH  24  29
HETATM   29  O   UNL     1      19.264  50.565  45.842  1.00  0.00    -0.351 OA
BRANCH  29  30
HETATM   30  C   UNL     1      18.010  50.851  45.210  1.00  0.00     0.171 C 
HETATM   31  C   UNL     1      18.238  50.831  43.710  1.00  0.00     0.034 C 
ENDBRANCH  29  30
ENDBRANCH  24  29
ENDBRANCH   1  23
BRANCH  10  32
HETATM   32  C   UNL     1      18.894  47.372  47.388  1.00  0.00     0.256 C 
HETATM   33  N   UNL     1      18.876  46.953  46.076  1.00  0.00    -0.323 N 
HETATM   34  H   UNL     1      19.784  46.816  45.640  1.00  0.00     0.169 HD
HETATM   35  O   UNL     1      17.952  47.557  48.146  1.00  0.00    -0.267 OA
BRANCH  33  36
HETATM   36  C   UNL     1      17.772  46.483  45.340  1.00  0.00     0.035 A 
HETATM   37  C   UNL     1      16.873  47.311  44.669  1.00  0.00     0.029 A 
HETATM   38  C   UNL     1      15.777  46.762  43.994  1.00  0.00     0.002 A 
HETATM   39  C   UNL     1      15.571  45.384  43.990  1.00  0.00     0.000 A 
HETATM   40  C   UNL     1      16.467  44.549  44.654  1.00  0.00     0.002 A 
HETATM   41  C   UNL     1      17.565  45.097  45.320  1.00  0.00     0.029 A 
ENDBRANCH  33  36
ENDBRANCH  10  32
TORSDOF 7
ENDMDL
MODEL 4
REMARK VINA RESULT:      -9.1      1.122      2.203
REMARK  7 active torsions:
REMARK  status: ('A' for Active; 'I' for Inactive)
REMARK    1  A    between atoms: C_2  and  O_3 
REMARK    2  A    between atoms: O_3  and  C_4 
REMARK    3  A    between atoms: C_5  and  C_6 
REMARK    4  A    between atoms: C_9  and  C_10 
REMARK       I    between atoms: C_10  and  N_11 
REMARK    5  A    between atoms: N_11  and  C_12 
REMARK    6  A    between atoms: C_25  and  C_26 
REMARK       I    between atoms: C_26  and  N_27 
REMARK    7  A    between atoms: N_27  and  C_28 
ROOT
HETATM    1  C   UNL     1      22.000  45.543  49.400  1.00  0.00     0.188 A 
HETATM    2  N   UNL     1      22.860  44.474  49.944  1.00  0.00    -0.239 N 
HETATM    3  C   UNL     1      24.201  44.622  50.233  1.00  0.00     0.142 A 
HETATM    4  C   UNL     1      24.622  43.395  50.709  1.00  0.00     0.097 A 
HETATM    5  C   UNL     1      23.461  42.584  50.647  1.00  0.00     0.160 A 
HETATM    6  N   UNL     1      22.377  43.246  50.241  1.00  0.00    -0.181 NA
HETATM    7  N   UNL     1      24.800  45.816  49.990  1.00  0.00    -0.343 N 
HETATM    8  C   UNL     1      24.116  46.906  49.444  1.00  0.00     0.021 A 
HETATM    9  C   UNL     1      24.898  48.174  49.217  1.00  0.00     0.069 C 
HETATM   10  C   UNL     1      22.799  46.805  49.150  1.00  0.00     0.061 A 
HETATM   11  H   UNL     1      25.813  45.920  50.031  1.00  0.00     0.167 HD
ENDROOT
BRANCH   4  12
HETATM   12  C   UNL     1      25.922  42.955  51.176  1.00  0.00     0.261 C 
HETATM   13  N   UNL     1      26.546  43.858  52.019  1.00  0.00    -0.323 N 
HETATM   14  H   UNL     1      26.008  44.684  52.254  1.00  0.00     0.169 HD
HETATM   15  O   UNL     1      26.340  41.846  50.873  1.00  0.00    -0.267 OA
BRANCH  13  16
HETATM   16  C   UNL     1      27.752  43.667  52.728  1.00  0.00     0.035 A 
HETATM   17  C   UNL     1      28.907  43.110  52.167  1.00  0.00     0.032 A 
HETATM   18  C   UNL     1      30.053  42.916  52.946  1.00  0.00     0.044 A 
HETATM   19  C   UNL     1      30.045  43.284  54.284  1.00  0.00     0.116 A 
HETATM   20  F   UNL     1      31.140  43.090  55.030  1.00  0.00    -0.206 F 
HETATM   21  C   UNL     1      28.914  43.848  54.857  1.00  0.00     0.044 A 
HETATM   22  C   UNL     1      27.768  44.041  54.079  1.00  0.00     0.032 A 
ENDBRANCH  13  16
ENDBRANCH   4  12
BRANCH   1  23
HETATM   23  C   UNL     1      21.213  45.015  48.199  1.00  0.00     0.005 A 
HETATM   24  C   UNL     1      21.806  44.316  47.133  1.00  0.00     0.077 A 
HETATM   25  C   UNL     1      21.034  43.857  46.061  1.00  0.00     0.037 A 
HETATM   26  C   UNL     1      19.652  44.046  46.062  1.00  0.00     0.003 A 
HETATM   27  C   UNL     1      19.044  44.710  47.122  1.00  0.00     0.001 A 
HETATM   28  C   UNL     1      19.816  45.193  48.179  1.00  0.00     0.012 A 
BRANCH  24  29
HETATM   29  O   UNL     1      23.175  44.222  47.089  1.00  0.00    -0.351 OA
BRANCH  29  30
HETATM   30  C   UNL     1      23.627  43.147  46.257  1.00  0.00     0.171 C 
HETATM   31  C   UNL     1      24.199  42.073  47.165  1.00  0.00     0.034 C 
ENDBRANCH  29  30
ENDBRANCH  24  29
ENDBRANCH   1  23
BRANCH  10  32
HETATM   32  C   UNL     1      22.033  47.947  48.600  1.00  0.00     0.256 C 
HETATM   33  N   UNL     1      21.162  48.470  49.530  1.00  0.00    -0.323 N 
HETATM   34  H   UNL     1      21.171  48.028  50.446  1.00  0.00     0.169 HD
HETATM   35  O   UNL     1      22.251  48.326  47.458  1.00  0.00    -0.267 OA
BRANCH  33  36
HETATM   36  C   UNL     1      20.428  49.667  49.442  1.00  0.00     0.035 A 
HETATM   37  C   UNL     1      19.222  49.892  50.104  1.00  0.00     0.029 A 
HETATM   38  C   UNL     1      18.535  51.099  49.928  1.00  0.00     0.002 A 
HETATM   39  C   UNL     1      19.047  52.084  49.087  1.00  0.00     0.000 A 
HETATM   40  C   UNL     1      20.254  51.870  48.426  1.00  0.00     0.002 A 
HETATM   41  C   UNL     1      20.943  50.669  48.609  1.00  0.00     0.029 A 
ENDBRANCH  33  36
ENDBRANCH  10  32
TORSDOF 7
ENDMDL
MODEL 5
REMARK VINA RESULT:      -8.9      5.580      8.924
REMARK  7 active torsions:
REMARK  status: ('A' for Active; 'I' for Inactive)
REMARK    1  A    between atoms: C_2  and  O_3 
REMARK    2  A    between atoms: O_3  and  C_4 
REMARK    3  A    between atoms: C_5  and  C_6 
REMARK    4  A    between atoms: C_9  and  C_10 
REMARK       I    between atoms: C_10  and  N_11 
REMARK    5  A    between atoms: N_11  and  C_12 
REMARK    6  A    between atoms: C_25  and  C_26 
REMARK       I    between atoms: C_26  and  N_27 
REMARK    7  A    between atoms: N_27  and  C_28 
ROOT
HETATM    1  C   UNL     1      27.091  40.811  48.292  1.00  0.00     0.188 A 
HETATM    2  N   UNL     1      27.304  41.655  49.484  1.00  0.00    -0.239 N 
HETATM    3  C   UNL     1      27.838  41.204  50.674  1.00  0.00     0.142 A 
HETATM    4  C   UNL     1      27.858  42.298  51.516  1.00  0.00     0.097 A 
HETATM    5  C   UNL     1      27.299  43.344  50.739  1.00  0.00     0.160 A 
HETATM    6  N   UNL     1      27.015  42.976  49.488  1.00  0.00    -0.181 NA
HETATM    7  N   UNL     1      28.180  39.895  50.789  1.00  0.00    -0.343 N 
HETATM    8  C   UNL     1      28.002  38.975  49.752  1.00  0.00     0.021 A 
HETATM    9  C   UNL     1      28.416  37.549  50.010  1.00  0.00     0.069 C 
HETATM   10  C   UNL     1      27.485  39.375  48.568  1.00  0.00     0.061 A 
HETATM   11  H   UNL     1      28.420  39.487  51.692  1.00  0.00     0.167 HD
ENDROOT
BRANCH   4  12
HETATM   12  C   UNL     1      28.318  42.432  52.885  1.00  0.00     0.261 C 
HETATM   13  N   UNL     1      29.043  43.587  53.118  1.00  0.00    -0.323 N 
HETATM   14  H   UNL     1      29.120  44.224  52.334  1.00  0.00     0.169 HD
HETATM   15  O   UNL     1      27.999  41.600  53.724  1.00  0.00    -0.267 OA
BRANCH  13  16
HETATM   16  C   UNL     1      29.514  44.058  54.363  1.00  0.00     0.035 A 
HETATM   17  C   UNL     1      30.562  43.465  55.076  1.00  0.00     0.032 A 
HETATM   18  C   UNL     1      30.948  43.968  56.323  1.00  0.00     0.044 A 
HETATM   19  C   UNL     1      30.288  45.066  56.855  1.00  0.00     0.116 A 
HETATM   20  F   UNL     1      30.653  45.541  58.053  1.00  0.00    -0.206 F 
HETATM   21  C   UNL     1      29.254  45.677  56.160  1.00  0.00     0.044 A 
HETATM   22  C   UNL     1      28.867  45.174  54.914  1.00  0.00     0.032 A 
ENDBRANCH  13  16
ENDBRANCH   4  12
BRANCH   1  23
HETATM   23  C   UNL     1      25.670  41.011  47.762  1.00  0.00     0.005 A 
HETATM   24  C   UNL     1      25.356  41.064  46.392  1.00  0.00     0.077 A 
HETATM   25  C   UNL     1      24.037  41.249  45.967  1.00  0.00     0.037 A 
HETATM   26  C   UNL     1      23.005  41.333  46.902  1.00  0.00     0.003 A 
HETATM   27  C   UNL     1      23.292  41.254  48.260  1.00  0.00     0.001 A 
HETATM   28  C   UNL     1      24.612  41.097  48.687  1.00  0.00     0.012 A 
BRANCH  24  29
HETATM   29  O   UNL     1      26.384  41.081  45.482  1.00  0.00    -0.351 OA
BRANCH  29  30
HETATM   30  C   UNL     1      25.921  41.163  44.129  1.00  0.00     0.171 C 
HETATM   31  C   UNL     1      27.078  41.654  43.277  1.00  0.00     0.034 C 
ENDBRANCH  29  30
ENDBRANCH  24  29
ENDBRANCH   1  23
BRANCH  10  32
HETATM   32  C   UNL     1      27.310  38.436  47.436  1.00  0.00     0.256 C 
HETATM   33  N   UNL     1      28.311  38.575  46.501  1.00  0.00    -0.323 N 
HETATM   34  H   UNL     1      29.024  39.270  46.712  1.00  0.00     0.169 HD
HETATM   35  O   UNL     1      26.377  37.646  47.446  1.00  0.00    -0.267 OA
BRANCH  33  36
HETATM   36  C   UNL     1      28.591  37.732  45.410  1.00  0.00     0.035 A 
HETATM   37  C   UNL     1      29.134  36.453  45.532  1.00  0.00     0.029 A 
HETATM   38  C   UNL     1      29.421  35.697  44.390  1.00  0.00     0.002 A 
HETATM   39  C   UNL     1      29.171  36.215  43.121  1.00  0.00     0.000 A 
HETATM   40  C   UNL     1      28.624  37.489  42.990  1.00  0.00     0.002 A 
HETATM   41  C   UNL     1      28.331  38.240  44.130  1.00  0.00     0.029 A 
ENDBRANCH  33  36
ENDBRANCH  10  32
TORSDOF 7
ENDMDL
MODEL 6
REMARK VINA RESULT:      -8.9      2.811      6.061
REMARK  7 active torsions:
REMARK  status: ('A' for Active; 'I' for Inactive)
REMARK    1  A    between atoms: C_2  and  O_3 
REMARK    2  A    between atoms: O_3  and  C_4 
REMARK    3  A    between atoms: C_5  and  C_6 
REMARK    4  A    between atoms: C_9  and  C_10 
REMARK       I    between atoms: C_10  and  N_11 
REMARK    5  A    between atoms: N_11  and  C_12 
REMARK    6  A    between atoms: C_25  and  C_26 
REMARK       I    between atoms: C_26  and  N_27 
REMARK    7  A    between atoms: N_27  and  C_28 
ROOT
HETATM    1  C   UNL     1      20.566  48.758  47.277  1.00  0.00     0.188 A 
HETATM    2  N   UNL     1      21.907  48.899  47.877  1.00  0.00    -0.239 N 
HETATM    3  C   UNL     1      22.525  47.930  48.641  1.00  0.00     0.142 A 
HETATM    4  C   UNL     1      23.747  48.461  49.005  1.00  0.00     0.097 A 
HETATM    5  C   UNL     1      23.751  49.753  48.423  1.00  0.00     0.160 A 
HETATM    6  N   UNL     1      22.665  50.002  47.689  1.00  0.00    -0.181 NA
HETATM    7  N   UNL     1      21.868  46.768  48.890  1.00  0.00    -0.343 N 
HETATM    8  C   UNL     1      20.580  46.513  48.414  1.00  0.00     0.021 A 
HETATM    9  C   UNL     1      19.959  45.186  48.767  1.00  0.00     0.069 C 
HETATM   10  C   UNL     1      19.939  47.433  47.658  1.00  0.00     0.061 A 
HETATM   11  H   UNL     1      22.214  46.101  49.579  1.00  0.00     0.167 HD
ENDROOT
BRANCH   4  12
HETATM   12  C   UNL     1      24.826  47.901  49.797  1.00  0.00     0.261 C 
HETATM   13  N   UNL     1      24.398  47.249  50.939  1.00  0.00    -0.323 N 
HETATM   14  H   UNL     1      23.394  47.188  51.061  1.00  0.00     0.169 HD
HETATM   15  O   UNL     1      25.981  47.973  49.398  1.00  0.00    -0.267 OA
BRANCH  13  16
HETATM   16  C   UNL     1      25.188  46.503  51.839  1.00  0.00     0.035 A 
HETATM   17  C   UNL     1      25.303  45.108  51.807  1.00  0.00     0.032 A 
HETATM   18  C   UNL     1      26.077  44.435  52.759  1.00  0.00     0.044 A 
HETATM   19  C   UNL     1      26.741  45.159  53.739  1.00  0.00     0.116 A 
HETATM   20  F   UNL     1      27.475  44.513  54.654  1.00  0.00    -0.206 F 
HETATM   21  C   UNL     1      26.651  46.543  53.783  1.00  0.00     0.044 A 
HETATM   22  C   UNL     1      25.876  47.215  52.833  1.00  0.00     0.032 A 
ENDBRANCH  13  16
ENDBRANCH   4  12
BRANCH   1  23
HETATM   23  C   UNL     1      19.725  49.997  47.590  1.00  0.00     0.005 A 
HETATM   24  C   UNL     1      19.567  50.516  48.887  1.00  0.00     0.077 A 
HETATM   25  C   UNL     1      18.785  51.654  49.112  1.00  0.00     0.037 A 
HETATM   26  C   UNL     1      18.190  52.318  48.039  1.00  0.00     0.003 A 
HETATM   27  C   UNL     1      18.359  51.836  46.746  1.00  0.00     0.001 A 
HETATM   28  C   UNL     1      19.116  50.685  46.522  1.00  0.00     0.012 A 
BRANCH  24  29
HETATM   29  O   UNL     1      20.070  49.803  49.947  1.00  0.00    -0.351 OA
BRANCH  29  30
HETATM   30  C   UNL     1      19.139  49.695  51.030  1.00  0.00     0.171 C 
HETATM   31  C   UNL     1      18.565  48.290  51.004  1.00  0.00     0.034 C 
ENDBRANCH  29  30
ENDBRANCH  24  29
ENDBRANCH   1  23
BRANCH  10  32
HETATM   32  C   UNL     1      18.585  47.187  47.109  1.00  0.00     0.256 C 
HETATM   33  N   UNL     1      18.640  46.607  45.862  1.00  0.00    -0.323 N 
HETATM   34  H   UNL     1      19.572  46.417  45.500  1.00  0.00     0.169 HD
HETATM   35  O   UNL     1      17.602  47.465  47.781  1.00  0.00    -0.267 OA
BRANCH  33  36
HETATM   36  C   UNL     1      17.579  46.048  45.126  1.00  0.00     0.035 A 
HETATM   37  C   UNL     1      17.187  44.713  45.215  1.00  0.00     0.029 A 
HETATM   38  C   UNL     1      16.146  44.229  44.415  1.00  0.00     0.002 A 
HETATM   39  C   UNL     1      15.493  45.075  43.519  1.00  0.00     0.000 A 
HETATM   40  C   UNL     1      15.875  46.411  43.429  1.00  0.00     0.002 A 
HETATM   41  C   UNL     1      16.909  46.895  44.233  1.00  0.00     0.029 A 
ENDBRANCH  33  36
ENDBRANCH  10  32
TORSDOF 7
ENDMDL
MODEL 7
REMARK VINA RESULT:      -8.8      5.360     11.044
REMARK  7 active torsions:
REMARK  status: ('A' for Active; 'I' for Inactive)
REMARK    1  A    between atoms: C_2  and  O_3 
REMARK    2  A    between atoms: O_3  and  C_4 
REMARK    3  A    between atoms: C_5  and  C_6 
REMARK    4  A    between atoms: C_9  and  C_10 
REMARK       I    between atoms: C_10  and  N_11 
REMARK    5  A    between atoms: N_11  and  C_12 
REMARK    6  A    between atoms: C_25  and  C_26 
REMARK       I    between atoms: C_26  and  N_27 
REMARK    7  A    between atoms: N_27  and  C_28 
ROOT
HETATM    1  C   UNL     1      20.224  49.504  47.373  1.00  0.00     0.188 A 
HETATM    2  N   UNL     1      18.968  50.256  47.558  1.00  0.00    -0.239 N 
HETATM    3  C   UNL     1      18.776  51.230  48.517  1.00  0.00     0.142 A 
HETATM    4  C   UNL     1      17.477  51.670  48.352  1.00  0.00     0.097 A 
HETATM    5  C   UNL     1      16.979  50.884  47.283  1.00  0.00     0.160 A 
HETATM    6  N   UNL     1      17.894  50.067  46.759  1.00  0.00    -0.181 NA
HETATM    7  N   UNL     1      19.789  51.521  49.374  1.00  0.00    -0.343 N 
HETATM    8  C   UNL     1      21.021  50.863  49.336  1.00  0.00     0.021 A 
HETATM    9  C   UNL     1      22.060  51.274  50.347  1.00  0.00     0.069 C 
HETATM   10  C   UNL     1      21.253  49.905  48.409  1.00  0.00     0.061 A 
HETATM   11  H   UNL     1      19.638  52.107  50.194  1.00  0.00     0.167 HD
ENDROOT
BRANCH   4  12
HETATM   12  C   UNL     1      16.723  52.685  49.062  1.00  0.00     0.261 C 
HETATM   13  N   UNL     1      15.513  52.997  48.469  1.00  0.00    -0.323 N 
HETATM   14  H   UNL     1      15.271  52.450  47.651  1.00  0.00     0.169 HD
HETATM   15  O   UNL     1      17.143  53.132  50.122  1.00  0.00    -0.267 OA
BRANCH  13  16
HETATM   16  C   UNL     1      14.509  53.846  48.981  1.00  0.00     0.035 A 
HETATM   17  C   UNL     1      13.802  53.595  50.163  1.00  0.00     0.032 A 
HETATM   18  C   UNL     1      12.791  54.466  50.586  1.00  0.00     0.044 A 
HETATM   19  C   UNL     1      12.492  55.589  49.830  1.00  0.00     0.116 A 
HETATM   20  F   UNL     1      11.520  56.417  50.232  1.00  0.00    -0.206 F 
HETATM   21  C   UNL     1      13.188  55.864  48.661  1.00  0.00     0.044 A 
HETATM   22  C   UNL     1      14.197  54.993  48.237  1.00  0.00     0.032 A 
ENDBRANCH  13  16
ENDBRANCH   4  12
BRANCH   1  23
HETATM   23  C   UNL     1      19.925  48.007  47.290  1.00  0.00     0.005 A 
HETATM   24  C   UNL     1      19.576  47.225  48.405  1.00  0.00     0.077 A 
HETATM   25  C   UNL     1      19.313  45.858  48.267  1.00  0.00     0.037 A 
HETATM   26  C   UNL     1      19.344  45.263  47.007  1.00  0.00     0.003 A 
HETATM   27  C   UNL     1      19.658  46.026  45.887  1.00  0.00     0.001 A 
HETATM   28  C   UNL     1      19.949  47.384  46.026  1.00  0.00     0.012 A 
BRANCH  24  29
HETATM   29  O   UNL     1      19.645  47.793  49.653  1.00  0.00    -0.351 OA
BRANCH  29  30
HETATM   30  C   UNL     1      18.354  48.100  50.191  1.00  0.00     0.171 C 
HETATM   31  C   UNL     1      18.565  48.896  51.466  1.00  0.00     0.034 C 
ENDBRANCH  29  30
ENDBRANCH  24  29
ENDBRANCH   1  23
BRANCH  10  32
HETATM   32  C   UNL     1      22.557  49.207  48.318  1.00  0.00     0.256 C 
HETATM   33  N   UNL     1      22.732  48.321  49.357  1.00  0.00    -0.323 N 
HETATM   34  H   UNL     1      21.963  48.253  50.019  1.00  0.00     0.169 HD
HETATM   35  O   UNL     1      23.298  49.435  47.372  1.00  0.00    -0.267 OA
BRANCH  33  36
HETATM   36  C   UNL     1      23.738  47.346  49.494  1.00  0.00     0.035 A 
HETATM   37  C   UNL     1      23.564  45.998  49.187  1.00  0.00     0.029 A 
HETATM   38  C   UNL     1      24.606  45.087  49.393  1.00  0.00     0.002 A 
HETATM   39  C   UNL     1      25.826  45.517  49.911  1.00  0.00     0.000 A 
HETATM   40  C   UNL     1      26.010  46.863  50.215  1.00  0.00     0.002 A 
HETATM   41  C   UNL     1      24.972  47.774  50.002  1.00  0.00     0.029 A 
ENDBRANCH  33  36
ENDBRANCH  10  32
TORSDOF 7
ENDMDL
MODEL 8
REMARK VINA RESULT:      -8.6      2.681      5.179
REMARK  7 active torsions:
REMARK  status: ('A' for Active; 'I' for Inactive)
REMARK    1  A    between atoms: C_2  and  O_3 
REMARK    2  A    between atoms: O_3  and  C_4 
REMARK    3  A    between atoms: C_5  and  C_6 
REMARK    4  A    between atoms: C_9  and  C_10 
REMARK       I    between atoms: C_10  and  N_11 
REMARK    5  A    between atoms: N_11  and  C_12 
REMARK    6  A    between atoms: C_25  and  C_26 
REMARK       I    between atoms: C_26  and  N_27 
REMARK    7  A    between atoms: N_27  and  C_28 
ROOT
HETATM    1  C   UNL     1      20.955  48.107  47.593  1.00  0.00     0.188 A 
HETATM    2  N   UNL     1      22.130  47.767  48.419  1.00  0.00    -0.239 N 
HETATM    3  C   UNL     1      22.642  46.493  48.560  1.00  0.00     0.142 A 
HETATM    4  C   UNL     1      23.723  46.614  49.412  1.00  0.00     0.097 A 
HETATM    5  C   UNL     1      23.757  47.994  49.733  1.00  0.00     0.160 A 
HETATM    6  N   UNL     1      22.831  48.708  49.090  1.00  0.00    -0.181 NA
HETATM    7  N   UNL     1      22.030  45.461  47.923  1.00  0.00    -0.343 N 
HETATM    8  C   UNL     1      20.889  45.633  47.136  1.00  0.00     0.021 A 
HETATM    9  C   UNL     1      20.302  44.405  46.488  1.00  0.00     0.069 C 
HETATM   10  C   UNL     1      20.356  46.865  46.967  1.00  0.00     0.061 A 
HETATM   11  H   UNL     1      22.271  44.493  48.130  1.00  0.00     0.167 HD
ENDROOT
BRANCH   4  12
HETATM   12  C   UNL     1      24.650  45.619  49.914  1.00  0.00     0.261 C 
HETATM   13  N   UNL     1      25.157  45.912  51.167  1.00  0.00    -0.323 N 
HETATM   14  H   UNL     1      24.786  46.745  51.608  1.00  0.00     0.169 HD
HETATM   15  O   UNL     1      24.867  44.602  49.268  1.00  0.00    -0.267 OA
BRANCH  13  16
HETATM   16  C   UNL     1      25.978  45.087  51.967  1.00  0.00     0.035 A 
HETATM   17  C   UNL     1      27.210  44.571  51.549  1.00  0.00     0.032 A 
HETATM   18  C   UNL     1      27.949  43.727  52.386  1.00  0.00     0.044 A 
HETATM   19  C   UNL     1      27.457  43.404  53.642  1.00  0.00     0.116 A 
HETATM   20  F   UNL     1      28.162  42.590  54.438  1.00  0.00    -0.206 F 
HETATM   21  C   UNL     1      26.243  43.913  54.081  1.00  0.00     0.044 A 
HETATM   22  C   UNL     1      25.504  44.755  53.244  1.00  0.00     0.032 A 
ENDBRANCH  13  16
ENDBRANCH   4  12
BRANCH   1  23
HETATM   23  C   UNL     1      19.984  48.968  48.402  1.00  0.00     0.005 A 
HETATM   24  C   UNL     1      19.293  50.068  47.864  1.00  0.00     0.077 A 
HETATM   25  C   UNL     1      18.416  50.818  48.654  1.00  0.00     0.037 A 
HETATM   26  C   UNL     1      18.178  50.451  49.978  1.00  0.00     0.003 A 
HETATM   27  C   UNL     1      18.829  49.348  50.520  1.00  0.00     0.001 A 
HETATM   28  C   UNL     1      19.726  48.615  49.742  1.00  0.00     0.012 A 
BRANCH  24  29
HETATM   29  O   UNL     1      19.606  50.484  46.594  1.00  0.00    -0.351 OA
BRANCH  29  30
HETATM   30  C   UNL     1      18.485  51.051  45.907  1.00  0.00     0.171 C 
HETATM   31  C   UNL     1      18.483  50.496  44.494  1.00  0.00     0.034 C 
ENDBRANCH  29  30
ENDBRANCH  24  29
ENDBRANCH   1  23
BRANCH  10  32
HETATM   32  C   UNL     1      19.165  47.089  46.115  1.00  0.00     0.256 C 
HETATM   33  N   UNL     1      18.003  47.073  46.854  1.00  0.00    -0.323 N 
HETATM   34  H   UNL     1      18.113  46.930  47.855  1.00  0.00     0.169 HD
HETATM   35  O   UNL     1      19.309  47.294  44.918  1.00  0.00    -0.267 OA
BRANCH  33  36
HETATM   36  C   UNL     1      16.712  47.447  46.433  1.00  0.00     0.035 A 
HETATM   37  C   UNL     1      16.106  46.978  45.268  1.00  0.00     0.029 A 
HETATM   38  C   UNL     1      14.835  47.434  44.902  1.00  0.00     0.002 A 
HETATM   39  C   UNL     1      14.165  48.364  45.695  1.00  0.00     0.000 A 
HETATM   40  C   UNL     1      14.761  48.832  46.863  1.00  0.00     0.002 A 
HETATM   41  C   UNL     1      16.027  48.371  47.232  1.00  0.00     0.029 A 
ENDBRANCH  33  36
ENDBRANCH  10  32
TORSDOF 7
ENDMDL
MODEL 9
REMARK VINA RESULT:      -8.6     10.500     12.185
REMARK  7 active torsions:
REMARK  status: ('A' for Active; 'I' for Inactive)
REMARK    1  A    between atoms: C_2  and  O_3 
REMARK    2  A    between atoms: O_3  and  C_4 
REMARK    3  A    between atoms: C_5  and  C_6 
REMARK    4  A    between atoms: C_9  and  C_10 
REMARK       I    between atoms: C_10  and  N_11 
REMARK    5  A    between atoms: N_11  and  C_12 
REMARK    6  A    between atoms: C_25  and  C_26 
REMARK       I    between atoms: C_26  and  N_27 
REMARK    7  A    between atoms: N_27  and  C_28 
ROOT
HETATM    1  C   UNL     1      28.345  48.682  40.744  1.00  0.00     0.188 A 
HETATM    2  N   UNL     1      29.569  49.132  41.435  1.00  0.00    -0.239 N 
HETATM    3  C   UNL     1      30.198  50.338  41.204  1.00  0.00     0.142 A 
HETATM    4  C   UNL     1      31.294  50.359  42.044  1.00  0.00     0.097 A 
HETATM    5  C   UNL     1      31.237  49.114  42.718  1.00  0.00     0.160 A 
HETATM    6  N   UNL     1      30.163  48.391  42.398  1.00  0.00    -0.181 NA
HETATM    7  N   UNL     1      29.688  51.178  40.266  1.00  0.00    -0.343 N 
HETATM    8  C   UNL     1      28.554  50.866  39.512  1.00  0.00     0.021 A 
HETATM    9  C   UNL     1      28.093  51.882  38.499  1.00  0.00     0.069 C 
HETATM   10  C   UNL     1      27.904  49.696  39.710  1.00  0.00     0.061 A 
HETATM   11  H   UNL     1      30.206  51.996  39.948  1.00  0.00     0.167 HD
ENDROOT
BRANCH   4  12
HETATM   12  C   UNL     1      32.313  51.371  42.246  1.00  0.00     0.261 C 
HETATM   13  N   UNL     1      33.551  50.854  42.586  1.00  0.00    -0.323 N 
HETATM   14  H   UNL     1      33.617  49.843  42.599  1.00  0.00     0.169 HD
HETATM   15  O   UNL     1      32.054  52.551  42.049  1.00  0.00    -0.267 OA
BRANCH  13  16
HETATM   16  C   UNL     1      34.761  51.567  42.726  1.00  0.00     0.035 A 
HETATM   17  C   UNL     1      35.710  51.702  41.706  1.00  0.00     0.032 A 
HETATM   18  C   UNL     1      36.906  52.393  41.933  1.00  0.00     0.044 A 
HETATM   19  C   UNL     1      37.149  52.953  43.179  1.00  0.00     0.116 A 
HETATM   20  F   UNL     1      38.296  53.607  43.397  1.00  0.00    -0.206 F 
HETATM   21  C   UNL     1      36.217  52.842  44.201  1.00  0.00     0.044 A 
HETATM   22  C   UNL     1      35.022  52.150  43.974  1.00  0.00     0.032 A 
ENDBRANCH  13  16
ENDBRANCH   4  12
BRANCH   1  23
HETATM   23  C   UNL     1      28.537  47.256  40.225  1.00  0.00     0.005 A 
HETATM   24  C   UNL     1      27.623  46.215  40.468  1.00  0.00     0.077 A 
HETATM   25  C   UNL     1      27.853  44.930  39.966  1.00  0.00     0.037 A 
HETATM   26  C   UNL     1      28.971  44.677  39.173  1.00  0.00     0.003 A 
HETATM   27  C   UNL     1      29.871  45.701  38.897  1.00  0.00     0.001 A 
HETATM   28  C   UNL     1      29.659  46.977  39.420  1.00  0.00     0.012 A 
BRANCH  24  29
HETATM   29  O   UNL     1      26.580  46.445  41.331  1.00  0.00    -0.351 OA
BRANCH  29  30
HETATM   30  C   UNL     1      25.648  45.357  41.371  1.00  0.00     0.171 C 
HETATM   31  C   UNL     1      25.575  44.868  42.806  1.00  0.00     0.034 C 
ENDBRANCH  29  30
ENDBRANCH  24  29
ENDBRANCH   1  23
BRANCH  10  32
HETATM   32  C   UNL     1      26.681  49.344  38.951  1.00  0.00     0.256 C 
HETATM   33  N   UNL     1      25.591  49.212  39.781  1.00  0.00    -0.323 N 
HETATM   34  H   UNL     1      25.759  49.383  40.769  1.00  0.00     0.169 HD
HETATM   35  O   UNL     1      26.734  49.245  37.734  1.00  0.00    -0.267 OA
BRANCH  33  36
HETATM   36  C   UNL     1      24.239  49.088  39.409  1.00  0.00     0.035 A 
HETATM   37  C   UNL     1      23.554  50.025  38.636  1.00  0.00     0.029 A 
HETATM   38  C   UNL     1      22.197  49.844  38.347  1.00  0.00     0.002 A 
HETATM   39  C   UNL     1      21.516  48.729  38.831  1.00  0.00     0.000 A 
HETATM   40  C   UNL     1      22.194  47.785  39.599  1.00  0.00     0.002 A 
HETATM   41  C   UNL     1      23.550  47.963  39.881  1.00  0.00     0.029 A 
ENDBRANCH  33  36
ENDBRANCH  10  32
TORSDOF 7
ENDMDL
MODEL 10
REMARK VINA RESULT:      -8.4      5.365      8.361
REMARK  7 active torsions:
REMARK  status: ('A' for Active; 'I' for Inactive)
REMARK    1  A    between atoms: C_2  and  O_3 
REMARK    2  A    between atoms: O_3  and  C_4 
REMARK    3  A    between atoms: C_5  and  C_6 
REMARK    4  A    between atoms: C_9  and  C_10 
REMARK       I    between atoms: C_10  and  N_11 
REMARK    5  A    between atoms: N_11  and  C_12 
REMARK    6  A    between atoms: C_25  and  C_26 
REMARK       I    between atoms: C_26  and  N_27 
REMARK    7  A    between atoms: N_27  and  C_28 
ROOT
HETATM    1  C   UNL     1      26.707  40.701  48.197  1.00  0.00     0.188 A 
HETATM    2  N   UNL     1      27.063  41.540  49.358  1.00  0.00    -0.239 N 
HETATM    3  C   UNL     1      27.592  41.057  50.538  1.00  0.00     0.142 A 
HETATM    4  C   UNL     1      27.771  42.160  51.350  1.00  0.00     0.097 A 
HETATM    5  C   UNL     1      27.303  43.245  50.568  1.00  0.00     0.160 A 
HETATM    6  N   UNL     1      26.928  42.886  49.339  1.00  0.00    -0.181 NA
HETATM    7  N   UNL     1      27.787  39.720  50.674  1.00  0.00    -0.343 N 
HETATM    8  C   UNL     1      27.463  38.805  49.669  1.00  0.00     0.021 A 
HETATM    9  C   UNL     1      27.723  37.347  49.948  1.00  0.00     0.069 C 
HETATM   10  C   UNL     1      26.947  39.236  48.495  1.00  0.00     0.061 A 
HETATM   11  H   UNL     1      28.016  39.307  51.577  1.00  0.00     0.167 HD
ENDROOT
BRANCH   4  12
HETATM   12  C   UNL     1      28.299  42.270  52.696  1.00  0.00     0.261 C 
HETATM   13  N   UNL     1      28.973  43.454  52.935  1.00  0.00    -0.323 N 
HETATM   14  H   UNL     1      28.971  44.122  52.173  1.00  0.00     0.169 HD
HETATM   15  O   UNL     1      28.073  41.391  53.518  1.00  0.00    -0.267 OA
BRANCH  13  16
HETATM   16  C   UNL     1      29.488  43.905  54.169  1.00  0.00     0.035 A 
HETATM   17  C   UNL     1      30.557  43.299  54.838  1.00  0.00     0.032 A 
HETATM   18  C   UNL     1      30.987  43.782  56.079  1.00  0.00     0.044 A 
HETATM   19  C   UNL     1      30.349  44.874  56.649  1.00  0.00     0.116 A 
HETATM   20  F   UNL     1      30.756  45.330  57.840  1.00  0.00    -0.206 F 
HETATM   21  C   UNL     1      29.294  45.498  55.998  1.00  0.00     0.044 A 
HETATM   22  C   UNL     1      28.864  45.015  54.758  1.00  0.00     0.032 A 
ENDBRANCH  13  16
ENDBRANCH   4  12
BRANCH   1  23
HETATM   23  C   UNL     1      25.297  41.051  47.718  1.00  0.00     0.005 A 
HETATM   24  C   UNL     1      24.946  41.155  46.360  1.00  0.00     0.077 A 
HETATM   25  C   UNL     1      23.639  41.479  45.982  1.00  0.00     0.037 A 
HETATM   26  C   UNL     1      22.653  41.653  46.952  1.00  0.00     0.003 A 
HETATM   27  C   UNL     1      22.974  41.526  48.299  1.00  0.00     0.001 A 
HETATM   28  C   UNL     1      24.283  41.231  48.679  1.00  0.00     0.012 A 
BRANCH  24  29
HETATM   29  O   UNL     1      25.941  41.082  45.416  1.00  0.00    -0.351 OA
BRANCH  29  30
HETATM   30  C   UNL     1      25.469  40.590  44.156  1.00  0.00     0.171 C 
HETATM   31  C   UNL     1      26.666  40.038  43.403  1.00  0.00     0.034 C 
ENDBRANCH  29  30
ENDBRANCH  24  29
ENDBRANCH   1  23
BRANCH  10  32
HETATM   32  C   UNL     1      26.619  38.299  47.396  1.00  0.00     0.256 C 
HETATM   33  N   UNL     1      25.401  37.689  47.595  1.00  0.00    -0.323 N 
HETATM   34  H   UNL     1      24.896  37.965  48.434  1.00  0.00     0.169 HD
HETATM   35  O   UNL     1      27.388  38.183  46.452  1.00  0.00    -0.267 OA
BRANCH  33  36
HETATM   36  C   UNL     1      24.673  36.905  46.680  1.00  0.00     0.035 A 
HETATM   37  C   UNL     1      24.238  37.361  45.436  1.00  0.00     0.029 A 
HETATM   38  C   UNL     1      23.482  36.527  44.605  1.00  0.00     0.002 A 
HETATM   39  C   UNL     1      23.153  35.236  45.012  1.00  0.00     0.000 A 
HETATM   40  C   UNL     1      23.588  34.772  46.251  1.00  0.00     0.002 A 
HETATM   41  C   UNL     1      24.349  35.602  47.078  1.00  0.00     0.029 A 
ENDBRANCH  33  36
ENDBRANCH  10  32
TORSDOF 7
ENDMDL
