MODEL 1
REMARK VINA RESULT:      -9.4      0.000      0.000
REMARK  7 active torsions:
REMARK  status: ('A' for Active; 'I' for Inactive)
REMARK    1  A    between atoms: C_3  and  C_4 
REMARK       I    between atoms: C_4  and  N_5 
REMARK    2  A    between atoms: N_5  and  C_6 
REMARK    3  A    between atoms: C_6  and  C_7 
REMARK    4  A    between atoms: C_13  and  N_14 
REMARK    5  A    between atoms: N_14  and  C_15 
REMARK    6  A    between atoms: C_15  and  N_16 
REMARK       I    between atoms: N_16  and  C_17 
REMARK    7  A    between atoms: C_17  and  C_18 
ROOT
HETATM    1  C   UNL     1      25.745  50.099  48.016  1.00  0.00     0.001 A 
HETATM    2  C   UNL     1      24.437  49.642  48.159  1.00  0.00     0.019 A 
HETATM    3  C   UNL     1      24.140  48.561  49.012  1.00  0.00     0.058 A 
HETATM    4  C   UNL     1      25.175  47.921  49.723  1.00  0.00     0.050 A 
HETATM    5  C   UNL     1      26.486  48.394  49.558  1.00  0.00     0.030 A 
HETATM    6  C   UNL     1      26.767  49.476  48.718  1.00  0.00     0.002 A 
ENDROOT
BRANCH   4   7
HETATM    7  N   UNL     1      24.923  46.742  50.472  1.00  0.00    -0.332 N 
HETATM    8  H   UNL     1      24.330  46.865  51.298  1.00  0.00     0.168 HD
BRANCH   7   9
HETATM    9  C   UNL     1      25.338  45.453  50.247  1.00  0.00     0.179 C 
HETATM   10  S   UNL     1      24.726  44.357  49.141  1.00  0.00    -0.040 SA
BRANCH   9  11
HETATM   11  N   UNL     1      26.400  45.021  51.016  1.00  0.00    -0.299 N 
HETATM   12  C   UNL     1      26.590  45.177  52.381  1.00  0.00     0.257 C 
HETATM   13  O   UNL     1      25.964  45.968  53.079  1.00  0.00    -0.267 OA
HETATM   14  H   UNL     1      26.977  44.357  50.519  1.00  0.00     0.171 HD
BRANCH  12  15
HETATM   15  C   UNL     1      27.619  44.299  52.998  1.00  0.00     0.035 A 
HETATM   16  C   UNL     1      27.827  42.983  52.571  1.00  0.00     0.041 A 
HETATM   17  C   UNL     1      28.776  42.193  53.221  1.00  0.00     0.036 A 
HETATM   18 CL   UNL     1      29.022  40.569  52.707  1.00  0.00    -0.084 Cl
HETATM   19  C   UNL     1      29.522  42.700  54.283  1.00  0.00     0.047 A 
HETATM   20  C   UNL     1      29.323  44.017  54.687  1.00  0.00     0.036 A 
HETATM   21 CL   UNL     1      30.240  44.651  55.998  1.00  0.00    -0.084 Cl
HETATM   22  C   UNL     1      28.382  44.823  54.049  1.00  0.00     0.041 A 
ENDBRANCH  12  15
ENDBRANCH   9  11
ENDBRANCH   7   9
ENDBRANCH   4   7
BRANCH   3  23
HETATM   23  C   UNL     1      22.693  48.227  49.146  1.00  0.00     0.254 C 
HETATM   24  N   UNL     1      21.866  49.230  49.596  1.00  0.00    -0.351 N 
HETATM   25  H   UNL     1      22.230  50.175  49.673  1.00  0.00     0.163 HD
HETATM   26  O   UNL     1      22.276  47.131  48.787  1.00  0.00    -0.268 OA
BRANCH  24  27
HETATM   27  C   UNL     1      20.435  49.102  49.450  1.00  0.00     0.187 C 
BRANCH  27  28
HETATM   28  C   UNL     1      19.819  50.429  49.211  1.00  0.00     0.070 A 
HETATM   29  O   UNL     1      18.851  50.850  50.082  1.00  0.00    -0.325 OA
HETATM   30  C   UNL     1      18.462  52.085  49.674  1.00  0.00     0.142 A 
HETATM   31  C   UNL     1      19.167  52.471  48.558  1.00  0.00     0.027 A 
HETATM   32  C   UNL     1      20.046  51.403  48.260  1.00  0.00     0.036 A 
ENDBRANCH  27  28
ENDBRANCH  24  27
ENDBRANCH   3  23
TORSDOF 7
ENDMDL
MODEL 2
REMARK VINA RESULT:      -9.3      1.047      1.910
REMARK  7 active torsions:
REMARK  status: ('A' for Active; 'I' for Inactive)
REMARK    1  A    between atoms: C_3  and  C_4 
REMARK       I    between atoms: C_4  and  N_5 
REMARK    2  A    between atoms: N_5  and  C_6 
REMARK    3  A    between atoms: C_6  and  C_7 
REMARK    4  A    between atoms: C_13  and  N_14 
REMARK    5  A    between atoms: N_14  and  C_15 
REMARK    6  A    between atoms: C_15  and  N_16 
REMARK       I    between atoms: N_16  and  C_17 
REMARK    7  A    between atoms: C_17  and  C_18 
ROOT
HETATM    1  C   UNL     1      25.570  50.161  47.952  1.00  0.00     0.001 A 
HETATM    2  C   UNL     1      24.240  49.754  47.884  1.00  0.00     0.019 A 
HETATM    3  C   UNL     1      23.778  48.669  48.653  1.00  0.00     0.058 A 
HETATM    4  C   UNL     1      24.669  47.973  49.494  1.00  0.00     0.050 A 
HETATM    5  C   UNL     1      26.006  48.396  49.542  1.00  0.00     0.030 A 
HETATM    6  C   UNL     1      26.451  49.484  48.784  1.00  0.00     0.002 A 
ENDROOT
BRANCH   4   7
HETATM    7  N   UNL     1      24.263  46.789  50.164  1.00  0.00    -0.332 N 
HETATM    8  H   UNL     1      23.313  46.805  50.548  1.00  0.00     0.168 HD
BRANCH   7   9
HETATM    9  C   UNL     1      24.944  45.614  50.362  1.00  0.00     0.179 C 
HETATM   10  S   UNL     1      24.878  44.223  49.434  1.00  0.00    -0.040 SA
BRANCH   9  11
HETATM   11  N   UNL     1      25.798  45.589  51.447  1.00  0.00    -0.299 N 
HETATM   12  C   UNL     1      25.671  44.861  52.620  1.00  0.00     0.257 C 
HETATM   13  O   UNL     1      24.633  44.327  52.992  1.00  0.00    -0.267 OA
HETATM   14  H   UNL     1      26.690  46.011  51.231  1.00  0.00     0.171 HD
BRANCH  12  15
HETATM   15  C   UNL     1      26.904  44.735  53.441  1.00  0.00     0.035 A 
HETATM   16  C   UNL     1      27.088  45.460  54.624  1.00  0.00     0.041 A 
HETATM   17  C   UNL     1      28.288  45.333  55.326  1.00  0.00     0.036 A 
HETATM   18 CL   UNL     1      28.521  46.236  56.772  1.00  0.00    -0.084 Cl
HETATM   19  C   UNL     1      29.299  44.491  54.868  1.00  0.00     0.047 A 
HETATM   20  C   UNL     1      29.099  43.757  53.702  1.00  0.00     0.036 A 
HETATM   21 CL   UNL     1      30.342  42.716  53.130  1.00  0.00    -0.084 Cl
HETATM   22  C   UNL     1      27.907  43.868  52.988  1.00  0.00     0.041 A 
ENDBRANCH  12  15
ENDBRANCH   9  11
ENDBRANCH   7   9
ENDBRANCH   4   7
BRANCH   3  23
HETATM   23  C   UNL     1      22.316  48.391  48.558  1.00  0.00     0.254 C 
HETATM   24  N   UNL     1      21.536  48.814  49.610  1.00  0.00    -0.351 N 
HETATM   25  H   UNL     1      21.944  49.415  50.318  1.00  0.00     0.163 HD
HETATM   26  O   UNL     1      21.848  47.882  47.544  1.00  0.00    -0.268 OA
BRANCH  24  27
HETATM   27  C   UNL     1      20.101  48.877  49.460  1.00  0.00     0.187 C 
BRANCH  27  28
HETATM   28  C   UNL     1      19.670  50.274  49.210  1.00  0.00     0.070 A 
HETATM   29  O   UNL     1      18.768  50.829  50.077  1.00  0.00    -0.325 OA
HETATM   30  C   UNL     1      18.549  52.102  49.658  1.00  0.00     0.142 A 
HETATM   31  C   UNL     1      19.300  52.380  48.540  1.00  0.00     0.027 A 
HETATM   32  C   UNL     1      20.026  51.201  48.251  1.00  0.00     0.036 A 
ENDBRANCH  27  28
ENDBRANCH  24  27
ENDBRANCH   3  23
TORSDOF 7
ENDMDL
MODEL 3
REMARK VINA RESULT:      -8.8      1.986      2.698
REMARK  7 active torsions:
REMARK  status: ('A' for Active; 'I' for Inactive)
REMARK    1  A    between atoms: C_3  and  C_4 
REMARK       I    between atoms: C_4  and  N_5 
REMARK    2  A    between atoms: N_5  and  C_6 
REMARK    3  A    between atoms: C_6  and  C_7 
REMARK    4  A    between atoms: C_13  and  N_14 
REMARK    5  A    between atoms: N_14  and  C_15 
REMARK    6  A    between atoms: C_15  and  N_16 
REMARK       I    between atoms: N_16  and  C_17 
REMARK    7  A    between atoms: C_17  and  C_18 
ROOT
HETATM    1  C   UNL     1      23.491  50.780  47.971  1.00  0.00     0.001 A 
HETATM    2  C   UNL     1      22.270  50.181  48.268  1.00  0.00     0.019 A 
HETATM    3  C   UNL     1      22.219  48.916  48.884  1.00  0.00     0.058 A 
HETATM    4  C   UNL     1      23.414  48.236  49.196  1.00  0.00     0.050 A 
HETATM    5  C   UNL     1      24.633  48.856  48.881  1.00  0.00     0.030 A 
HETATM    6  C   UNL     1      24.672  50.119  48.281  1.00  0.00     0.002 A 
ENDROOT
BRANCH   4   7
HETATM    7  N   UNL     1      23.388  46.902  49.681  1.00  0.00    -0.332 N 
HETATM    8  H   UNL     1      22.457  46.481  49.758  1.00  0.00     0.168 HD
BRANCH   7   9
HETATM    9  C   UNL     1      24.424  46.080  50.047  1.00  0.00     0.179 C 
HETATM   10  S   UNL     1      25.078  44.807  49.180  1.00  0.00    -0.040 SA
BRANCH   9  11
HETATM   11  N   UNL     1      25.004  46.352  51.270  1.00  0.00    -0.299 N 
HETATM   12  C   UNL     1      25.129  45.511  52.365  1.00  0.00     0.257 C 
HETATM   13  O   UNL     1      24.497  44.471  52.512  1.00  0.00    -0.267 OA
HETATM   14  H   UNL     1      25.554  47.200  51.244  1.00  0.00     0.171 HD
BRANCH  12  15
HETATM   15  C   UNL     1      26.115  45.930  53.396  1.00  0.00     0.035 A 
HETATM   16  C   UNL     1      27.223  45.143  53.730  1.00  0.00     0.041 A 
HETATM   17  C   UNL     1      28.087  45.569  54.740  1.00  0.00     0.036 A 
HETATM   18 CL   UNL     1      29.441  44.594  55.162  1.00  0.00    -0.084 Cl
HETATM   19  C   UNL     1      27.865  46.769  55.412  1.00  0.00     0.047 A 
HETATM   20  C   UNL     1      26.772  47.556  55.059  1.00  0.00     0.036 A 
HETATM   21 CL   UNL     1      26.491  49.038  55.884  1.00  0.00    -0.084 Cl
HETATM   22  C   UNL     1      25.899  47.149  54.051  1.00  0.00     0.041 A 
ENDBRANCH  12  15
ENDBRANCH   9  11
ENDBRANCH   7   9
ENDBRANCH   4   7
BRANCH   3  23
HETATM   23  C   UNL     1      20.855  48.424  49.230  1.00  0.00     0.254 C 
HETATM   24  N   UNL     1      20.113  49.208  50.084  1.00  0.00    -0.351 N 
HETATM   25  H   UNL     1      20.447  50.137  50.319  1.00  0.00     0.163 HD
HETATM   26  O   UNL     1      20.410  47.410  48.701  1.00  0.00    -0.268 OA
BRANCH  24  27
HETATM   27  C   UNL     1      18.692  48.983  50.214  1.00  0.00     0.187 C 
BRANCH  27  28
HETATM   28  C   UNL     1      17.934  50.088  49.579  1.00  0.00     0.070 A 
HETATM   29  O   UNL     1      17.698  51.212  50.324  1.00  0.00    -0.325 OA
HETATM   30  C   UNL     1      17.017  52.076  49.530  1.00  0.00     0.142 A 
HETATM   31  C   UNL     1      16.815  51.533  48.282  1.00  0.00     0.027 A 
HETATM   32  C   UNL     1      17.410  50.250  48.312  1.00  0.00     0.036 A 
ENDBRANCH  27  28
ENDBRANCH  24  27
ENDBRANCH   3  23
TORSDOF 7
ENDMDL
MODEL 4
REMARK VINA RESULT:      -8.8      4.626      9.871
REMARK  7 active torsions:
REMARK  status: ('A' for Active; 'I' for Inactive)
REMARK    1  A    between atoms: C_3  and  C_4 
REMARK       I    between atoms: C_4  and  N_5 
REMARK    2  A    between atoms: N_5  and  C_6 
REMARK    3  A    between atoms: C_6  and  C_7 
REMARK    4  A    between atoms: C_13  and  N_14 
REMARK    5  A    between atoms: N_14  and  C_15 
REMARK    6  A    between atoms: C_15  and  N_16 
REMARK       I    between atoms: N_16  and  C_17 
REMARK    7  A    between atoms: C_17  and  C_18 
ROOT
HETATM    1  C   UNL     1      27.197  49.274  48.802  1.00  0.00     0.001 A 
HETATM    2  C   UNL     1      26.930  48.302  49.764  1.00  0.00     0.019 A 
HETATM    3  C   UNL     1      25.605  47.930  50.062  1.00  0.00     0.058 A 
HETATM    4  C   UNL     1      24.531  48.552  49.394  1.00  0.00     0.050 A 
HETATM    5  C   UNL     1      24.824  49.533  48.434  1.00  0.00     0.030 A 
HETATM    6  C   UNL     1      26.144  49.886  48.137  1.00  0.00     0.002 A 
ENDROOT
BRANCH   4   7
HETATM    7  N   UNL     1      23.189  48.300  49.781  1.00  0.00    -0.332 N 
HETATM    8  H   UNL     1      22.957  48.546  50.748  1.00  0.00     0.168 HD
BRANCH   7   9
HETATM    9  C   UNL     1      22.145  47.792  49.049  1.00  0.00     0.179 C 
HETATM   10  S   UNL     1      22.180  46.526  47.955  1.00  0.00    -0.040 SA
BRANCH   9  11
HETATM   11  N   UNL     1      20.917  48.388  49.258  1.00  0.00    -0.299 N 
HETATM   12  C   UNL     1      20.634  49.738  49.405  1.00  0.00     0.257 C 
HETATM   13  O   UNL     1      21.474  50.598  49.643  1.00  0.00    -0.267 OA
HETATM   14  H   UNL     1      20.155  47.748  49.082  1.00  0.00     0.171 HD
BRANCH  12  15
HETATM   15  C   UNL     1      19.207  50.122  49.241  1.00  0.00     0.035 A 
HETATM   16  C   UNL     1      18.722  51.371  49.644  1.00  0.00     0.041 A 
HETATM   17  C   UNL     1      17.362  51.655  49.507  1.00  0.00     0.036 A 
HETATM   18 CL   UNL     1      16.762  53.185  50.017  1.00  0.00    -0.084 Cl
HETATM   19  C   UNL     1      16.486  50.716  48.968  1.00  0.00     0.047 A 
HETATM   20  C   UNL     1      16.981  49.484  48.549  1.00  0.00     0.036 A 
HETATM   21 CL   UNL     1      15.906  48.318  47.883  1.00  0.00    -0.084 Cl
HETATM   22  C   UNL     1      18.336  49.182  48.676  1.00  0.00     0.041 A 
ENDBRANCH  12  15
ENDBRANCH   9  11
ENDBRANCH   7   9
ENDBRANCH   4   7
BRANCH   3  23
HETATM   23  C   UNL     1      25.456  46.817  51.043  1.00  0.00     0.254 C 
HETATM   24  N   UNL     1      26.167  46.928  52.217  1.00  0.00    -0.351 N 
HETATM   25  H   UNL     1      26.632  47.804  52.433  1.00  0.00     0.163 HD
HETATM   26  O   UNL     1      24.670  45.901  50.825  1.00  0.00    -0.268 OA
BRANCH  24  27
HETATM   27  C   UNL     1      25.840  46.078  53.338  1.00  0.00     0.187 C 
BRANCH  27  28
HETATM   28  C   UNL     1      27.027  45.292  53.754  1.00  0.00     0.070 A 
HETATM   29  O   UNL     1      27.291  44.130  53.081  1.00  0.00    -0.325 OA
HETATM   30  C   UNL     1      28.423  43.610  53.621  1.00  0.00     0.142 A 
HETATM   31  C   UNL     1      28.897  44.420  54.626  1.00  0.00     0.027 A 
HETATM   32  C   UNL     1      27.998  45.509  54.711  1.00  0.00     0.036 A 
ENDBRANCH  27  28
ENDBRANCH  24  27
ENDBRANCH   3  23
TORSDOF 7
ENDMDL
MODEL 5
REMARK VINA RESULT:      -8.7      3.674      5.443
REMARK  7 active torsions:
REMARK  status: ('A' for Active; 'I' for Inactive)
REMARK    1  A    between atoms: C_3  and  C_4 
REMARK       I    between atoms: C_4  and  N_5 
REMARK    2  A    between atoms: N_5  and  C_6 
REMARK    3  A    between atoms: C_6  and  C_7 
REMARK    4  A    between atoms: C_13  and  N_14 
REMARK    5  A    between atoms: N_14  and  C_15 
REMARK    6  A    between atoms: C_15  and  N_16 
REMARK       I    between atoms: N_16  and  C_17 
REMARK    7  A    between atoms: C_17  and  C_18 
ROOT
HETATM    1  C   UNL     1      23.288  42.547  47.408  1.00  0.00     0.001 A 
HETATM    2  C   UNL     1      23.465  43.605  48.296  1.00  0.00     0.019 A 
HETATM    3  C   UNL     1      24.229  43.443  49.467  1.00  0.00     0.058 A 
HETATM    4  C   UNL     1      24.816  42.195  49.758  1.00  0.00     0.050 A 
HETATM    5  C   UNL     1      24.619  41.141  48.852  1.00  0.00     0.030 A 
HETATM    6  C   UNL     1      23.868  41.317  47.685  1.00  0.00     0.002 A 
ENDROOT
BRANCH   4   7
HETATM    7  N   UNL     1      25.465  41.966  50.999  1.00  0.00    -0.332 N 
HETATM    8  H   UNL     1      24.843  41.825  51.801  1.00  0.00     0.168 HD
BRANCH   7   9
HETATM    9  C   UNL     1      26.804  41.887  51.288  1.00  0.00     0.179 C 
HETATM   10  S   UNL     1      27.978  41.011  50.479  1.00  0.00    -0.040 SA
BRANCH   9  11
HETATM   11  N   UNL     1      27.232  42.637  52.366  1.00  0.00    -0.299 N 
HETATM   12  C   UNL     1      28.003  42.227  53.443  1.00  0.00     0.257 C 
HETATM   13  O   UNL     1      28.201  41.056  53.744  1.00  0.00    -0.267 OA
HETATM   14  H   UNL     1      27.109  43.628  52.206  1.00  0.00     0.171 HD
BRANCH  12  15
HETATM   15  C   UNL     1      28.622  43.313  54.248  1.00  0.00     0.035 A 
HETATM   16  C   UNL     1      28.126  44.621  54.241  1.00  0.00     0.041 A 
HETATM   17  C   UNL     1      28.780  45.607  54.982  1.00  0.00     0.036 A 
HETATM   18 CL   UNL     1      28.179  47.219  54.960  1.00  0.00    -0.084 Cl
HETATM   19  C   UNL     1      29.913  45.303  55.732  1.00  0.00     0.047 A 
HETATM   20  C   UNL     1      30.387  43.994  55.752  1.00  0.00     0.036 A 
HETATM   21 CL   UNL     1      31.786  43.612  56.676  1.00  0.00    -0.084 Cl
HETATM   22  C   UNL     1      29.747  42.996  55.021  1.00  0.00     0.041 A 
ENDBRANCH  12  15
ENDBRANCH   9  11
ENDBRANCH   7   9
ENDBRANCH   4   7
BRANCH   3  23
HETATM   23  C   UNL     1      24.417  44.674  50.288  1.00  0.00     0.254 C 
HETATM   24  N   UNL     1      24.797  45.813  49.616  1.00  0.00    -0.351 N 
HETATM   25  H   UNL     1      24.788  45.816  48.602  1.00  0.00     0.163 HD
HETATM   26  O   UNL     1      24.158  44.662  51.487  1.00  0.00    -0.268 OA
BRANCH  24  27
HETATM   27  C   UNL     1      24.687  47.099  50.264  1.00  0.00     0.187 C 
BRANCH  27  28
HETATM   28  C   UNL     1      25.602  48.078  49.627  1.00  0.00     0.070 A 
HETATM   29  O   UNL     1      25.043  49.093  48.899  1.00  0.00    -0.325 OA
HETATM   30  C   UNL     1      26.066  49.859  48.440  1.00  0.00     0.142 A 
HETATM   31  C   UNL     1      27.274  49.359  48.866  1.00  0.00     0.027 A 
HETATM   32  C   UNL     1      26.976  48.210  49.635  1.00  0.00     0.036 A 
ENDBRANCH  27  28
ENDBRANCH  24  27
ENDBRANCH   3  23
TORSDOF 7
ENDMDL
MODEL 6
REMARK VINA RESULT:      -8.7      2.017      2.899
REMARK  7 active torsions:
REMARK  status: ('A' for Active; 'I' for Inactive)
REMARK    1  A    between atoms: C_3  and  C_4 
REMARK       I    between atoms: C_4  and  N_5 
REMARK    2  A    between atoms: N_5  and  C_6 
REMARK    3  A    between atoms: C_6  and  C_7 
REMARK    4  A    between atoms: C_13  and  N_14 
REMARK    5  A    between atoms: N_14  and  C_15 
REMARK    6  A    between atoms: C_15  and  N_16 
REMARK       I    between atoms: N_16  and  C_17 
REMARK    7  A    between atoms: C_17  and  C_18 
ROOT
HETATM    1  C   UNL     1      25.481  50.097  47.914  1.00  0.00     0.001 A 
HETATM    2  C   UNL     1      24.167  49.663  48.065  1.00  0.00     0.019 A 
HETATM    3  C   UNL     1      23.852  48.614  48.950  1.00  0.00     0.058 A 
HETATM    4  C   UNL     1      24.875  47.981  49.685  1.00  0.00     0.050 A 
HETATM    5  C   UNL     1      26.193  48.431  49.511  1.00  0.00     0.030 A 
HETATM    6  C   UNL     1      26.493  49.482  48.639  1.00  0.00     0.002 A 
ENDROOT
BRANCH   4   7
HETATM    7  N   UNL     1      24.603  46.830  50.469  1.00  0.00    -0.332 N 
HETATM    8  H   UNL     1      23.719  46.356  50.262  1.00  0.00     0.168 HD
BRANCH   7   9
HETATM    9  C   UNL     1      25.355  46.241  51.454  1.00  0.00     0.179 C 
HETATM   10  S   UNL     1      25.836  46.906  52.913  1.00  0.00    -0.040 SA
BRANCH   9  11
HETATM   11  N   UNL     1      25.744  44.937  51.217  1.00  0.00    -0.299 N 
HETATM   12  C   UNL     1      26.643  44.470  50.270  1.00  0.00     0.257 C 
HETATM   13  O   UNL     1      27.034  45.122  49.309  1.00  0.00    -0.267 OA
HETATM   14  H   UNL     1      25.463  44.320  51.966  1.00  0.00     0.171 HD
BRANCH  12  15
HETATM   15  C   UNL     1      27.150  43.089  50.484  1.00  0.00     0.035 A 
HETATM   16  C   UNL     1      27.616  42.651  51.728  1.00  0.00     0.041 A 
HETATM   17  C   UNL     1      28.123  41.356  51.853  1.00  0.00     0.036 A 
HETATM   18 CL   UNL     1      28.712  40.822  53.380  1.00  0.00    -0.084 Cl
HETATM   19  C   UNL     1      28.164  40.495  50.759  1.00  0.00     0.047 A 
HETATM   20  C   UNL     1      27.678  40.932  49.530  1.00  0.00     0.036 A 
HETATM   21 CL   UNL     1      27.725  39.875  48.174  1.00  0.00    -0.084 Cl
HETATM   22  C   UNL     1      27.165  42.220  49.385  1.00  0.00     0.041 A 
ENDBRANCH  12  15
ENDBRANCH   9  11
ENDBRANCH   7   9
ENDBRANCH   4   7
BRANCH   3  23
HETATM   23  C   UNL     1      22.400  48.304  49.088  1.00  0.00     0.254 C 
HETATM   24  N   UNL     1      21.597  49.309  49.579  1.00  0.00    -0.351 N 
HETATM   25  H   UNL     1      21.981  50.243  49.682  1.00  0.00     0.163 HD
HETATM   26  O   UNL     1      21.957  47.228  48.699  1.00  0.00    -0.268 OA
BRANCH  24  27
HETATM   27  C   UNL     1      20.163  49.213  49.444  1.00  0.00     0.187 C 
BRANCH  27  28
HETATM   28  C   UNL     1      19.609  50.479  48.904  1.00  0.00     0.070 A 
HETATM   29  O   UNL     1      18.297  50.488  48.516  1.00  0.00    -0.325 OA
HETATM   30  C   UNL     1      18.021  51.745  48.085  1.00  0.00     0.142 A 
HETATM   31  C   UNL     1      19.132  52.549  48.194  1.00  0.00     0.027 A 
HETATM   32  C   UNL     1      20.158  51.733  48.726  1.00  0.00     0.036 A 
ENDBRANCH  27  28
ENDBRANCH  24  27
ENDBRANCH   3  23
TORSDOF 7
ENDMDL
MODEL 7
REMARK VINA RESULT:      -8.5      1.823      2.272
REMARK  7 active torsions:
REMARK  status: ('A' for Active; 'I' for Inactive)
REMARK    1  A    between atoms: C_3  and  C_4 
REMARK       I    between atoms: C_4  and  N_5 
REMARK    2  A    between atoms: N_5  and  C_6 
REMARK    3  A    between atoms: C_6  and  C_7 
REMARK    4  A    between atoms: C_13  and  N_14 
REMARK    5  A    between atoms: N_14  and  C_15 
REMARK    6  A    between atoms: C_15  and  N_16 
REMARK       I    between atoms: N_16  and  C_17 
REMARK    7  A    between atoms: C_17  and  C_18 
ROOT
HETATM    1  C   UNL     1      27.051  49.961  48.426  1.00  0.00     0.001 A 
HETATM    2  C   UNL     1      25.683  50.089  48.202  1.00  0.00     0.019 A 
HETATM    3  C   UNL     1      24.771  49.184  48.777  1.00  0.00     0.058 A 
HETATM    4  C   UNL     1      25.240  48.126  49.581  1.00  0.00     0.050 A 
HETATM    5  C   UNL     1      26.624  48.012  49.788  1.00  0.00     0.030 A 
HETATM    6  C   UNL     1      27.520  48.925  49.222  1.00  0.00     0.002 A 
ENDROOT
BRANCH   4   7
HETATM    7  N   UNL     1      24.356  47.119  50.050  1.00  0.00    -0.332 N 
HETATM    8  H   UNL     1      23.595  47.448  50.650  1.00  0.00     0.168 HD
BRANCH   7   9
HETATM    9  C   UNL     1      24.355  45.769  49.805  1.00  0.00     0.179 C 
HETATM   10  S   UNL     1      23.613  44.956  48.544  1.00  0.00    -0.040 SA
BRANCH   9  11
HETATM   11  N   UNL     1      25.067  44.994  50.700  1.00  0.00    -0.299 N 
HETATM   12  C   UNL     1      26.383  44.568  50.605  1.00  0.00     0.257 C 
HETATM   13  O   UNL     1      27.043  44.588  49.573  1.00  0.00    -0.267 OA
HETATM   14  H   UNL     1      24.595  44.921  51.591  1.00  0.00     0.171 HD
BRANCH  12  15
HETATM   15  C   UNL     1      26.996  44.074  51.866  1.00  0.00     0.035 A 
HETATM   16  C   UNL     1      28.341  43.693  51.941  1.00  0.00     0.041 A 
HETATM   17  C   UNL     1      28.846  43.194  53.142  1.00  0.00     0.036 A 
HETATM   18 CL   UNL     1      30.496  42.710  53.230  1.00  0.00    -0.084 Cl
HETATM   19  C   UNL     1      28.033  43.076  54.267  1.00  0.00     0.047 A 
HETATM   20  C   UNL     1      26.702  43.478  54.190  1.00  0.00     0.036 A 
HETATM   21 CL   UNL     1      25.691  43.336  55.574  1.00  0.00    -0.084 Cl
HETATM   22  C   UNL     1      26.179  43.982  53.001  1.00  0.00     0.041 A 
ENDBRANCH  12  15
ENDBRANCH   9  11
ENDBRANCH   7   9
ENDBRANCH   4   7
BRANCH   3  23
HETATM   23  C   UNL     1      23.330  49.482  48.534  1.00  0.00     0.254 C 
HETATM   24  N   UNL     1      22.537  49.653  49.646  1.00  0.00    -0.351 N 
HETATM   25  H   UNL     1      22.974  49.720  50.559  1.00  0.00     0.163 HD
HETATM   26  O   UNL     1      22.916  49.643  47.390  1.00  0.00    -0.268 OA
BRANCH  24  27
HETATM   27  C   UNL     1      21.230  50.253  49.511  1.00  0.00     0.187 C 
BRANCH  27  28
HETATM   28  C   UNL     1      20.182  49.204  49.470  1.00  0.00     0.070 A 
HETATM   29  O   UNL     1      19.046  49.408  50.205  1.00  0.00    -0.325 OA
HETATM   30  C   UNL     1      18.240  48.336  49.992  1.00  0.00     0.142 A 
HETATM   31  C   UNL     1      18.834  47.448  49.126  1.00  0.00     0.027 A 
HETATM   32  C   UNL     1      20.088  48.008  48.787  1.00  0.00     0.036 A 
ENDBRANCH  27  28
ENDBRANCH  24  27
ENDBRANCH   3  23
TORSDOF 7
ENDMDL
MODEL 8
REMARK VINA RESULT:      -8.5      1.866      2.708
REMARK  7 active torsions:
REMARK  status: ('A' for Active; 'I' for Inactive)
REMARK    1  A    between atoms: C_3  and  C_4 
REMARK       I    between atoms: C_4  and  N_5 
REMARK    2  A    between atoms: N_5  and  C_6 
REMARK    3  A    between atoms: C_6  and  C_7 
REMARK    4  A    between atoms: C_13  and  N_14 
REMARK    5  A    between atoms: N_14  and  C_15 
REMARK    6  A    between atoms: C_15  and  N_16 
REMARK       I    between atoms: N_16  and  C_17 
REMARK    7  A    between atoms: C_17  and  C_18 
ROOT
HETATM    1  C   UNL     1      21.829  45.064  48.187  1.00  0.00     0.001 A 
HETATM    2  C   UNL     1      21.686  46.446  48.103  1.00  0.00     0.019 A 
HETATM    3  C   UNL     1      22.591  47.305  48.756  1.00  0.00     0.058 A 
HETATM    4  C   UNL     1      23.648  46.767  49.517  1.00  0.00     0.050 A 
HETATM    5  C   UNL     1      23.769  45.371  49.593  1.00  0.00     0.030 A 
HETATM    6  C   UNL     1      22.872  44.527  48.929  1.00  0.00     0.002 A 
ENDROOT
BRANCH   4   7
HETATM    7  N   UNL     1      24.482  47.606  50.302  1.00  0.00    -0.332 N 
HETATM    8  H   UNL     1      24.000  48.158  51.018  1.00  0.00     0.168 HD
BRANCH   7   9
HETATM    9  C   UNL     1      25.842  47.780  50.259  1.00  0.00     0.179 C 
HETATM   10  S   UNL     1      26.733  48.624  49.122  1.00  0.00    -0.040 SA
BRANCH   9  11
HETATM   11  N   UNL     1      26.555  47.202  51.291  1.00  0.00    -0.299 N 
HETATM   12  C   UNL     1      26.183  47.067  52.620  1.00  0.00     0.257 C 
HETATM   13  O   UNL     1      25.266  47.687  53.146  1.00  0.00    -0.267 OA
HETATM   14  H   UNL     1      27.339  46.662  50.949  1.00  0.00     0.171 HD
BRANCH  12  15
HETATM   15  C   UNL     1      26.965  46.085  53.416  1.00  0.00     0.035 A 
HETATM   16  C   UNL     1      27.147  44.762  52.998  1.00  0.00     0.041 A 
HETATM   17  C   UNL     1      27.852  43.876  53.813  1.00  0.00     0.036 A 
HETATM   18 CL   UNL     1      28.062  42.245  53.306  1.00  0.00    -0.084 Cl
HETATM   19  C   UNL     1      28.382  44.293  55.032  1.00  0.00     0.047 A 
HETATM   20  C   UNL     1      28.216  45.616  55.430  1.00  0.00     0.036 A 
HETATM   21 CL   UNL     1      28.868  46.139  56.934  1.00  0.00    -0.084 Cl
HETATM   22  C   UNL     1      27.517  46.517  54.629  1.00  0.00     0.041 A 
ENDBRANCH  12  15
ENDBRANCH   9  11
ENDBRANCH   7   9
ENDBRANCH   4   7
BRANCH   3  23
HETATM   23  C   UNL     1      22.382  48.762  48.515  1.00  0.00     0.254 C 
HETATM   24  N   UNL     1      21.501  49.407  49.352  1.00  0.00    -0.351 N 
HETATM   25  H   UNL     1      21.152  48.922  50.173  1.00  0.00     0.163 HD
HETATM   26  O   UNL     1      23.038  49.347  47.660  1.00  0.00    -0.268 OA
BRANCH  24  27
HETATM   27  C   UNL     1      21.483  50.850  49.402  1.00  0.00     0.187 C 
BRANCH  27  28
HETATM   28  C   UNL     1      20.091  51.353  49.300  1.00  0.00     0.070 A 
HETATM   29  O   UNL     1      19.172  50.874  50.194  1.00  0.00    -0.325 OA
HETATM   30  C   UNL     1      17.994  51.489  49.918  1.00  0.00     0.142 A 
HETATM   31  C   UNL     1      18.139  52.363  48.866  1.00  0.00     0.027 A 
HETATM   32  C   UNL     1      19.494  52.278  48.467  1.00  0.00     0.036 A 
ENDBRANCH  27  28
ENDBRANCH  24  27
ENDBRANCH   3  23
TORSDOF 7
ENDMDL
MODEL 9
REMARK VINA RESULT:      -8.4      3.395      5.107
REMARK  7 active torsions:
REMARK  status: ('A' for Active; 'I' for Inactive)
REMARK    1  A    between atoms: C_3  and  C_4 
REMARK       I    between atoms: C_4  and  N_5 
REMARK    2  A    between atoms: N_5  and  C_6 
REMARK    3  A    between atoms: C_6  and  C_7 
REMARK    4  A    between atoms: C_13  and  N_14 
REMARK    5  A    between atoms: N_14  and  C_15 
REMARK    6  A    between atoms: C_15  and  N_16 
REMARK       I    between atoms: N_16  and  C_17 
REMARK    7  A    between atoms: C_17  and  C_18 
ROOT
HETATM    1  C   UNL     1      22.273  43.531  47.498  1.00  0.00     0.001 A 
HETATM    2  C   UNL     1      22.846  44.370  48.451  1.00  0.00     0.019 A 
HETATM    3  C   UNL     1      23.647  43.847  49.483  1.00  0.00     0.058 A 
HETATM    4  C   UNL     1      23.867  42.457  49.569  1.00  0.00     0.050 A 
HETATM    5  C   UNL     1      23.275  41.630  48.602  1.00  0.00     0.030 A 
HETATM    6  C   UNL     1      22.491  42.162  47.573  1.00  0.00     0.002 A 
ENDROOT
BRANCH   4   7
HETATM    7  N   UNL     1      24.547  41.895  50.681  1.00  0.00    -0.332 N 
HETATM    8  H   UNL     1      24.006  41.850  51.550  1.00  0.00     0.168 HD
BRANCH   7   9
HETATM    9  C   UNL     1      25.817  41.383  50.766  1.00  0.00     0.179 C 
HETATM   10  S   UNL     1      26.454  40.077  49.934  1.00  0.00    -0.040 SA
BRANCH   9  11
HETATM   11  N   UNL     1      26.673  42.037  51.629  1.00  0.00    -0.299 N 
HETATM   12  C   UNL     1      27.292  43.265  51.455  1.00  0.00     0.257 C 
HETATM   13  O   UNL     1      27.387  43.843  50.378  1.00  0.00    -0.267 OA
HETATM   14  H   UNL     1      26.660  41.626  52.553  1.00  0.00     0.171 HD
BRANCH  12  15
HETATM   15  C   UNL     1      27.850  43.891  52.683  1.00  0.00     0.035 A 
HETATM   16  C   UNL     1      28.961  43.362  53.349  1.00  0.00     0.041 A 
HETATM   17  C   UNL     1      29.409  43.968  54.524  1.00  0.00     0.036 A 
HETATM   18 CL   UNL     1      30.766  43.309  55.352  1.00  0.00    -0.084 Cl
HETATM   19  C   UNL     1      28.769  45.094  55.036  1.00  0.00     0.047 A 
HETATM   20  C   UNL     1      27.677  45.627  54.355  1.00  0.00     0.036 A 
HETATM   21 CL   UNL     1      26.882  47.017  54.981  1.00  0.00    -0.084 Cl
HETATM   22  C   UNL     1      27.217  45.038  53.179  1.00  0.00     0.041 A 
ENDBRANCH  12  15
ENDBRANCH   9  11
ENDBRANCH   7   9
ENDBRANCH   4   7
BRANCH   3  23
HETATM   23  C   UNL     1      24.273  44.857  50.385  1.00  0.00     0.254 C 
HETATM   24  N   UNL     1      25.009  45.852  49.782  1.00  0.00    -0.351 N 
HETATM   25  H   UNL     1      24.974  45.950  48.773  1.00  0.00     0.163 HD
HETATM   26  O   UNL     1      24.059  44.825  51.592  1.00  0.00    -0.268 OA
BRANCH  24  27
HETATM   27  C   UNL     1      25.372  47.031  50.532  1.00  0.00     0.187 C 
BRANCH  27  28
HETATM   28  C   UNL     1      25.537  48.191  49.622  1.00  0.00     0.070 A 
HETATM   29  O   UNL     1      26.810  48.610  49.346  1.00  0.00    -0.325 OA
HETATM   30  C   UNL     1      26.704  49.655  48.487  1.00  0.00     0.142 A 
HETATM   31  C   UNL     1      25.384  49.913  48.198  1.00  0.00     0.027 A 
HETATM   32  C   UNL     1      24.629  48.966  48.929  1.00  0.00     0.036 A 
ENDBRANCH  27  28
ENDBRANCH  24  27
ENDBRANCH   3  23
TORSDOF 7
ENDMDL
MODEL 10
REMARK VINA RESULT:      -8.4      5.420     10.263
REMARK  7 active torsions:
REMARK  status: ('A' for Active; 'I' for Inactive)
REMARK    1  A    between atoms: C_3  and  C_4 
REMARK       I    between atoms: C_4  and  N_5 
REMARK    2  A    between atoms: N_5  and  C_6 
REMARK    3  A    between atoms: C_6  and  C_7 
REMARK    4  A    between atoms: C_13  and  N_14 
REMARK    5  A    between atoms: N_14  and  C_15 
REMARK    6  A    between atoms: C_15  and  N_16 
REMARK       I    between atoms: N_16  and  C_17 
REMARK    7  A    between atoms: C_17  and  C_18 
ROOT
HETATM    1  C   UNL     1      23.963  50.817  48.037  1.00  0.00     0.001 A 
HETATM    2  C   UNL     1      24.239  49.549  48.541  1.00  0.00     0.019 A 
HETATM    3  C   UNL     1      23.203  48.718  49.009  1.00  0.00     0.058 A 
HETATM    4  C   UNL     1      21.869  49.174  48.982  1.00  0.00     0.050 A 
HETATM    5  C   UNL     1      21.615  50.458  48.477  1.00  0.00     0.030 A 
HETATM    6  C   UNL     1      22.651  51.269  48.003  1.00  0.00     0.002 A 
ENDROOT
BRANCH   4   7
HETATM    7  N   UNL     1      20.829  48.416  49.581  1.00  0.00    -0.332 N 
HETATM    8  H   UNL     1      20.907  48.287  50.594  1.00  0.00     0.168 HD
BRANCH   7   9
HETATM    9  C   UNL     1      19.720  47.842  49.011  1.00  0.00     0.179 C 
HETATM   10  S   UNL     1      19.538  46.263  48.487  1.00  0.00    -0.040 SA
BRANCH   9  11
HETATM   11  N   UNL     1      18.620  48.665  48.873  1.00  0.00    -0.299 N 
HETATM   12  C   UNL     1      18.214  49.699  49.702  1.00  0.00     0.257 C 
HETATM   13  O   UNL     1      18.625  49.870  50.845  1.00  0.00    -0.267 OA
HETATM   14  H   UNL     1      18.212  48.593  47.951  1.00  0.00     0.171 HD
BRANCH  12  15
HETATM   15  C   UNL     1      17.226  50.646  49.122  1.00  0.00     0.035 A 
HETATM   16  C   UNL     1      16.587  50.401  47.901  1.00  0.00     0.041 A 
HETATM   17  C   UNL     1      15.704  51.351  47.386  1.00  0.00     0.036 A 
HETATM   18 CL   UNL     1      14.930  51.056  45.877  1.00  0.00    -0.084 Cl
HETATM   19  C   UNL     1      15.446  52.534  48.074  1.00  0.00     0.047 A 
HETATM   20  C   UNL     1      16.068  52.761  49.298  1.00  0.00     0.036 A 
HETATM   21 CL   UNL     1      15.755  54.219  50.154  1.00  0.00    -0.084 Cl
HETATM   22  C   UNL     1      16.951  51.823  49.831  1.00  0.00     0.041 A 
ENDBRANCH  12  15
ENDBRANCH   9  11
ENDBRANCH   7   9
ENDBRANCH   4   7
BRANCH   3  23
HETATM   23  C   UNL     1      23.619  47.352  49.439  1.00  0.00     0.254 C 
HETATM   24  N   UNL     1      24.583  47.279  50.418  1.00  0.00    -0.351 N 
HETATM   25  H   UNL     1      24.858  48.125  50.906  1.00  0.00     0.163 HD
HETATM   26  O   UNL     1      23.054  46.362  48.984  1.00  0.00    -0.268 OA
BRANCH  24  27
HETATM   27  C   UNL     1      24.808  46.033  51.113  1.00  0.00     0.187 C 
BRANCH  27  28
HETATM   28  C   UNL     1      25.441  46.283  52.430  1.00  0.00     0.070 A 
HETATM   29  O   UNL     1      25.425  47.563  52.913  1.00  0.00    -0.325 OA
HETATM   30  C   UNL     1      26.036  47.536  54.125  1.00  0.00     0.142 A 
HETATM   31  C   UNL     1      26.441  46.258  54.435  1.00  0.00     0.027 A 
HETATM   32  C   UNL     1      26.055  45.448  53.342  1.00  0.00     0.036 A 
ENDBRANCH  27  28
ENDBRANCH  24  27
ENDBRANCH   3  23
TORSDOF 7
ENDMDL
