MODEL 1
REMARK VINA RESULT:      -9.7      0.000      0.000
REMARK  6 active torsions:
REMARK  status: ('A' for Active; 'I' for Inactive)
REMARK    1  A    between atoms: N_2  and  C_4 
REMARK    2  A    between atoms: C_4  and  C_5 
REMARK       I    between atoms: C_5  and  N_7 
REMARK    3  A    between atoms: N_7  and  C_8 
REMARK    4  A    between atoms: C_8  and  C_9 
REMARK    5  A    between atoms: C_8  and  C_26 
REMARK    6  A    between atoms: C_14  and  C_20 
ROOT
HETATM    1  C   UNL     1      26.041  45.299  51.931  1.00  0.00     0.135 A 
HETATM    2  N   UNL     1      27.024  44.466  52.083  1.00  0.00    -0.232 NA
HETATM    3  C   UNL     1      27.762  44.537  53.276  1.00  0.00     0.074 A 
HETATM    4  C   UNL     1      28.845  43.677  53.448  1.00  0.00     0.033 A 
HETATM    5  C   UNL     1      29.640  43.753  54.598  1.00  0.00     0.014 A 
HETATM    6  C   UNL     1      29.364  44.695  55.599  1.00  0.00    -0.022 A 
HETATM    7  C   UNL     1      28.262  45.543  55.443  1.00  0.00     0.031 A 
HETATM    8  C   UNL     1      27.476  45.457  54.287  1.00  0.00     0.061 A 
HETATM    9  C   UNL     1      26.321  46.348  54.087  1.00  0.00     0.259 A 
HETATM   10  O   UNL     1      25.949  47.138  54.945  1.00  0.00    -0.267 OA
HETATM   11  N   UNL     1      25.697  46.235  52.874  1.00  0.00    -0.309 N 
HETATM   12  H   UNL     1      24.852  46.774  52.751  1.00  0.00     0.170 HD
ENDROOT
BRANCH   1  13
HETATM   13  C   UNL     1      25.260  45.346  50.604  1.00  0.00     0.187 C 
BRANCH  13  14
HETATM   14  N   UNL     1      23.857  44.964  50.739  1.00  0.00    -0.344 N 
HETATM   15  C   UNL     1      23.309  43.756  50.400  1.00  0.00     0.247 C 
HETATM   16  O   UNL     1      22.091  43.702  50.213  1.00  0.00    -0.272 OA
HETATM   17  H   UNL     1      23.167  45.700  50.637  1.00  0.00     0.163 HD
BRANCH  15  18
HETATM   18  C   UNL     1      24.193  42.510  50.303  1.00  0.00     0.373 C 
BRANCH  18  19
HETATM   19  N   UNL     1      24.687  42.321  48.924  1.00  0.00     0.088 N 
HETATM   20  C   UNL     1      26.143  42.140  48.901  1.00  0.00     0.310 C 
HETATM   21  C   UNL     1      24.037  41.155  48.320  1.00  0.00     0.310 C 
ENDBRANCH  18  19
ENDBRANCH  15  18
ENDBRANCH  13  14
BRANCH  13  22
HETATM   22  C   UNL     1      25.402  46.738  49.994  1.00  0.00    -0.028 A 
HETATM   23  C   UNL     1      24.246  47.454  49.637  1.00  0.00     0.011 A 
HETATM   24  C   UNL     1      24.341  48.705  49.020  1.00  0.00     0.024 A 
HETATM   25  C   UNL     1      25.594  49.251  48.751  1.00  0.00     0.034 A 
HETATM   26 CL   UNL     1      25.712  50.786  47.986  1.00  0.00    -0.084 Cl
HETATM   27  C   UNL     1      26.751  48.554  49.088  1.00  0.00     0.024 A 
HETATM   28  C   UNL     1      26.658  47.301  49.700  1.00  0.00     0.011 A 
ENDBRANCH  13  22
ENDBRANCH   1  13
BRANCH   6  29
HETATM   29  C   UNL     1      30.226  44.792  56.763  1.00  0.00     0.010 A 
HETATM   30  C   UNL     1      31.317  43.996  57.181  1.00  0.00     0.152 A 
HETATM   31  N   UNL     1      31.884  44.441  58.306  1.00  0.00    -0.187 NA
HETATM   32  N   UNL     1      31.160  45.529  58.612  1.00  0.00    -0.289 N 
HETATM   33  H   UNL     1      31.410  46.057  59.442  1.00  0.00     0.188 HD
HETATM   34  C   UNL     1      30.157  45.783  57.720  1.00  0.00     0.123 A 
ENDBRANCH   6  29
TORSDOF 6
ENDMDL
MODEL 2
REMARK VINA RESULT:      -8.9      2.565      4.308
REMARK  6 active torsions:
REMARK  status: ('A' for Active; 'I' for Inactive)
REMARK    1  A    between atoms: N_2  and  C_4 
REMARK    2  A    between atoms: C_4  and  C_5 
REMARK       I    between atoms: C_5  and  N_7 
REMARK    3  A    between atoms: N_7  and  C_8 
REMARK    4  A    between atoms: C_8  and  C_9 
REMARK    5  A    between atoms: C_8  and  C_26 
REMARK    6  A    between atoms: C_14  and  C_20 
ROOT
HETATM    1  C   UNL     1      25.782  46.355  52.438  1.00  0.00     0.135 A 
HETATM    2  N   UNL     1      26.643  45.386  52.491  1.00  0.00    -0.232 NA
HETATM    3  C   UNL     1      27.456  45.295  53.632  1.00  0.00     0.074 A 
HETATM    4  C   UNL     1      28.412  44.284  53.697  1.00  0.00     0.033 A 
HETATM    5  C   UNL     1      29.279  44.191  54.792  1.00  0.00     0.014 A 
HETATM    6  C   UNL     1      29.205  45.114  55.845  1.00  0.00    -0.022 A 
HETATM    7  C   UNL     1      28.228  46.116  55.797  1.00  0.00     0.031 A 
HETATM    8  C   UNL     1      27.368  46.197  54.695  1.00  0.00     0.061 A 
HETATM    9  C   UNL     1      26.343  47.250  54.608  1.00  0.00     0.259 A 
HETATM   10  O   UNL     1      26.143  48.043  55.519  1.00  0.00    -0.267 OA
HETATM   11  N   UNL     1      25.636  47.285  53.437  1.00  0.00    -0.309 N 
HETATM   12  H   UNL     1      24.871  47.943  53.392  1.00  0.00     0.170 HD
ENDROOT
BRANCH   1  13
HETATM   13  C   UNL     1      24.935  46.575  51.170  1.00  0.00     0.187 C 
BRANCH  13  14
HETATM   14  N   UNL     1      25.502  47.560  50.253  1.00  0.00    -0.344 N 
HETATM   15  C   UNL     1      24.805  48.339  49.369  1.00  0.00     0.247 C 
HETATM   16  O   UNL     1      25.419  48.832  48.420  1.00  0.00    -0.272 OA
HETATM   17  H   UNL     1      26.432  47.375  49.895  1.00  0.00     0.163 HD
BRANCH  15  18
HETATM   18  C   UNL     1      23.316  48.616  49.594  1.00  0.00     0.373 C 
BRANCH  18  19
HETATM   19  N   UNL     1      22.763  49.442  48.501  1.00  0.00     0.088 N 
HETATM   20  C   UNL     1      21.555  48.835  47.934  1.00  0.00     0.310 C 
HETATM   21  C   UNL     1      22.450  50.783  49.004  1.00  0.00     0.310 C 
ENDBRANCH  18  19
ENDBRANCH  15  18
ENDBRANCH  13  14
BRANCH  13  22
HETATM   22  C   UNL     1      24.719  45.230  50.480  1.00  0.00    -0.028 A 
HETATM   23  C   UNL     1      25.687  44.758  49.575  1.00  0.00     0.011 A 
HETATM   24  C   UNL     1      25.492  43.561  48.880  1.00  0.00     0.024 A 
HETATM   25  C   UNL     1      24.327  42.825  49.080  1.00  0.00     0.034 A 
HETATM   26 CL   UNL     1      24.083  41.357  48.220  1.00  0.00    -0.084 Cl
HETATM   27  C   UNL     1      23.352  43.280  49.964  1.00  0.00     0.024 A 
HETATM   28  C   UNL     1      23.543  44.479  50.657  1.00  0.00     0.011 A 
ENDBRANCH  13  22
ENDBRANCH   1  13
BRANCH   6  29
HETATM   29  C   UNL     1      30.141  45.033  56.951  1.00  0.00     0.010 A 
HETATM   30  C   UNL     1      31.221  44.152  57.192  1.00  0.00     0.152 A 
HETATM   31  N   UNL     1      31.877  44.432  58.322  1.00  0.00    -0.187 NA
HETATM   32  N   UNL     1      31.222  45.498  58.809  1.00  0.00    -0.289 N 
HETATM   33  H   UNL     1      31.548  45.908  59.677  1.00  0.00     0.188 HD
HETATM   34  C   UNL     1      30.178  45.898  58.025  1.00  0.00     0.123 A 
ENDBRANCH   6  29
TORSDOF 6
ENDMDL
MODEL 3
REMARK VINA RESULT:      -8.7      3.574      7.653
REMARK  6 active torsions:
REMARK  status: ('A' for Active; 'I' for Inactive)
REMARK    1  A    between atoms: N_2  and  C_4 
REMARK    2  A    between atoms: C_4  and  C_5 
REMARK       I    between atoms: C_5  and  N_7 
REMARK    3  A    between atoms: N_7  and  C_8 
REMARK    4  A    between atoms: C_8  and  C_9 
REMARK    5  A    between atoms: C_8  and  C_26 
REMARK    6  A    between atoms: C_14  and  C_20 
ROOT
HETATM    1  C   UNL     1      26.537  43.543  51.501  1.00  0.00     0.135 A 
HETATM    2  N   UNL     1      27.110  44.636  51.103  1.00  0.00    -0.232 NA
HETATM    3  C   UNL     1      26.290  45.653  50.586  1.00  0.00     0.074 A 
HETATM    4  C   UNL     1      26.886  46.823  50.118  1.00  0.00     0.033 A 
HETATM    5  C   UNL     1      26.110  47.838  49.546  1.00  0.00     0.014 A 
HETATM    6  C   UNL     1      24.719  47.698  49.429  1.00  0.00    -0.022 A 
HETATM    7  C   UNL     1      24.115  46.536  49.922  1.00  0.00     0.031 A 
HETATM    8  C   UNL     1      24.903  45.529  50.491  1.00  0.00     0.061 A 
HETATM    9  C   UNL     1      24.297  44.288  51.002  1.00  0.00     0.259 A 
HETATM   10  O   UNL     1      23.085  44.116  51.027  1.00  0.00    -0.267 OA
HETATM   11  N   UNL     1      25.182  43.340  51.439  1.00  0.00    -0.309 N 
HETATM   12  H   UNL     1      24.784  42.519  51.873  1.00  0.00     0.170 HD
ENDROOT
BRANCH   1  13
HETATM   13  C   UNL     1      27.386  42.350  51.979  1.00  0.00     0.187 C 
BRANCH  13  14
HETATM   14  N   UNL     1      28.139  41.704  50.907  1.00  0.00    -0.344 N 
HETATM   15  C   UNL     1      27.727  40.637  50.155  1.00  0.00     0.247 C 
HETATM   16  O   UNL     1      28.584  39.973  49.567  1.00  0.00    -0.272 OA
HETATM   17  H   UNL     1      29.150  41.699  50.991  1.00  0.00     0.163 HD
BRANCH  15  18
HETATM   18  C   UNL     1      26.235  40.318  50.024  1.00  0.00     0.373 C 
BRANCH  18  19
HETATM   19  N   UNL     1      25.734  40.684  48.683  1.00  0.00     0.088 N 
HETATM   20  C   UNL     1      25.724  39.524  47.785  1.00  0.00     0.310 C 
HETATM   21  C   UNL     1      24.380  41.233  48.792  1.00  0.00     0.310 C 
ENDBRANCH  18  19
ENDBRANCH  15  18
ENDBRANCH  13  14
BRANCH  13  22
HETATM   22  C   UNL     1      28.307  42.815  53.104  1.00  0.00    -0.028 A 
HETATM   23  C   UNL     1      27.805  43.685  54.088  1.00  0.00     0.011 A 
HETATM   24  C   UNL     1      28.636  44.179  55.097  1.00  0.00     0.024 A 
HETATM   25  C   UNL     1      29.978  43.810  55.132  1.00  0.00     0.034 A 
HETATM   26 CL   UNL     1      31.003  44.422  56.369  1.00  0.00    -0.084 Cl
HETATM   27  C   UNL     1      30.498  42.956  54.162  1.00  0.00     0.024 A 
HETATM   28  C   UNL     1      29.669  42.465  53.149  1.00  0.00     0.011 A 
ENDBRANCH  13  22
ENDBRANCH   1  13
BRANCH   6  29
HETATM   29  C   UNL     1      23.935  48.739  48.791  1.00  0.00     0.010 A 
HETATM   30  C   UNL     1      24.329  49.881  48.055  1.00  0.00     0.152 A 
HETATM   31  N   UNL     1      23.291  50.582  47.591  1.00  0.00    -0.187 NA
HETATM   32  N   UNL     1      22.225  49.889  48.023  1.00  0.00    -0.289 N 
HETATM   33  H   UNL     1      21.300  50.229  47.783  1.00  0.00     0.188 HD
HETATM   34  C   UNL     1      22.557  48.778  48.744  1.00  0.00     0.123 A 
ENDBRANCH   6  29
TORSDOF 6
ENDMDL
MODEL 4
REMARK VINA RESULT:      -8.4      3.985      8.136
REMARK  6 active torsions:
REMARK  status: ('A' for Active; 'I' for Inactive)
REMARK    1  A    between atoms: N_2  and  C_4 
REMARK    2  A    between atoms: C_4  and  C_5 
REMARK       I    between atoms: C_5  and  N_7 
REMARK    3  A    between atoms: N_7  and  C_8 
REMARK    4  A    between atoms: C_8  and  C_9 
REMARK    5  A    between atoms: C_8  and  C_26 
REMARK    6  A    between atoms: C_14  and  C_20 
ROOT
HETATM    1  C   UNL     1      26.718  42.624  50.941  1.00  0.00     0.135 A 
HETATM    2  N   UNL     1      25.439  42.436  50.830  1.00  0.00    -0.232 NA
HETATM    3  C   UNL     1      24.685  43.432  50.188  1.00  0.00     0.074 A 
HETATM    4  C   UNL     1      23.304  43.271  50.088  1.00  0.00     0.033 A 
HETATM    5  C   UNL     1      22.511  44.265  49.504  1.00  0.00     0.014 A 
HETATM    6  C   UNL     1      23.087  45.444  49.010  1.00  0.00    -0.022 A 
HETATM    7  C   UNL     1      24.476  45.599  49.085  1.00  0.00     0.031 A 
HETATM    8  C   UNL     1      25.258  44.597  49.672  1.00  0.00     0.061 A 
HETATM    9  C   UNL     1      26.719  44.740  49.781  1.00  0.00     0.259 A 
HETATM   10  O   UNL     1      27.319  45.691  49.296  1.00  0.00    -0.267 OA
HETATM   11  N   UNL     1      27.356  43.741  50.465  1.00  0.00    -0.309 N 
HETATM   12  H   UNL     1      28.366  43.776  50.475  1.00  0.00     0.170 HD
ENDROOT
BRANCH   1  13
HETATM   13  C   UNL     1      27.585  41.622  51.727  1.00  0.00     0.187 C 
BRANCH  13  14
HETATM   14  N   UNL     1      28.516  40.873  50.888  1.00  0.00    -0.344 N 
HETATM   15  C   UNL     1      28.240  39.724  50.197  1.00  0.00     0.247 C 
HETATM   16  O   UNL     1      29.186  39.012  49.851  1.00  0.00    -0.272 OA
HETATM   17  H   UNL     1      29.494  40.892  51.153  1.00  0.00     0.163 HD
BRANCH  15  18
HETATM   18  C   UNL     1      26.794  39.372  49.834  1.00  0.00     0.373 C 
BRANCH  18  19
HETATM   19  N   UNL     1      26.596  39.406  48.370  1.00  0.00     0.088 N 
HETATM   20  C   UNL     1      26.429  38.055  47.825  1.00  0.00     0.310 C 
HETATM   21  C   UNL     1      25.417  40.215  48.049  1.00  0.00     0.310 C 
ENDBRANCH  18  19
ENDBRANCH  15  18
ENDBRANCH  13  14
BRANCH  13  22
HETATM   22  C   UNL     1      28.315  42.367  52.841  1.00  0.00    -0.028 A 
HETATM   23  C   UNL     1      27.583  43.197  53.709  1.00  0.00     0.011 A 
HETATM   24  C   UNL     1      28.228  43.940  54.701  1.00  0.00     0.024 A 
HETATM   25  C   UNL     1      29.612  43.863  54.835  1.00  0.00     0.034 A 
HETATM   26 CL   UNL     1      30.407  44.783  56.051  1.00  0.00    -0.084 Cl
HETATM   27  C   UNL     1      30.357  43.055  53.980  1.00  0.00     0.024 A 
HETATM   28  C   UNL     1      29.714  42.314  52.984  1.00  0.00     0.011 A 
ENDBRANCH  13  22
ENDBRANCH   1  13
BRANCH   6  29
HETATM   29  C   UNL     1      22.245  46.486  48.451  1.00  0.00     0.010 A 
HETATM   30  C   UNL     1      22.449  47.880  48.328  1.00  0.00     0.152 A 
HETATM   31  N   UNL     1      21.439  48.499  47.710  1.00  0.00    -0.187 NA
HETATM   32  N   UNL     1      20.584  47.503  47.430  1.00  0.00    -0.289 N 
HETATM   33  H   UNL     1      19.724  47.729  46.942  1.00  0.00     0.188 HD
HETATM   34  C   UNL     1      21.021  46.279  47.851  1.00  0.00     0.123 A 
ENDBRANCH   6  29
TORSDOF 6
ENDMDL
MODEL 5
REMARK VINA RESULT:      -8.3      6.311     10.878
REMARK  6 active torsions:
REMARK  status: ('A' for Active; 'I' for Inactive)
REMARK    1  A    between atoms: N_2  and  C_4 
REMARK    2  A    between atoms: C_4  and  C_5 
REMARK       I    between atoms: C_5  and  N_7 
REMARK    3  A    between atoms: N_7  and  C_8 
REMARK    4  A    between atoms: C_8  and  C_9 
REMARK    5  A    between atoms: C_8  and  C_26 
REMARK    6  A    between atoms: C_14  and  C_20 
ROOT
HETATM    1  C   UNL     1      20.604  48.665  48.797  1.00  0.00     0.135 A 
HETATM    2  N   UNL     1      20.203  49.544  47.930  1.00  0.00    -0.232 NA
HETATM    3  C   UNL     1      19.154  50.399  48.303  1.00  0.00     0.074 A 
HETATM    4  C   UNL     1      18.681  51.327  47.376  1.00  0.00     0.033 A 
HETATM    5  C   UNL     1      17.601  52.160  47.689  1.00  0.00     0.014 A 
HETATM    6  C   UNL     1      16.970  52.078  48.938  1.00  0.00    -0.022 A 
HETATM    7  C   UNL     1      17.458  51.165  49.882  1.00  0.00     0.031 A 
HETATM    8  C   UNL     1      18.539  50.338  49.555  1.00  0.00     0.061 A 
HETATM    9  C   UNL     1      19.062  49.356  50.520  1.00  0.00     0.259 A 
HETATM   10  O   UNL     1      18.636  49.277  51.665  1.00  0.00    -0.267 OA
HETATM   11  N   UNL     1      20.051  48.538  50.046  1.00  0.00    -0.309 N 
HETATM   12  H   UNL     1      20.483  47.918  50.717  1.00  0.00     0.170 HD
ENDROOT
BRANCH   1  13
HETATM   13  C   UNL     1      21.677  47.629  48.414  1.00  0.00     0.187 C 
BRANCH  13  14
HETATM   14  N   UNL     1      21.510  47.085  47.069  1.00  0.00    -0.344 N 
HETATM   15  C   UNL     1      21.924  45.855  46.635  1.00  0.00     0.247 C 
HETATM   16  O   UNL     1      22.059  45.682  45.421  1.00  0.00    -0.272 OA
HETATM   17  H   UNL     1      21.519  47.746  46.301  1.00  0.00     0.163 HD
BRANCH  15  18
HETATM   18  C   UNL     1      22.166  44.725  47.640  1.00  0.00     0.373 C 
BRANCH  18  19
HETATM   19  N   UNL     1      23.497  44.116  47.437  1.00  0.00     0.088 N 
HETATM   20  C   UNL     1      24.259  44.074  48.690  1.00  0.00     0.310 C 
HETATM   21  C   UNL     1      23.344  42.758  46.908  1.00  0.00     0.310 C 
ENDBRANCH  18  19
ENDBRANCH  15  18
ENDBRANCH  13  14
BRANCH  13  22
HETATM   22  C   UNL     1      23.058  48.255  48.595  1.00  0.00    -0.028 A 
HETATM   23  C   UNL     1      23.382  49.422  47.881  1.00  0.00     0.011 A 
HETATM   24  C   UNL     1      24.658  49.987  47.976  1.00  0.00     0.024 A 
HETATM   25  C   UNL     1      25.622  49.390  48.783  1.00  0.00     0.034 A 
HETATM   26 CL   UNL     1      27.193  50.080  48.894  1.00  0.00    -0.084 Cl
HETATM   27  C   UNL     1      25.324  48.228  49.491  1.00  0.00     0.024 A 
HETATM   28  C   UNL     1      24.051  47.659  49.394  1.00  0.00     0.011 A 
ENDBRANCH  13  22
ENDBRANCH   1  13
BRANCH   6  29
HETATM   29  C   UNL     1      15.822  52.916  49.230  1.00  0.00     0.010 A 
HETATM   30  C   UNL     1      14.841  53.477  48.379  1.00  0.00     0.152 A 
HETATM   31  N   UNL     1      13.910  54.166  49.045  1.00  0.00    -0.187 NA
HETATM   32  N   UNL     1      14.289  54.046  50.328  1.00  0.00    -0.289 N 
HETATM   33  H   UNL     1      13.719  54.488  51.042  1.00  0.00     0.188 HD
HETATM   34  C   UNL     1      15.425  53.306  50.492  1.00  0.00     0.123 A 
ENDBRANCH   6  29
TORSDOF 6
ENDMDL
MODEL 6
REMARK VINA RESULT:      -8.2      6.952     11.094
REMARK  6 active torsions:
REMARK  status: ('A' for Active; 'I' for Inactive)
REMARK    1  A    between atoms: N_2  and  C_4 
REMARK    2  A    between atoms: C_4  and  C_5 
REMARK       I    between atoms: C_5  and  N_7 
REMARK    3  A    between atoms: N_7  and  C_8 
REMARK    4  A    between atoms: C_8  and  C_9 
REMARK    5  A    between atoms: C_8  and  C_26 
REMARK    6  A    between atoms: C_14  and  C_20 
ROOT
HETATM    1  C   UNL     1      20.546  48.729  48.868  1.00  0.00     0.135 A 
HETATM    2  N   UNL     1      20.203  49.749  48.142  1.00  0.00    -0.232 NA
HETATM    3  C   UNL     1      19.172  50.574  48.620  1.00  0.00     0.074 A 
HETATM    4  C   UNL     1      18.761  51.654  47.840  1.00  0.00     0.033 A 
HETATM    5  C   UNL     1      17.700  52.469  48.254  1.00  0.00     0.014 A 
HETATM    6  C   UNL     1      17.029  52.214  49.459  1.00  0.00    -0.022 A 
HETATM    7  C   UNL     1      17.455  51.146  50.257  1.00  0.00     0.031 A 
HETATM    8  C   UNL     1      18.517  50.339  49.830  1.00  0.00     0.061 A 
HETATM    9  C   UNL     1      18.976  49.198  50.639  1.00  0.00     0.259 A 
HETATM   10  O   UNL     1      18.512  48.955  51.746  1.00  0.00    -0.267 OA
HETATM   11  N   UNL     1      19.950  48.427  50.066  1.00  0.00    -0.309 N 
HETATM   12  H   UNL     1      20.340  47.693  50.641  1.00  0.00     0.170 HD
ENDROOT
BRANCH   1  13
HETATM   13  C   UNL     1      21.594  47.725  48.352  1.00  0.00     0.187 C 
BRANCH  13  14
HETATM   14  N   UNL     1      21.381  47.319  46.966  1.00  0.00    -0.344 N 
HETATM   15  C   UNL     1      20.689  46.216  46.542  1.00  0.00     0.247 C 
HETATM   16  O   UNL     1      20.904  45.798  45.403  1.00  0.00    -0.272 OA
HETATM   17  H   UNL     1      22.111  47.548  46.301  1.00  0.00     0.163 HD
BRANCH  15  18
HETATM   18  C   UNL     1      19.647  45.563  47.455  1.00  0.00     0.373 C 
BRANCH  18  19
HETATM   19  N   UNL     1      18.279  45.941  47.048  1.00  0.00     0.088 N 
HETATM   20  C   UNL     1      17.589  44.822  46.398  1.00  0.00     0.310 C 
HETATM   21  C   UNL     1      17.515  46.374  48.222  1.00  0.00     0.310 C 
ENDBRANCH  18  19
ENDBRANCH  15  18
ENDBRANCH  13  14
BRANCH  13  22
HETATM   22  C   UNL     1      22.987  48.318  48.551  1.00  0.00    -0.028 A 
HETATM   23  C   UNL     1      23.347  49.481  47.847  1.00  0.00     0.011 A 
HETATM   24  C   UNL     1      24.634  50.015  47.959  1.00  0.00     0.024 A 
HETATM   25  C   UNL     1      25.575  49.390  48.773  1.00  0.00     0.034 A 
HETATM   26 CL   UNL     1      27.161  50.042  48.905  1.00  0.00    -0.084 Cl
HETATM   27  C   UNL     1      25.242  48.232  49.471  1.00  0.00     0.024 A 
HETATM   28  C   UNL     1      23.957  47.694  49.357  1.00  0.00     0.011 A 
ENDBRANCH  13  22
ENDBRANCH   1  13
BRANCH   6  29
HETATM   29  C   UNL     1      15.901  53.039  49.851  1.00  0.00     0.010 A 
HETATM   30  C   UNL     1      14.566  52.698  50.172  1.00  0.00     0.152 A 
HETATM   31  N   UNL     1      13.832  53.756  50.526  1.00  0.00    -0.187 NA
HETATM   32  N   UNL     1      14.694  54.781  50.438  1.00  0.00    -0.289 N 
HETATM   33  H   UNL     1      14.363  55.711  50.673  1.00  0.00     0.188 HD
HETATM   34  C   UNL     1      15.945  54.405  50.040  1.00  0.00     0.123 A 
ENDBRANCH   6  29
TORSDOF 6
ENDMDL
MODEL 7
REMARK VINA RESULT:      -7.9     12.188     13.291
REMARK  6 active torsions:
REMARK  status: ('A' for Active; 'I' for Inactive)
REMARK    1  A    between atoms: N_2  and  C_4 
REMARK    2  A    between atoms: C_4  and  C_5 
REMARK       I    between atoms: C_5  and  N_7 
REMARK    3  A    between atoms: N_7  and  C_8 
REMARK    4  A    between atoms: C_8  and  C_9 
REMARK    5  A    between atoms: C_8  and  C_26 
REMARK    6  A    between atoms: C_14  and  C_20 
ROOT
HETATM    1  C   UNL     1      26.877  49.554  40.650  1.00  0.00     0.135 A 
HETATM    2  N   UNL     1      27.777  48.787  41.187  1.00  0.00    -0.232 NA
HETATM    3  C   UNL     1      28.949  49.393  41.667  1.00  0.00     0.074 A 
HETATM    4  C   UNL     1      29.946  48.587  42.215  1.00  0.00     0.033 A 
HETATM    5  C   UNL     1      31.152  49.145  42.655  1.00  0.00     0.014 A 
HETATM    6  C   UNL     1      31.384  50.524  42.551  1.00  0.00    -0.022 A 
HETATM    7  C   UNL     1      30.376  51.340  42.025  1.00  0.00     0.031 A 
HETATM    8  C   UNL     1      29.175  50.769  41.588  1.00  0.00     0.061 A 
HETATM    9  C   UNL     1      28.104  51.600  41.014  1.00  0.00     0.259 A 
HETATM   10  O   UNL     1      28.179  52.821  40.968  1.00  0.00    -0.267 OA
HETATM   11  N   UNL     1      27.023  50.913  40.531  1.00  0.00    -0.309 N 
HETATM   12  H   UNL     1      26.242  51.468  40.214  1.00  0.00     0.170 HD
ENDROOT
BRANCH   1  13
HETATM   13  C   UNL     1      25.617  48.942  40.010  1.00  0.00     0.187 C 
BRANCH  13  14
HETATM   14  N   UNL     1      24.826  49.903  39.245  1.00  0.00    -0.344 N 
HETATM   15  C   UNL     1      23.484  49.824  38.987  1.00  0.00     0.247 C 
HETATM   16  O   UNL     1      23.035  50.476  38.042  1.00  0.00    -0.272 OA
HETATM   17  H   UNL     1      25.297  50.392  38.493  1.00  0.00     0.163 HD
BRANCH  15  18
HETATM   18  C   UNL     1      22.575  48.981  39.886  1.00  0.00     0.373 C 
BRANCH  18  19
HETATM   19  N   UNL     1      21.244  49.607  40.023  1.00  0.00     0.088 N 
HETATM   20  C   UNL     1      20.286  48.688  40.649  1.00  0.00     0.310 C 
HETATM   21  C   UNL     1      21.351  50.828  40.827  1.00  0.00     0.310 C 
ENDBRANCH  18  19
ENDBRANCH  15  18
ENDBRANCH  13  14
BRANCH  13  22
HETATM   22  C   UNL     1      26.028  47.749  39.150  1.00  0.00    -0.028 A 
HETATM   23  C   UNL     1      25.720  46.448  39.587  1.00  0.00     0.011 A 
HETATM   24  C   UNL     1      26.135  45.332  38.855  1.00  0.00     0.024 A 
HETATM   25  C   UNL     1      26.863  45.504  37.681  1.00  0.00     0.034 A 
HETATM   26 CL   UNL     1      27.379  44.131  36.784  1.00  0.00    -0.084 Cl
HETATM   27  C   UNL     1      27.186  46.783  37.235  1.00  0.00     0.024 A 
HETATM   28  C   UNL     1      26.776  47.901  37.968  1.00  0.00     0.011 A 
ENDBRANCH  13  22
ENDBRANCH   1  13
BRANCH   6  29
HETATM   29  C   UNL     1      32.659  51.080  42.967  1.00  0.00     0.010 A 
HETATM   30  C   UNL     1      33.887  51.208  42.278  1.00  0.00     0.152 A 
HETATM   31  N   UNL     1      34.827  51.820  43.003  1.00  0.00    -0.187 NA
HETATM   32  N   UNL     1      34.203  52.092  44.161  1.00  0.00    -0.289 N 
HETATM   33  H   UNL     1      34.723  52.574  44.886  1.00  0.00     0.188 HD
HETATM   34  C   UNL     1      32.905  51.671  44.189  1.00  0.00     0.123 A 
ENDBRANCH   6  29
TORSDOF 6
ENDMDL
MODEL 8
REMARK VINA RESULT:      -7.9      3.165      4.882
REMARK  6 active torsions:
REMARK  status: ('A' for Active; 'I' for Inactive)
REMARK    1  A    between atoms: N_2  and  C_4 
REMARK    2  A    between atoms: C_4  and  C_5 
REMARK       I    between atoms: C_5  and  N_7 
REMARK    3  A    between atoms: N_7  and  C_8 
REMARK    4  A    between atoms: C_8  and  C_9 
REMARK    5  A    between atoms: C_8  and  C_26 
REMARK    6  A    between atoms: C_14  and  C_20 
ROOT
HETATM    1  C   UNL     1      22.693  45.860  49.106  1.00  0.00     0.135 A 
HETATM    2  N   UNL     1      23.542  46.761  49.497  1.00  0.00    -0.232 NA
HETATM    3  C   UNL     1      24.476  46.395  50.480  1.00  0.00     0.074 A 
HETATM    4  C   UNL     1      25.374  47.355  50.942  1.00  0.00     0.033 A 
HETATM    5  C   UNL     1      26.285  47.047  51.960  1.00  0.00     0.014 A 
HETATM    6  C   UNL     1      26.311  45.769  52.537  1.00  0.00    -0.022 A 
HETATM    7  C   UNL     1      25.428  44.794  52.057  1.00  0.00     0.031 A 
HETATM    8  C   UNL     1      24.522  45.117  51.039  1.00  0.00     0.061 A 
HETATM    9  C   UNL     1      23.569  44.118  50.528  1.00  0.00     0.259 A 
HETATM   10  O   UNL     1      23.579  42.953  50.905  1.00  0.00    -0.267 OA
HETATM   11  N   UNL     1      22.669  44.583  49.608  1.00  0.00    -0.309 N 
HETATM   12  H   UNL     1      22.065  43.895  49.181  1.00  0.00     0.170 HD
ENDROOT
BRANCH   1  13
HETATM   13  C   UNL     1      21.576  46.225  48.110  1.00  0.00     0.187 C 
BRANCH  13  14
HETATM   14  N   UNL     1      20.413  45.346  48.190  1.00  0.00    -0.344 N 
HETATM   15  C   UNL     1      19.954  44.517  47.202  1.00  0.00     0.247 C 
HETATM   16  O   UNL     1      18.784  44.133  47.263  1.00  0.00    -0.272 OA
HETATM   17  H   UNL     1      19.641  45.654  48.771  1.00  0.00     0.163 HD
BRANCH  15  18
HETATM   18  C   UNL     1      20.895  44.054  46.086  1.00  0.00     0.373 C 
BRANCH  18  19
HETATM   19  N   UNL     1      21.756  42.947  46.549  1.00  0.00     0.088 N 
HETATM   20  C   UNL     1      21.327  41.666  45.978  1.00  0.00     0.310 C 
HETATM   21  C   UNL     1      23.148  43.211  46.172  1.00  0.00     0.310 C 
ENDBRANCH  18  19
ENDBRANCH  15  18
ENDBRANCH  13  14
BRANCH  13  22
HETATM   22  C   UNL     1      21.186  47.687  48.317  1.00  0.00    -0.028 A 
HETATM   23  C   UNL     1      20.059  47.993  49.100  1.00  0.00     0.011 A 
HETATM   24  C   UNL     1      19.638  49.317  49.260  1.00  0.00     0.024 A 
HETATM   25  C   UNL     1      20.337  50.346  48.637  1.00  0.00     0.034 A 
HETATM   26 CL   UNL     1      19.816  51.974  48.827  1.00  0.00    -0.084 Cl
HETATM   27  C   UNL     1      21.451  50.064  47.849  1.00  0.00     0.024 A 
HETATM   28  C   UNL     1      21.871  48.741  47.685  1.00  0.00     0.011 A 
ENDBRANCH  13  22
ENDBRANCH   1  13
BRANCH   6  29
HETATM   29  C   UNL     1      27.229  45.480  53.623  1.00  0.00     0.010 A 
HETATM   30  C   UNL     1      27.473  46.159  54.840  1.00  0.00     0.152 A 
HETATM   31  N   UNL     1      28.381  45.545  55.603  1.00  0.00    -0.187 NA
HETATM   32  N   UNL     1      28.721  44.465  54.880  1.00  0.00    -0.289 N 
HETATM   33  H   UNL     1      29.406  43.824  55.265  1.00  0.00     0.188 HD
HETATM   34  C   UNL     1      28.058  44.380  53.689  1.00  0.00     0.123 A 
ENDBRANCH   6  29
TORSDOF 6
ENDMDL
MODEL 9
REMARK VINA RESULT:      -7.8      4.265      6.802
REMARK  6 active torsions:
REMARK  status: ('A' for Active; 'I' for Inactive)
REMARK    1  A    between atoms: N_2  and  C_4 
REMARK    2  A    between atoms: C_4  and  C_5 
REMARK       I    between atoms: C_5  and  N_7 
REMARK    3  A    between atoms: N_7  and  C_8 
REMARK    4  A    between atoms: C_8  and  C_9 
REMARK    5  A    between atoms: C_8  and  C_26 
REMARK    6  A    between atoms: C_14  and  C_20 
ROOT
HETATM    1  C   UNL     1      23.210  46.116  49.263  1.00  0.00     0.135 A 
HETATM    2  N   UNL     1      24.501  46.245  49.312  1.00  0.00    -0.232 NA
HETATM    3  C   UNL     1      25.247  45.167  49.816  1.00  0.00     0.074 A 
HETATM    4  C   UNL     1      26.631  45.295  49.913  1.00  0.00     0.033 A 
HETATM    5  C   UNL     1      27.406  44.265  50.460  1.00  0.00     0.014 A 
HETATM    6  C   UNL     1      26.806  43.086  50.923  1.00  0.00    -0.022 A 
HETATM    7  C   UNL     1      25.419  42.942  50.804  1.00  0.00     0.031 A 
HETATM    8  C   UNL     1      24.656  43.981  50.255  1.00  0.00     0.061 A 
HETATM    9  C   UNL     1      23.193  43.865  50.134  1.00  0.00     0.259 A 
HETATM   10  O   UNL     1      22.593  42.839  50.426  1.00  0.00    -0.267 OA
HETATM   11  N   UNL     1      22.553  44.985  49.678  1.00  0.00    -0.309 N 
HETATM   12  H   UNL     1      21.562  44.898  49.505  1.00  0.00     0.170 HD
ENDROOT
BRANCH   1  13
HETATM   13  C   UNL     1      22.327  47.298  48.822  1.00  0.00     0.187 C 
BRANCH  13  14
HETATM   14  N   UNL     1      23.059  48.335  48.099  1.00  0.00    -0.344 N 
HETATM   15  C   UNL     1      22.795  49.678  48.121  1.00  0.00     0.247 C 
HETATM   16  O   UNL     1      23.231  50.371  47.199  1.00  0.00    -0.272 OA
HETATM   17  H   UNL     1      23.466  48.076  47.207  1.00  0.00     0.163 HD
BRANCH  15  18
HETATM   18  C   UNL     1      22.018  50.291  49.290  1.00  0.00     0.373 C 
BRANCH  18  19
HETATM   19  N   UNL     1      20.577  50.375  48.977  1.00  0.00     0.088 N 
HETATM   20  C   UNL     1      19.759  50.003  50.136  1.00  0.00     0.310 C 
HETATM   21  C   UNL     1      20.241  51.738  48.555  1.00  0.00     0.310 C 
ENDBRANCH  18  19
ENDBRANCH  15  18
ENDBRANCH  13  14
BRANCH  13  22
HETATM   22  C   UNL     1      21.159  46.763  47.998  1.00  0.00    -0.028 A 
HETATM   23  C   UNL     1      21.375  46.388  46.660  1.00  0.00     0.011 A 
HETATM   24  C   UNL     1      20.315  45.952  45.860  1.00  0.00     0.024 A 
HETATM   25  C   UNL     1      19.028  45.890  46.388  1.00  0.00     0.034 A 
HETATM   26 CL   UNL     1      17.723  45.360  45.402  1.00  0.00    -0.084 Cl
HETATM   27  C   UNL     1      18.790  46.266  47.707  1.00  0.00     0.024 A 
HETATM   28  C   UNL     1      19.848  46.707  48.508  1.00  0.00     0.011 A 
ENDBRANCH  13  22
ENDBRANCH   1  13
BRANCH   6  29
HETATM   29  C   UNL     1      27.618  42.047  51.531  1.00  0.00     0.010 A 
HETATM   30  C   UNL     1      28.032  41.855  52.870  1.00  0.00     0.152 A 
HETATM   31  N   UNL     1      28.749  40.740  53.035  1.00  0.00    -0.187 NA
HETATM   32  N   UNL     1      28.794  40.210  51.803  1.00  0.00    -0.289 N 
HETATM   33  H   UNL     1      29.289  39.334  51.673  1.00  0.00     0.188 HD
HETATM   34  C   UNL     1      28.132  40.952  50.868  1.00  0.00     0.123 A 
ENDBRANCH   6  29
TORSDOF 6
ENDMDL
MODEL 10
REMARK VINA RESULT:      -7.8     12.911     16.233
REMARK  6 active torsions:
REMARK  status: ('A' for Active; 'I' for Inactive)
REMARK    1  A    between atoms: N_2  and  C_4 
REMARK    2  A    between atoms: C_4  and  C_5 
REMARK       I    between atoms: C_5  and  N_7 
REMARK    3  A    between atoms: N_7  and  C_8 
REMARK    4  A    between atoms: C_8  and  C_9 
REMARK    5  A    between atoms: C_8  and  C_26 
REMARK    6  A    between atoms: C_14  and  C_20 
ROOT
HETATM    1  C   UNL     1      35.229  51.887  43.154  1.00  0.00     0.135 A 
HETATM    2  N   UNL     1      34.806  51.876  41.927  1.00  0.00    -0.232 NA
HETATM    3  C   UNL     1      33.420  51.798  41.715  1.00  0.00     0.074 A 
HETATM    4  C   UNL     1      32.943  51.748  40.406  1.00  0.00     0.033 A 
HETATM    5  C   UNL     1      31.573  51.615  40.151  1.00  0.00     0.014 A 
HETATM    6  C   UNL     1      30.653  51.525  41.205  1.00  0.00    -0.022 A 
HETATM    7  C   UNL     1      31.125  51.601  42.521  1.00  0.00     0.031 A 
HETATM    8  C   UNL     1      32.498  51.734  42.761  1.00  0.00     0.061 A 
HETATM    9  C   UNL     1      33.025  51.797  44.134  1.00  0.00     0.259 A 
HETATM   10  O   UNL     1      32.292  51.820  45.115  1.00  0.00    -0.267 OA
HETATM   11  N   UNL     1      34.389  51.824  44.238  1.00  0.00    -0.309 N 
HETATM   12  H   UNL     1      34.768  51.956  45.165  1.00  0.00     0.170 HD
ENDROOT
BRANCH   1  13
HETATM   13  C   UNL     1      36.739  51.865  43.456  1.00  0.00     0.187 C 
BRANCH  13  14
HETATM   14  N   UNL     1      37.546  51.343  42.357  1.00  0.00    -0.344 N 
HETATM   15  C   UNL     1      38.685  50.592  42.472  1.00  0.00     0.247 C 
HETATM   16  O   UNL     1      39.451  50.545  41.507  1.00  0.00    -0.272 OA
HETATM   17  H   UNL     1      37.578  51.894  41.506  1.00  0.00     0.163 HD
BRANCH  15  18
HETATM   18  C   UNL     1      38.961  49.804  43.756  1.00  0.00     0.373 C 
BRANCH  18  19
HETATM   19  N   UNL     1      40.286  50.149  44.311  1.00  0.00     0.088 N 
HETATM   20  C   UNL     1      40.206  51.323  45.187  1.00  0.00     0.310 C 
HETATM   21  C   UNL     1      40.820  49.010  45.062  1.00  0.00     0.310 C 
ENDBRANCH  18  19
ENDBRANCH  15  18
ENDBRANCH  13  14
BRANCH  13  22
HETATM   22  C   UNL     1      37.185  53.269  43.857  1.00  0.00    -0.028 A 
HETATM   23  C   UNL     1      37.560  54.183  42.857  1.00  0.00     0.011 A 
HETATM   24  C   UNL     1      38.031  55.456  43.193  1.00  0.00     0.024 A 
HETATM   25  C   UNL     1      38.135  55.826  44.531  1.00  0.00     0.034 A 
HETATM   26 CL   UNL     1      38.721  57.389  44.944  1.00  0.00    -0.084 Cl
HETATM   27  C   UNL     1      37.778  54.932  45.537  1.00  0.00     0.024 A 
HETATM   28  C   UNL     1      37.311  53.657  45.204  1.00  0.00     0.011 A 
ENDBRANCH  13  22
ENDBRANCH   1  13
BRANCH   6  29
HETATM   29  C   UNL     1      29.241  51.339  40.924  1.00  0.00     0.010 A 
HETATM   30  C   UNL     1      28.560  50.318  40.223  1.00  0.00     0.152 A 
HETATM   31  N   UNL     1      27.235  50.488  40.217  1.00  0.00    -0.187 NA
HETATM   32  N   UNL     1      27.061  51.619  40.919  1.00  0.00    -0.289 N 
HETATM   33  H   UNL     1      26.115  51.957  41.062  1.00  0.00     0.188 HD
HETATM   34  C   UNL     1      28.229  52.166  41.366  1.00  0.00     0.123 A 
ENDBRANCH   6  29
TORSDOF 6
ENDMDL
