MODEL 1
REMARK VINA RESULT:      -9.3      0.000      0.000
REMARK  2 active torsions:
REMARK  status: ('A' for Active; 'I' for Inactive)
REMARK    1  A    between atoms: C_3  and  C_4 
REMARK       I    between atoms: C_4  and  N_5 
REMARK    2  A    between atoms: N_5  and  N_6 
ROOT
HETATM    1  N   UNL     1      27.868  42.489  53.027  1.00  0.00    -0.282 N 
HETATM    2  C   UNL     1      27.096  43.012  52.080  1.00  0.00     0.127 C 
HETATM    3  C   UNL     1      26.683  42.163  50.933  1.00  0.00     0.015 A 
HETATM    4  C   UNL     1      26.274  42.788  49.739  1.00  0.00    -0.042 A 
HETATM    5  C   UNL     1      25.918  42.024  48.620  1.00  0.00     0.008 A 
HETATM    6  C   UNL     1      25.923  40.634  48.696  1.00  0.00     0.001 A 
HETATM    7  C   UNL     1      26.283  40.003  49.883  1.00  0.00     0.001 A 
HETATM    8  C   UNL     1      26.658  40.759  50.996  1.00  0.00     0.016 A 
HETATM    9  C   UNL     1      26.259  44.294  49.673  1.00  0.00     0.069 C 
HETATM   10  C   UNL     1      25.887  44.911  51.038  1.00  0.00     0.028 C 
HETATM   11  C   UNL     1      26.218  46.408  51.032  1.00  0.00     0.038 C 
HETATM   12  C   UNL     1      24.410  44.712  51.391  1.00  0.00     0.038 C 
HETATM   13  N   UNL     1      26.706  44.285  52.113  1.00  0.00    -0.366 N 
HETATM   14  H   UNL     1      27.012  44.859  52.881  1.00  0.00     0.162 HD
HETATM   15  H   UNL     1      28.242  41.547  52.857  1.00  0.00     0.188 HD
ENDROOT
BRANCH   1  16
HETATM   16  N   UNL     1      28.273  43.058  54.159  1.00  0.00    -0.264 N 
HETATM   17  C   UNL     1      29.623  43.373  54.214  1.00  0.00     0.270 C 
HETATM   18  O   UNL     1      30.367  43.117  53.269  1.00  0.00    -0.266 OA
HETATM   19  H   UNL     1      27.679  43.135  54.976  1.00  0.00     0.190 HD
BRANCH  17  20
HETATM   20  C   UNL     1      30.126  43.963  55.478  1.00  0.00     0.039 A 
HETATM   21  C   UNL     1      29.745  45.234  55.954  1.00  0.00    -0.046 A 
HETATM   22  C   UNL     1      28.841  46.173  55.206  1.00  0.00     0.049 C 
HETATM   23  C   UNL     1      30.256  45.661  57.192  1.00  0.00     0.007 A 
HETATM   24  C   UNL     1      31.154  44.869  57.912  1.00  0.00     0.001 A 
HETATM   25  C   UNL     1      31.559  43.637  57.409  1.00  0.00     0.001 A 
HETATM   26  C   UNL     1      31.047  43.184  56.194  1.00  0.00     0.017 A 
ENDBRANCH  17  20
ENDBRANCH   1  16
TORSDOF 2
ENDMDL
MODEL 2
REMARK VINA RESULT:      -9.1      1.965      2.680
REMARK  2 active torsions:
REMARK  status: ('A' for Active; 'I' for Inactive)
REMARK    1  A    between atoms: C_3  and  C_4 
REMARK       I    between atoms: C_4  and  N_5 
REMARK    2  A    between atoms: N_5  and  N_6 
ROOT
HETATM    1  N   UNL     1      29.080  41.042  52.476  1.00  0.00    -0.282 N 
HETATM    2  C   UNL     1      28.359  41.012  51.360  1.00  0.00     0.127 C 
HETATM    3  C   UNL     1      28.605  39.934  50.369  1.00  0.00     0.015 A 
HETATM    4  C   UNL     1      28.203  40.136  49.034  1.00  0.00    -0.042 A 
HETATM    5  C   UNL     1      28.456  39.163  48.058  1.00  0.00     0.008 A 
HETATM    6  C   UNL     1      29.070  37.965  48.413  1.00  0.00     0.001 A 
HETATM    7  C   UNL     1      29.433  37.734  49.736  1.00  0.00     0.001 A 
HETATM    8  C   UNL     1      29.202  38.708  50.710  1.00  0.00     0.016 A 
HETATM    9  C   UNL     1      27.527  41.432  48.664  1.00  0.00     0.069 C 
HETATM   10  C   UNL     1      26.657  41.961  49.825  1.00  0.00     0.028 C 
HETATM   11  C   UNL     1      26.274  43.421  49.556  1.00  0.00     0.038 C 
HETATM   12  C   UNL     1      25.389  41.127  50.037  1.00  0.00     0.038 C 
HETATM   13  N   UNL     1      27.440  41.938  51.091  1.00  0.00    -0.366 N 
HETATM   14  H   UNL     1      27.298  42.679  51.758  1.00  0.00     0.162 HD
HETATM   15  H   UNL     1      29.862  40.379  52.544  1.00  0.00     0.188 HD
ENDROOT
BRANCH   1  16
HETATM   16  N   UNL     1      28.955  41.870  53.510  1.00  0.00    -0.264 N 
HETATM   17  C   UNL     1      29.790  42.977  53.486  1.00  0.00     0.270 C 
HETATM   18  O   UNL     1      30.589  43.143  52.566  1.00  0.00    -0.266 OA
HETATM   19  H   UNL     1      28.394  41.648  54.323  1.00  0.00     0.190 HD
BRANCH  17  20
HETATM   20  C   UNL     1      29.718  43.899  54.645  1.00  0.00     0.039 A 
HETATM   21  C   UNL     1      28.696  44.854  54.823  1.00  0.00    -0.046 A 
HETATM   22  C   UNL     1      27.597  45.101  53.827  1.00  0.00     0.049 C 
HETATM   23  C   UNL     1      28.714  45.638  55.989  1.00  0.00     0.007 A 
HETATM   24  C   UNL     1      29.741  45.510  56.927  1.00  0.00     0.001 A 
HETATM   25  C   UNL     1      30.770  44.597  56.717  1.00  0.00     0.001 A 
HETATM   26  C   UNL     1      30.760  43.794  55.579  1.00  0.00     0.017 A 
ENDBRANCH  17  20
ENDBRANCH   1  16
TORSDOF 2
ENDMDL
MODEL 3
REMARK VINA RESULT:      -9.0      1.490      3.603
REMARK  2 active torsions:
REMARK  status: ('A' for Active; 'I' for Inactive)
REMARK    1  A    between atoms: C_3  and  C_4 
REMARK       I    between atoms: C_4  and  N_5 
REMARK    2  A    between atoms: N_5  and  N_6 
ROOT
HETATM    1  N   UNL     1      26.962  45.127  53.402  1.00  0.00    -0.282 N 
HETATM    2  C   UNL     1      26.491  44.547  52.303  1.00  0.00     0.127 C 
HETATM    3  C   UNL     1      25.609  45.326  51.396  1.00  0.00     0.015 A 
HETATM    4  C   UNL     1      24.760  44.629  50.513  1.00  0.00    -0.042 A 
HETATM    5  C   UNL     1      23.882  45.325  49.672  1.00  0.00     0.008 A 
HETATM    6  C   UNL     1      23.874  46.717  49.671  1.00  0.00     0.001 A 
HETATM    7  C   UNL     1      24.739  47.418  50.506  1.00  0.00     0.001 A 
HETATM    8  C   UNL     1      25.602  46.731  51.362  1.00  0.00     0.016 A 
HETATM    9  C   UNL     1      24.787  43.122  50.513  1.00  0.00     0.069 C 
HETATM   10  C   UNL     1      26.204  42.587  50.810  1.00  0.00     0.028 C 
HETATM   11  C   UNL     1      26.129  41.093  51.145  1.00  0.00     0.038 C 
HETATM   12  C   UNL     1      27.171  42.804  49.642  1.00  0.00     0.038 C 
HETATM   13  N   UNL     1      26.763  43.278  52.005  1.00  0.00    -0.366 N 
HETATM   14  H   UNL     1      27.340  42.751  52.639  1.00  0.00     0.162 HD
HETATM   15  H   UNL     1      26.593  46.058  53.633  1.00  0.00     0.188 HD
ENDROOT
BRANCH   1  16
HETATM   16  N   UNL     1      27.820  44.628  54.288  1.00  0.00    -0.264 N 
HETATM   17  C   UNL     1      28.604  45.564  54.945  1.00  0.00     0.270 C 
HETATM   18  O   UNL     1      28.498  46.763  54.691  1.00  0.00    -0.266 OA
HETATM   19  H   UNL     1      27.990  43.634  54.384  1.00  0.00     0.190 HD
BRANCH  17  20
HETATM   20  C   UNL     1      29.609  45.046  55.904  1.00  0.00     0.039 A 
HETATM   21  C   UNL     1      30.466  43.960  55.630  1.00  0.00    -0.046 A 
HETATM   22  C   UNL     1      30.417  43.155  54.361  1.00  0.00     0.049 C 
HETATM   23  C   UNL     1      31.409  43.594  56.605  1.00  0.00     0.007 A 
HETATM   24  C   UNL     1      31.467  44.254  57.834  1.00  0.00     0.001 A 
HETATM   25  C   UNL     1      30.584  45.293  58.112  1.00  0.00     0.001 A 
HETATM   26  C   UNL     1      29.656  45.688  57.150  1.00  0.00     0.017 A 
ENDBRANCH  17  20
ENDBRANCH   1  16
TORSDOF 2
ENDMDL
MODEL 4
REMARK VINA RESULT:      -9.0      2.437      4.458
REMARK  2 active torsions:
REMARK  status: ('A' for Active; 'I' for Inactive)
REMARK    1  A    between atoms: C_3  and  C_4 
REMARK       I    between atoms: C_4  and  N_5 
REMARK    2  A    between atoms: N_5  and  N_6 
ROOT
HETATM    1  N   UNL     1      28.002  41.394  51.057  1.00  0.00    -0.282 N 
HETATM    2  C   UNL     1      28.186  40.214  50.475  1.00  0.00     0.127 C 
HETATM    3  C   UNL     1      27.309  39.821  49.343  1.00  0.00     0.015 A 
HETATM    4  C   UNL     1      27.179  38.454  49.027  1.00  0.00    -0.042 A 
HETATM    5  C   UNL     1      26.329  38.038  47.995  1.00  0.00     0.008 A 
HETATM    6  C   UNL     1      25.636  38.981  47.241  1.00  0.00     0.001 A 
HETATM    7  C   UNL     1      25.788  40.338  47.513  1.00  0.00     0.001 A 
HETATM    8  C   UNL     1      26.619  40.758  48.554  1.00  0.00     0.016 A 
HETATM    9  C   UNL     1      27.946  37.443  49.841  1.00  0.00     0.069 C 
HETATM   10  C   UNL     1      29.307  38.007  50.300  1.00  0.00     0.028 C 
HETATM   11  C   UNL     1      29.894  37.108  51.394  1.00  0.00     0.038 C 
HETATM   12  C   UNL     1      30.308  38.136  49.148  1.00  0.00     0.038 C 
HETATM   13  N   UNL     1      29.116  39.359  50.897  1.00  0.00    -0.366 N 
HETATM   14  H   UNL     1      29.688  39.623  51.681  1.00  0.00     0.162 HD
HETATM   15  H   UNL     1      27.176  41.933  50.768  1.00  0.00     0.188 HD
ENDROOT
BRANCH   1  16
HETATM   16  N   UNL     1      28.728  41.953  52.021  1.00  0.00    -0.264 N 
HETATM   17  C   UNL     1      28.029  42.791  52.878  1.00  0.00     0.270 C 
HETATM   18  O   UNL     1      26.826  42.993  52.718  1.00  0.00    -0.266 OA
HETATM   19  H   UNL     1      29.738  41.886  52.055  1.00  0.00     0.190 HD
BRANCH  17  20
HETATM   20  C   UNL     1      28.810  43.475  53.937  1.00  0.00     0.039 A 
HETATM   21  C   UNL     1      28.461  44.727  54.483  1.00  0.00    -0.046 A 
HETATM   22  C   UNL     1      27.296  45.551  54.010  1.00  0.00     0.049 C 
HETATM   23  C   UNL     1      29.259  45.247  55.516  1.00  0.00     0.007 A 
HETATM   24  C   UNL     1      30.396  44.568  55.960  1.00  0.00     0.001 A 
HETATM   25  C   UNL     1      30.756  43.356  55.381  1.00  0.00     0.001 A 
HETATM   26  C   UNL     1      29.967  42.810  54.371  1.00  0.00     0.017 A 
ENDBRANCH  17  20
ENDBRANCH   1  16
TORSDOF 2
ENDMDL
MODEL 5
REMARK VINA RESULT:      -8.5      2.136      7.306
REMARK  2 active torsions:
REMARK  status: ('A' for Active; 'I' for Inactive)
REMARK    1  A    between atoms: C_3  and  C_4 
REMARK       I    between atoms: C_4  and  N_5 
REMARK    2  A    between atoms: N_5  and  N_6 
ROOT
HETATM    1  N   UNL     1      27.313  40.913  52.193  1.00  0.00    -0.282 N 
HETATM    2  C   UNL     1      27.147  42.219  52.369  1.00  0.00     0.127 C 
HETATM    3  C   UNL     1      28.014  42.935  53.339  1.00  0.00     0.015 A 
HETATM    4  C   UNL     1      27.573  44.166  53.864  1.00  0.00    -0.042 A 
HETATM    5  C   UNL     1      28.341  44.851  54.814  1.00  0.00     0.008 A 
HETATM    6  C   UNL     1      29.573  44.340  55.214  1.00  0.00     0.001 A 
HETATM    7  C   UNL     1      30.041  43.148  54.671  1.00  0.00     0.001 A 
HETATM    8  C   UNL     1      29.271  42.449  53.739  1.00  0.00     0.016 A 
HETATM    9  C   UNL     1      26.244  44.716  53.413  1.00  0.00     0.069 C 
HETATM   10  C   UNL     1      25.959  44.355  51.940  1.00  0.00     0.028 C 
HETATM   11  C   UNL     1      24.482  44.617  51.623  1.00  0.00     0.038 C 
HETATM   12  C   UNL     1      26.842  45.136  50.961  1.00  0.00     0.038 C 
HETATM   13  N   UNL     1      26.204  42.902  51.721  1.00  0.00    -0.366 N 
HETATM   14  H   UNL     1      25.605  42.404  51.085  1.00  0.00     0.162 HD
HETATM   15  H   UNL     1      27.962  40.435  52.831  1.00  0.00     0.188 HD
ENDROOT
BRANCH   1  16
HETATM   16  N   UNL     1      26.697  40.119  51.322  1.00  0.00    -0.264 N 
HETATM   17  C   UNL     1      27.458  39.738  50.226  1.00  0.00     0.270 C 
HETATM   18  O   UNL     1      28.613  40.138  50.093  1.00  0.00    -0.266 OA
HETATM   19  H   UNL     1      25.707  39.912  51.376  1.00  0.00     0.190 HD
BRANCH  17  20
HETATM   20  C   UNL     1      26.791  38.894  49.205  1.00  0.00     0.039 A 
HETATM   21  C   UNL     1      26.088  39.412  48.099  1.00  0.00    -0.046 A 
HETATM   22  C   UNL     1      25.869  40.879  47.858  1.00  0.00     0.049 C 
HETATM   23  C   UNL     1      25.540  38.505  47.175  1.00  0.00     0.007 A 
HETATM   24  C   UNL     1      25.647  37.126  47.370  1.00  0.00     0.001 A 
HETATM   25  C   UNL     1      26.303  36.627  48.491  1.00  0.00     0.001 A 
HETATM   26  C   UNL     1      26.873  37.508  49.408  1.00  0.00     0.017 A 
ENDBRANCH  17  20
ENDBRANCH   1  16
TORSDOF 2
ENDMDL
MODEL 6
REMARK VINA RESULT:      -8.5      2.318      7.510
REMARK  2 active torsions:
REMARK  status: ('A' for Active; 'I' for Inactive)
REMARK    1  A    between atoms: C_3  and  C_4 
REMARK       I    between atoms: C_4  and  N_5 
REMARK    2  A    between atoms: N_5  and  N_6 
ROOT
HETATM    1  N   UNL     1      26.619  45.271  52.824  1.00  0.00    -0.282 N 
HETATM    2  C   UNL     1      27.428  44.242  53.054  1.00  0.00     0.127 C 
HETATM    3  C   UNL     1      28.488  44.371  54.086  1.00  0.00     0.015 A 
HETATM    4  C   UNL     1      29.601  43.509  54.028  1.00  0.00    -0.042 A 
HETATM    5  C   UNL     1      30.643  43.627  54.956  1.00  0.00     0.008 A 
HETATM    6  C   UNL     1      30.565  44.572  55.974  1.00  0.00     0.001 A 
HETATM    7  C   UNL     1      29.452  45.402  56.071  1.00  0.00     0.001 A 
HETATM    8  C   UNL     1      28.418  45.303  55.136  1.00  0.00     0.016 A 
HETATM    9  C   UNL     1      29.667  42.479  52.928  1.00  0.00     0.069 C 
HETATM   10  C   UNL     1      28.262  41.957  52.563  1.00  0.00     0.028 C 
HETATM   11  C   UNL     1      28.326  41.194  51.235  1.00  0.00     0.038 C 
HETATM   12  C   UNL     1      27.670  41.053  53.649  1.00  0.00     0.038 C 
HETATM   13  N   UNL     1      27.334  43.106  52.366  1.00  0.00    -0.366 N 
HETATM   14  H   UNL     1      26.629  43.037  51.650  1.00  0.00     0.162 HD
HETATM   15  H   UNL     1      26.846  46.156  53.295  1.00  0.00     0.188 HD
ENDROOT
BRANCH   1  16
HETATM   16  N   UNL     1      25.571  45.322  52.008  1.00  0.00    -0.264 N 
HETATM   17  C   UNL     1      25.779  46.005  50.818  1.00  0.00     0.270 C 
HETATM   18  O   UNL     1      26.865  46.528  50.575  1.00  0.00    -0.266 OA
HETATM   19  H   UNL     1      24.648  45.007  52.282  1.00  0.00     0.190 HD
BRANCH  17  20
HETATM   20  C   UNL     1      24.620  46.128  49.901  1.00  0.00     0.039 A 
HETATM   21  C   UNL     1      24.123  45.064  49.121  1.00  0.00    -0.046 A 
HETATM   22  C   UNL     1      24.748  43.698  49.072  1.00  0.00     0.049 C 
HETATM   23  C   UNL     1      22.988  45.297  48.325  1.00  0.00     0.007 A 
HETATM   24  C   UNL     1      22.394  46.560  48.270  1.00  0.00     0.001 A 
HETATM   25  C   UNL     1      22.922  47.613  49.009  1.00  0.00     0.001 A 
HETATM   26  C   UNL     1      24.033  47.400  49.822  1.00  0.00     0.017 A 
ENDBRANCH  17  20
ENDBRANCH   1  16
TORSDOF 2
ENDMDL
MODEL 7
REMARK VINA RESULT:      -8.5      6.234     10.061
REMARK  2 active torsions:
REMARK  status: ('A' for Active; 'I' for Inactive)
REMARK    1  A    between atoms: C_3  and  C_4 
REMARK       I    between atoms: C_4  and  N_5 
REMARK    2  A    between atoms: N_5  and  N_6 
ROOT
HETATM    1  N   UNL     1      22.724  48.139  49.573  1.00  0.00    -0.282 N 
HETATM    2  C   UNL     1      23.037  46.857  49.416  1.00  0.00     0.127 C 
HETATM    3  C   UNL     1      24.380  46.383  49.835  1.00  0.00     0.015 A 
HETATM    4  C   UNL     1      24.884  45.191  49.279  1.00  0.00    -0.042 A 
HETATM    5  C   UNL     1      26.164  44.732  49.615  1.00  0.00     0.008 A 
HETATM    6  C   UNL     1      26.934  45.432  50.540  1.00  0.00     0.001 A 
HETATM    7  C   UNL     1      26.432  46.588  51.131  1.00  0.00     0.001 A 
HETATM    8  C   UNL     1      25.164  47.061  50.785  1.00  0.00     0.016 A 
HETATM    9  C   UNL     1      24.035  44.434  48.289  1.00  0.00     0.069 C 
HETATM   10  C   UNL     1      22.535  44.560  48.625  1.00  0.00     0.028 C 
HETATM   11  C   UNL     1      21.699  44.087  47.430  1.00  0.00     0.038 C 
HETATM   12  C   UNL     1      22.143  43.763  49.874  1.00  0.00     0.038 C 
HETATM   13  N   UNL     1      22.190  45.989  48.865  1.00  0.00    -0.366 N 
HETATM   14  H   UNL     1      21.292  46.325  48.560  1.00  0.00     0.162 HD
HETATM   15  H   UNL     1      23.479  48.769  49.872  1.00  0.00     0.188 HD
ENDROOT
BRANCH   1  16
HETATM   16  N   UNL     1      21.558  48.732  49.336  1.00  0.00    -0.264 N 
HETATM   17  C   UNL     1      21.494  50.073  49.684  1.00  0.00     0.270 C 
HETATM   18  O   UNL     1      22.462  50.639  50.189  1.00  0.00    -0.266 OA
HETATM   19  H   UNL     1      20.732  48.220  49.050  1.00  0.00     0.190 HD
BRANCH  17  20
HETATM   20  C   UNL     1      20.195  50.760  49.483  1.00  0.00     0.039 A 
HETATM   21  C   UNL     1      19.006  50.396  50.147  1.00  0.00    -0.046 A 
HETATM   22  C   UNL     1      18.895  49.227  51.086  1.00  0.00     0.049 C 
HETATM   23  C   UNL     1      17.849  51.156  49.904  1.00  0.00     0.007 A 
HETATM   24  C   UNL     1      17.862  52.215  48.994  1.00  0.00     0.001 A 
HETATM   25  C   UNL     1      19.029  52.535  48.309  1.00  0.00     0.001 A 
HETATM   26  C   UNL     1      20.194  51.809  48.551  1.00  0.00     0.017 A 
ENDBRANCH  17  20
ENDBRANCH   1  16
TORSDOF 2
ENDMDL
MODEL 8
REMARK VINA RESULT:      -8.3      3.975      6.314
REMARK  2 active torsions:
REMARK  status: ('A' for Active; 'I' for Inactive)
REMARK    1  A    between atoms: C_3  and  C_4 
REMARK       I    between atoms: C_4  and  N_5 
REMARK    2  A    between atoms: N_5  and  N_6 
ROOT
HETATM    1  N   UNL     1      25.130  47.414  50.441  1.00  0.00    -0.282 N 
HETATM    2  C   UNL     1      24.088  47.214  49.642  1.00  0.00     0.127 C 
HETATM    3  C   UNL     1      23.491  48.370  48.927  1.00  0.00     0.015 A 
HETATM    4  C   UNL     1      22.165  48.270  48.463  1.00  0.00    -0.042 A 
HETATM    5  C   UNL     1      21.550  49.353  47.822  1.00  0.00     0.008 A 
HETATM    6  C   UNL     1      22.264  50.527  47.599  1.00  0.00     0.001 A 
HETATM    7  C   UNL     1      23.590  50.625  48.013  1.00  0.00     0.001 A 
HETATM    8  C   UNL     1      24.202  49.555  48.670  1.00  0.00     0.016 A 
HETATM    9  C   UNL     1      21.405  46.989  48.697  1.00  0.00     0.069 C 
HETATM   10  C   UNL     1      22.342  45.764  48.639  1.00  0.00     0.028 C 
HETATM   11  C   UNL     1      21.623  44.539  49.218  1.00  0.00     0.038 C 
HETATM   12  C   UNL     1      22.819  45.455  47.216  1.00  0.00     0.038 C 
HETATM   13  N   UNL     1      23.544  46.008  49.485  1.00  0.00    -0.366 N 
HETATM   14  H   UNL     1      23.939  45.235  49.993  1.00  0.00     0.162 HD
HETATM   15  H   UNL     1      25.401  48.390  50.618  1.00  0.00     0.188 HD
ENDROOT
BRANCH   1  16
HETATM   16  N   UNL     1      25.846  46.506  51.097  1.00  0.00    -0.264 N 
HETATM   17  C   UNL     1      25.897  46.673  52.474  1.00  0.00     0.270 C 
HETATM   18  O   UNL     1      25.322  47.616  53.014  1.00  0.00    -0.266 OA
HETATM   19  H   UNL     1      26.423  45.820  50.627  1.00  0.00     0.190 HD
BRANCH  17  20
HETATM   20  C   UNL     1      26.725  45.710  53.239  1.00  0.00     0.039 A 
HETATM   21  C   UNL     1      27.552  46.075  54.320  1.00  0.00    -0.046 A 
HETATM   22  C   UNL     1      27.747  47.492  54.784  1.00  0.00     0.049 C 
HETATM   23  C   UNL     1      28.253  45.061  54.994  1.00  0.00     0.007 A 
HETATM   24  C   UNL     1      28.172  43.730  54.577  1.00  0.00     0.001 A 
HETATM   25  C   UNL     1      27.389  43.389  53.478  1.00  0.00     0.001 A 
HETATM   26  C   UNL     1      26.668  44.376  52.809  1.00  0.00     0.017 A 
ENDBRANCH  17  20
ENDBRANCH   1  16
TORSDOF 2
ENDMDL
MODEL 9
REMARK VINA RESULT:      -8.1      4.363      6.863
REMARK  2 active torsions:
REMARK  status: ('A' for Active; 'I' for Inactive)
REMARK    1  A    between atoms: C_3  and  C_4 
REMARK       I    between atoms: C_4  and  N_5 
REMARK    2  A    between atoms: N_5  and  N_6 
ROOT
HETATM    1  N   UNL     1      24.399  47.143  50.338  1.00  0.00    -0.282 N 
HETATM    2  C   UNL     1      23.392  47.217  49.475  1.00  0.00     0.127 C 
HETATM    3  C   UNL     1      23.092  48.516  48.822  1.00  0.00     0.015 A 
HETATM    4  C   UNL     1      21.805  48.725  48.286  1.00  0.00    -0.042 A 
HETATM    5  C   UNL     1      21.468  49.952  47.701  1.00  0.00     0.008 A 
HETATM    6  C   UNL     1      22.420  50.963  47.605  1.00  0.00     0.001 A 
HETATM    7  C   UNL     1      23.708  50.756  48.091  1.00  0.00     0.001 A 
HETATM    8  C   UNL     1      24.044  49.542  48.694  1.00  0.00     0.016 A 
HETATM    9  C   UNL     1      20.787  47.618  48.383  1.00  0.00     0.069 C 
HETATM   10  C   UNL     1      21.456  46.231  48.277  1.00  0.00     0.028 C 
HETATM   11  C   UNL     1      20.466  45.148  48.723  1.00  0.00     0.038 C 
HETATM   12  C   UNL     1      21.951  45.923  46.860  1.00  0.00     0.038 C 
HETATM   13  N   UNL     1      22.624  46.164  49.198  1.00  0.00    -0.366 N 
HETATM   14  H   UNL     1      22.820  45.294  49.664  1.00  0.00     0.162 HD
HETATM   15  H   UNL     1      24.851  48.027  50.604  1.00  0.00     0.188 HD
ENDROOT
BRANCH   1  16
HETATM   16  N   UNL     1      24.870  46.064  50.958  1.00  0.00    -0.264 N 
HETATM   17  C   UNL     1      25.648  46.317  52.078  1.00  0.00     0.270 C 
HETATM   18  O   UNL     1      25.879  47.470  52.436  1.00  0.00    -0.266 OA
HETATM   19  H   UNL     1      24.785  45.132  50.572  1.00  0.00     0.190 HD
BRANCH  17  20
HETATM   20  C   UNL     1      26.234  45.143  52.769  1.00  0.00     0.039 A 
HETATM   21  C   UNL     1      27.144  44.252  52.164  1.00  0.00    -0.046 A 
HETATM   22  C   UNL     1      27.577  44.345  50.727  1.00  0.00     0.049 C 
HETATM   23  C   UNL     1      27.665  43.203  52.940  1.00  0.00     0.007 A 
HETATM   24  C   UNL     1      27.257  43.016  54.263  1.00  0.00     0.001 A 
HETATM   25  C   UNL     1      26.322  43.873  54.834  1.00  0.00     0.001 A 
HETATM   26  C   UNL     1      25.810  44.934  54.090  1.00  0.00     0.017 A 
ENDBRANCH  17  20
ENDBRANCH   1  16
TORSDOF 2
ENDMDL
MODEL 10
REMARK VINA RESULT:      -7.9     12.679     13.945
REMARK  2 active torsions:
REMARK  status: ('A' for Active; 'I' for Inactive)
REMARK    1  A    between atoms: C_3  and  C_4 
REMARK       I    between atoms: C_4  and  N_5 
REMARK    2  A    between atoms: N_5  and  N_6 
ROOT
HETATM    1  N   UNL     1      31.164  49.337  40.634  1.00  0.00    -0.282 N 
HETATM    2  C   UNL     1      29.980  49.832  40.290  1.00  0.00     0.127 C 
HETATM    3  C   UNL     1      28.851  48.900  40.041  1.00  0.00     0.015 A 
HETATM    4  C   UNL     1      27.765  49.344  39.261  1.00  0.00    -0.042 A 
HETATM    5  C   UNL     1      26.700  48.483  38.966  1.00  0.00     0.008 A 
HETATM    6  C   UNL     1      26.687  47.190  39.482  1.00  0.00     0.001 A 
HETATM    7  C   UNL     1      27.732  46.752  40.290  1.00  0.00     0.001 A 
HETATM    8  C   UNL     1      28.806  47.599  40.571  1.00  0.00     0.016 A 
HETATM    9  C   UNL     1      27.783  50.751  38.719  1.00  0.00     0.069 C 
HETATM   10  C   UNL     1      28.482  51.719  39.698  1.00  0.00     0.028 C 
HETATM   11  C   UNL     1      28.791  53.038  38.981  1.00  0.00     0.038 C 
HETATM   12  C   UNL     1      27.643  51.997  40.949  1.00  0.00     0.038 C 
HETATM   13  N   UNL     1      29.783  51.140  40.135  1.00  0.00    -0.366 N 
HETATM   14  H   UNL     1      30.560  51.762  40.281  1.00  0.00     0.162 HD
HETATM   15  H   UNL     1      31.272  48.316  40.594  1.00  0.00     0.188 HD
ENDROOT
BRANCH   1  16
HETATM   16  N   UNL     1      32.264  50.004  40.973  1.00  0.00    -0.264 N 
HETATM   17  C   UNL     1      32.527  50.059  42.334  1.00  0.00     0.270 C 
HETATM   18  O   UNL     1      31.768  49.529  43.143  1.00  0.00    -0.266 OA
HETATM   19  H   UNL     1      32.800  50.549  40.308  1.00  0.00     0.190 HD
BRANCH  17  20
HETATM   20  C   UNL     1      33.717  50.836  42.758  1.00  0.00     0.039 A 
HETATM   21  C   UNL     1      33.727  51.709  43.865  1.00  0.00    -0.046 A 
HETATM   22  C   UNL     1      32.518  52.010  44.706  1.00  0.00     0.049 C 
HETATM   23  C   UNL     1      34.933  52.353  44.193  1.00  0.00     0.007 A 
HETATM   24  C   UNL     1      36.080  52.172  43.417  1.00  0.00     0.001 A 
HETATM   25  C   UNL     1      36.044  51.345  42.299  1.00  0.00     0.001 A 
HETATM   26  C   UNL     1      34.866  50.679  41.969  1.00  0.00     0.017 A 
ENDBRANCH  17  20
ENDBRANCH   1  16
TORSDOF 2
ENDMDL
