MODEL 1
REMARK VINA RESULT:      -8.7      0.000      0.000
REMARK  9 active torsions:
REMARK  status: ('A' for Active; 'I' for Inactive)
REMARK    1  A    between atoms: C_2  and  N_3 
REMARK    2  A    between atoms: C_2  and  C_23 
REMARK       I    between atoms: N_3  and  C_4 
REMARK       I    between atoms: C_4  and  N_5 
REMARK    3  A    between atoms: N_5  and  C_6 
REMARK    4  A    between atoms: C_6  and  C_7 
REMARK    5  A    between atoms: C_7  and  N_8 
REMARK    6  A    between atoms: C_7  and  C_14 
REMARK    7  A    between atoms: C_15  and  O_16 
REMARK    8  A    between atoms: C_23  and  C_24 
REMARK    9  A    between atoms: C_27  and  O_28 
ROOT
HETATM    1  N   UNL     1      26.213  45.934  54.643  1.00  0.00    -0.339 N 
HETATM    2  C   UNL     1      25.857  46.314  53.384  1.00  0.00     0.316 C 
HETATM    3  N   UNL     1      25.176  45.313  52.730  1.00  0.00    -0.341 N 
HETATM    4  O   UNL     1      26.163  47.368  52.848  1.00  0.00    -0.248 OA
HETATM    5  H   UNL     1      26.071  44.966  54.888  1.00  0.00     0.164 HD
HETATM    6  H   UNL     1      24.603  44.765  53.359  1.00  0.00     0.164 HD
ENDROOT
BRANCH   3   7
HETATM    7  C   UNL     1      24.570  45.596  51.436  1.00  0.00     0.162 C 
BRANCH   7   8
HETATM    8  C   UNL     1      25.511  46.020  50.256  1.00  0.00     0.241 C 
BRANCH   8   9
HETATM    9  N   UNL     1      25.785  44.846  49.289  1.00  0.00    -0.061 N 
HETATM   10  H   UNL     1      26.103  45.246  48.402  1.00  0.00     0.280 HD
HETATM   11  C   UNL     1      24.574  43.973  48.976  1.00  0.00     0.236 C 
HETATM   12  C   UNL     1      25.000  42.551  49.298  1.00  0.00     0.029 C 
HETATM   13  C   UNL     1      26.502  42.571  49.165  1.00  0.00     0.029 C 
HETATM   14  C   UNL     1      26.864  43.898  49.789  1.00  0.00     0.236 C 
ENDBRANCH   8   9
BRANCH   8  15
HETATM   15  C   UNL     1      24.848  47.216  49.565  1.00  0.00     0.007 A 
HETATM   16  C   UNL     1      25.586  48.399  49.350  1.00  0.00     0.076 A 
HETATM   17  C   UNL     1      24.982  49.496  48.731  1.00  0.00     0.037 A 
HETATM   18  C   UNL     1      23.641  49.440  48.347  1.00  0.00     0.003 A 
HETATM   19  C   UNL     1      22.894  48.292  48.587  1.00  0.00     0.001 A 
HETATM   20  C   UNL     1      23.488  47.189  49.199  1.00  0.00     0.012 A 
BRANCH  16  21
HETATM   21  O   UNL     1      26.889  48.372  49.768  1.00  0.00    -0.355 OA
HETATM   22  C   UNL     1      27.817  49.194  49.062  1.00  0.00     0.210 C 
ENDBRANCH  16  21
ENDBRANCH   8  15
ENDBRANCH   7   8
ENDBRANCH   3   7
BRANCH   1  23
HETATM   23  C   UNL     1      27.138  46.688  55.495  1.00  0.00     0.086 C 
HETATM   24  C   UNL     1      26.716  48.153  55.626  1.00  0.00     0.032 C 
BRANCH  23  25
HETATM   25  C   UNL     1      28.615  46.584  55.046  1.00  0.00     0.063 C 
BRANCH  25  26
HETATM   26  C   UNL     1      29.529  45.630  55.796  1.00  0.00    -0.056 A 
HETATM   27  C   UNL     1      29.995  44.490  55.115  1.00  0.00     0.010 A 
HETATM   28  C   UNL     1      30.859  43.582  55.733  1.00  0.00     0.037 A 
HETATM   29  C   UNL     1      31.253  43.805  57.046  1.00  0.00     0.065 A 
HETATM   30  C   UNL     1      30.819  44.929  57.734  1.00  0.00     0.037 A 
HETATM   31  C   UNL     1      29.979  45.850  57.105  1.00  0.00     0.010 A 
BRANCH  29  32
HETATM   32  O   UNL     1      32.077  42.939  57.697  1.00  0.00    -0.361 OA
HETATM   33  H   UNL     1      31.783  42.860  58.621  1.00  0.00     0.217 HD
ENDBRANCH  29  32
ENDBRANCH  25  26
ENDBRANCH  23  25
ENDBRANCH   1  23
TORSDOF 9
ENDMDL
MODEL 2
REMARK VINA RESULT:      -8.6      3.446      9.275
REMARK  9 active torsions:
REMARK  status: ('A' for Active; 'I' for Inactive)
REMARK    1  A    between atoms: C_2  and  N_3 
REMARK    2  A    between atoms: C_2  and  C_23 
REMARK       I    between atoms: N_3  and  C_4 
REMARK       I    between atoms: C_4  and  N_5 
REMARK    3  A    between atoms: N_5  and  C_6 
REMARK    4  A    between atoms: C_6  and  C_7 
REMARK    5  A    between atoms: C_7  and  N_8 
REMARK    6  A    between atoms: C_7  and  C_14 
REMARK    7  A    between atoms: C_15  and  O_16 
REMARK    8  A    between atoms: C_23  and  C_24 
REMARK    9  A    between atoms: C_27  and  O_28 
ROOT
HETATM    1  N   UNL     1      23.059  48.455  49.477  1.00  0.00    -0.339 N 
HETATM    2  C   UNL     1      24.328  48.155  49.873  1.00  0.00     0.316 C 
HETATM    3  N   UNL     1      24.333  47.220  50.882  1.00  0.00    -0.341 N 
HETATM    4  O   UNL     1      25.344  48.693  49.462  1.00  0.00    -0.248 OA
HETATM    5  H   UNL     1      22.304  48.085  50.035  1.00  0.00     0.164 HD
HETATM    6  H   UNL     1      23.575  46.554  50.791  1.00  0.00     0.164 HD
ENDROOT
BRANCH   3   7
HETATM    7  C   UNL     1      25.601  46.653  51.318  1.00  0.00     0.162 C 
BRANCH   7   8
HETATM    8  C   UNL     1      25.570  45.497  52.375  1.00  0.00     0.241 C 
BRANCH   8   9
HETATM    9  N   UNL     1      25.933  44.132  51.745  1.00  0.00    -0.061 N 
HETATM   10  H   UNL     1      26.330  43.548  52.485  1.00  0.00     0.280 HD
HETATM   11  C   UNL     1      26.965  44.195  50.624  1.00  0.00     0.236 C 
HETATM   12  C   UNL     1      26.327  43.491  49.439  1.00  0.00     0.029 C 
HETATM   13  C   UNL     1      25.317  42.558  50.058  1.00  0.00     0.029 C 
HETATM   14  C   UNL     1      24.732  43.403  51.165  1.00  0.00     0.236 C 
ENDBRANCH   8   9
BRANCH   8  15
HETATM   15  C   UNL     1      26.522  45.900  53.506  1.00  0.00     0.007 A 
HETATM   16  C   UNL     1      27.047  44.914  54.366  1.00  0.00     0.076 A 
HETATM   17  C   UNL     1      27.906  45.278  55.405  1.00  0.00     0.037 A 
HETATM   18  C   UNL     1      28.226  46.620  55.618  1.00  0.00     0.003 A 
HETATM   19  C   UNL     1      27.685  47.605  54.800  1.00  0.00     0.001 A 
HETATM   20  C   UNL     1      26.832  47.252  53.755  1.00  0.00     0.012 A 
BRANCH  16  21
HETATM   21  O   UNL     1      26.672  43.626  54.094  1.00  0.00    -0.355 OA
HETATM   22  C   UNL     1      27.671  42.616  54.218  1.00  0.00     0.210 C 
ENDBRANCH  16  21
ENDBRANCH   8  15
ENDBRANCH   7   8
ENDBRANCH   3   7
BRANCH   1  23
HETATM   23  C   UNL     1      22.720  49.572  48.590  1.00  0.00     0.086 C 
HETATM   24  C   UNL     1      22.919  50.922  49.283  1.00  0.00     0.032 C 
BRANCH  23  25
HETATM   25  C   UNL     1      21.298  49.473  47.987  1.00  0.00     0.063 C 
BRANCH  25  26
HETATM   26  C   UNL     1      20.177  50.249  48.658  1.00  0.00    -0.056 A 
HETATM   27  C   UNL     1      19.921  51.558  48.211  1.00  0.00     0.010 A 
HETATM   28  C   UNL     1      18.889  52.322  48.765  1.00  0.00     0.037 A 
HETATM   29  C   UNL     1      18.113  51.780  49.781  1.00  0.00     0.065 A 
HETATM   30  C   UNL     1      18.337  50.487  50.229  1.00  0.00     0.037 A 
HETATM   31  C   UNL     1      19.350  49.715  49.655  1.00  0.00     0.010 A 
BRANCH  29  32
HETATM   32  O   UNL     1      17.111  52.492  50.365  1.00  0.00    -0.361 OA
HETATM   33  H   UNL     1      16.544  52.866  49.669  1.00  0.00     0.217 HD
ENDBRANCH  29  32
ENDBRANCH  25  26
ENDBRANCH  23  25
ENDBRANCH   1  23
TORSDOF 9
ENDMDL
MODEL 3
REMARK VINA RESULT:      -8.5      1.742      2.348
REMARK  9 active torsions:
REMARK  status: ('A' for Active; 'I' for Inactive)
REMARK    1  A    between atoms: C_2  and  N_3 
REMARK    2  A    between atoms: C_2  and  C_23 
REMARK       I    between atoms: N_3  and  C_4 
REMARK       I    between atoms: C_4  and  N_5 
REMARK    3  A    between atoms: N_5  and  C_6 
REMARK    4  A    between atoms: C_6  and  C_7 
REMARK    5  A    between atoms: C_7  and  N_8 
REMARK    6  A    between atoms: C_7  and  C_14 
REMARK    7  A    between atoms: C_15  and  O_16 
REMARK    8  A    between atoms: C_23  and  C_24 
REMARK    9  A    between atoms: C_27  and  O_28 
ROOT
HETATM    1  N   UNL     1      26.914  44.850  52.332  1.00  0.00    -0.339 N 
HETATM    2  C   UNL     1      25.942  45.803  52.272  1.00  0.00     0.316 C 
HETATM    3  N   UNL     1      25.737  46.233  50.981  1.00  0.00    -0.341 N 
HETATM    4  O   UNL     1      25.370  46.293  53.233  1.00  0.00    -0.248 OA
HETATM    5  H   UNL     1      27.443  44.681  51.491  1.00  0.00     0.164 HD
HETATM    6  H   UNL     1      25.872  45.492  50.305  1.00  0.00     0.164 HD
ENDROOT
BRANCH   3   7
HETATM    7  C   UNL     1      24.623  47.127  50.699  1.00  0.00     0.162 C 
BRANCH   7   8
HETATM    8  C   UNL     1      23.971  47.069  49.276  1.00  0.00     0.241 C 
BRANCH   8   9
HETATM    9  N   UNL     1      22.873  45.984  49.190  1.00  0.00    -0.061 N 
HETATM   10  H   UNL     1      22.051  46.339  49.685  1.00  0.00     0.280 HD
HETATM   11  C   UNL     1      23.236  44.648  49.830  1.00  0.00     0.236 C 
HETATM   12  C   UNL     1      23.010  43.603  48.753  1.00  0.00     0.029 C 
HETATM   13  C   UNL     1      21.993  44.228  47.831  1.00  0.00     0.029 C 
HETATM   14  C   UNL     1      22.458  45.664  47.763  1.00  0.00     0.236 C 
ENDBRANCH   8   9
BRANCH   8  15
HETATM   15  C   UNL     1      23.442  48.475  48.970  1.00  0.00     0.007 A 
HETATM   16  C   UNL     1      24.310  49.451  48.440  1.00  0.00     0.076 A 
HETATM   17  C   UNL     1      23.835  50.736  48.170  1.00  0.00     0.037 A 
HETATM   18  C   UNL     1      22.510  51.071  48.449  1.00  0.00     0.003 A 
HETATM   19  C   UNL     1      21.653  50.128  49.006  1.00  0.00     0.001 A 
HETATM   20  C   UNL     1      22.114  48.839  49.273  1.00  0.00     0.012 A 
BRANCH  16  21
HETATM   21  O   UNL     1      25.596  49.042  48.209  1.00  0.00    -0.355 OA
HETATM   22  C   UNL     1      26.631  50.002  48.407  1.00  0.00     0.210 C 
ENDBRANCH  16  21
ENDBRANCH   8  15
ENDBRANCH   7   8
ENDBRANCH   3   7
BRANCH   1  23
HETATM   23  C   UNL     1      27.512  44.369  53.581  1.00  0.00     0.086 C 
HETATM   24  C   UNL     1      26.513  43.558  54.409  1.00  0.00     0.032 C 
BRANCH  23  25
HETATM   25  C   UNL     1      28.143  45.494  54.437  1.00  0.00     0.063 C 
BRANCH  25  26
HETATM   26  C   UNL     1      29.199  45.111  55.461  1.00  0.00    -0.056 A 
HETATM   27  C   UNL     1      30.027  44.010  55.175  1.00  0.00     0.010 A 
HETATM   28  C   UNL     1      31.036  43.616  56.058  1.00  0.00     0.037 A 
HETATM   29  C   UNL     1      31.215  44.319  57.242  1.00  0.00     0.065 A 
HETATM   30  C   UNL     1      30.422  45.418  57.540  1.00  0.00     0.037 A 
HETATM   31  C   UNL     1      29.433  45.827  56.643  1.00  0.00     0.010 A 
BRANCH  29  32
HETATM   32  O   UNL     1      32.171  43.961  58.143  1.00  0.00    -0.361 OA
HETATM   33  H   UNL     1      32.778  44.711  58.271  1.00  0.00     0.217 HD
ENDBRANCH  29  32
ENDBRANCH  25  26
ENDBRANCH  23  25
ENDBRANCH   1  23
TORSDOF 9
ENDMDL
MODEL 4
REMARK VINA RESULT:      -8.4      3.633      5.136
REMARK  9 active torsions:
REMARK  status: ('A' for Active; 'I' for Inactive)
REMARK    1  A    between atoms: C_2  and  N_3 
REMARK    2  A    between atoms: C_2  and  C_23 
REMARK       I    between atoms: N_3  and  C_4 
REMARK       I    between atoms: C_4  and  N_5 
REMARK    3  A    between atoms: N_5  and  C_6 
REMARK    4  A    between atoms: C_6  and  C_7 
REMARK    5  A    between atoms: C_7  and  N_8 
REMARK    6  A    between atoms: C_7  and  C_14 
REMARK    7  A    between atoms: C_15  and  O_16 
REMARK    8  A    between atoms: C_23  and  C_24 
REMARK    9  A    between atoms: C_27  and  O_28 
ROOT
HETATM    1  N   UNL     1      29.290  41.480  52.304  1.00  0.00    -0.339 N 
HETATM    2  C   UNL     1      28.199  41.127  51.568  1.00  0.00     0.316 C 
HETATM    3  N   UNL     1      28.552  40.744  50.295  1.00  0.00    -0.341 N 
HETATM    4  O   UNL     1      27.038  41.210  51.938  1.00  0.00    -0.248 OA
HETATM    5  H   UNL     1      30.168  41.555  51.815  1.00  0.00     0.164 HD
HETATM    6  H   UNL     1      29.450  40.277  50.271  1.00  0.00     0.164 HD
ENDROOT
BRANCH   3   7
HETATM    7  C   UNL     1      27.538  40.174  49.418  1.00  0.00     0.162 C 
BRANCH   7   8
HETATM    8  C   UNL     1      27.077  41.014  48.178  1.00  0.00     0.241 C 
BRANCH   8   9
HETATM    9  N   UNL     1      26.930  40.138  46.913  1.00  0.00    -0.061 N 
HETATM   10  H   UNL     1      25.961  40.219  46.594  1.00  0.00     0.280 HD
HETATM   11  C   UNL     1      27.207  38.652  47.122  1.00  0.00     0.236 C 
HETATM   12  C   UNL     1      28.258  38.282  46.091  1.00  0.00     0.029 C 
HETATM   13  C   UNL     1      28.084  39.304  44.995  1.00  0.00     0.029 C 
HETATM   14  C   UNL     1      27.837  40.575  45.774  1.00  0.00     0.236 C 
ENDBRANCH   8   9
BRANCH   8  15
HETATM   15  C   UNL     1      25.770  41.711  48.572  1.00  0.00     0.007 A 
HETATM   16  C   UNL     1      25.810  42.988  49.169  1.00  0.00     0.076 A 
HETATM   17  C   UNL     1      24.622  43.622  49.541  1.00  0.00     0.037 A 
HETATM   18  C   UNL     1      23.394  42.987  49.351  1.00  0.00     0.003 A 
HETATM   19  C   UNL     1      23.345  41.713  48.797  1.00  0.00     0.001 A 
HETATM   20  C   UNL     1      24.524  41.073  48.416  1.00  0.00     0.012 A 
BRANCH  16  21
HETATM   21  O   UNL     1      27.055  43.532  49.330  1.00  0.00    -0.355 OA
HETATM   22  C   UNL     1      27.209  44.519  50.348  1.00  0.00     0.210 C 
ENDBRANCH  16  21
ENDBRANCH   8  15
ENDBRANCH   7   8
ENDBRANCH   3   7
BRANCH   1  23
HETATM   23  C   UNL     1      29.217  42.144  53.609  1.00  0.00     0.086 C 
HETATM   24  C   UNL     1      27.887  42.878  53.795  1.00  0.00     0.032 C 
BRANCH  23  25
HETATM   25  C   UNL     1      30.407  43.094  53.885  1.00  0.00     0.063 C 
BRANCH  25  26
HETATM   26  C   UNL     1      30.493  43.761  55.248  1.00  0.00    -0.056 A 
HETATM   27  C   UNL     1      31.286  43.147  56.235  1.00  0.00     0.010 A 
HETATM   28  C   UNL     1      31.431  43.717  57.503  1.00  0.00     0.037 A 
HETATM   29  C   UNL     1      30.772  44.903  57.794  1.00  0.00     0.065 A 
HETATM   30  C   UNL     1      29.996  45.536  56.834  1.00  0.00     0.037 A 
HETATM   31  C   UNL     1      29.874  44.980  55.558  1.00  0.00     0.010 A 
BRANCH  29  32
HETATM   32  O   UNL     1      30.866  45.486  59.021  1.00  0.00    -0.361 OA
HETATM   33  H   UNL     1      29.980  45.771  59.302  1.00  0.00     0.217 HD
ENDBRANCH  29  32
ENDBRANCH  25  26
ENDBRANCH  23  25
ENDBRANCH   1  23
TORSDOF 9
ENDMDL
MODEL 5
REMARK VINA RESULT:      -8.3      3.626      9.290
REMARK  9 active torsions:
REMARK  status: ('A' for Active; 'I' for Inactive)
REMARK    1  A    between atoms: C_2  and  N_3 
REMARK    2  A    between atoms: C_2  and  C_23 
REMARK       I    between atoms: N_3  and  C_4 
REMARK       I    between atoms: C_4  and  N_5 
REMARK    3  A    between atoms: N_5  and  C_6 
REMARK    4  A    between atoms: C_6  and  C_7 
REMARK    5  A    between atoms: C_7  and  N_8 
REMARK    6  A    between atoms: C_7  and  C_14 
REMARK    7  A    between atoms: C_15  and  O_16 
REMARK    8  A    between atoms: C_23  and  C_24 
REMARK    9  A    between atoms: C_27  and  O_28 
ROOT
HETATM    1  N   UNL     1      23.589  48.926  49.872  1.00  0.00    -0.339 N 
HETATM    2  C   UNL     1      24.085  47.687  49.597  1.00  0.00     0.316 C 
HETATM    3  N   UNL     1      25.266  47.457  50.266  1.00  0.00    -0.341 N 
HETATM    4  O   UNL     1      23.611  46.894  48.798  1.00  0.00    -0.248 OA
HETATM    5  H   UNL     1      24.182  49.553  50.393  1.00  0.00     0.164 HD
HETATM    6  H   UNL     1      25.285  47.908  51.173  1.00  0.00     0.164 HD
ENDROOT
BRANCH   3   7
HETATM    7  C   UNL     1      25.857  46.127  50.227  1.00  0.00     0.162 C 
BRANCH   7   8
HETATM    8  C   UNL     1      25.360  45.066  51.268  1.00  0.00     0.241 C 
BRANCH   8   9
HETATM    9  N   UNL     1      24.770  43.816  50.577  1.00  0.00    -0.061 N 
HETATM   10  H   UNL     1      25.050  43.000  51.127  1.00  0.00     0.280 HD
HETATM   11  C   UNL     1      25.253  43.579  49.150  1.00  0.00     0.236 C 
HETATM   12  C   UNL     1      23.997  43.460  48.306  1.00  0.00     0.029 C 
HETATM   13  C   UNL     1      22.934  43.011  49.277  1.00  0.00     0.029 C 
HETATM   14  C   UNL     1      23.251  43.833  50.505  1.00  0.00     0.236 C 
ENDBRANCH   8   9
BRANCH   8  15
HETATM   15  C   UNL     1      26.552  44.738  52.173  1.00  0.00     0.007 A 
HETATM   16  C   UNL     1      26.644  45.325  53.452  1.00  0.00     0.076 A 
HETATM   17  C   UNL     1      27.735  45.037  54.276  1.00  0.00     0.037 A 
HETATM   18  C   UNL     1      28.752  44.192  53.830  1.00  0.00     0.003 A 
HETATM   19  C   UNL     1      28.690  43.635  52.557  1.00  0.00     0.001 A 
HETATM   20  C   UNL     1      27.603  43.910  51.728  1.00  0.00     0.012 A 
BRANCH  16  21
HETATM   21  O   UNL     1      25.611  46.151  53.804  1.00  0.00    -0.355 OA
HETATM   22  C   UNL     1      25.928  47.516  54.065  1.00  0.00     0.210 C 
ENDBRANCH  16  21
ENDBRANCH   8  15
ENDBRANCH   7   8
ENDBRANCH   3   7
BRANCH   1  23
HETATM   23  C   UNL     1      22.478  49.543  49.141  1.00  0.00     0.086 C 
HETATM   24  C   UNL     1      22.891  49.947  47.724  1.00  0.00     0.032 C 
BRANCH  23  25
HETATM   25  C   UNL     1      21.839  50.740  49.885  1.00  0.00     0.063 C 
BRANCH  25  26
HETATM   26  C   UNL     1      20.380  51.063  49.608  1.00  0.00    -0.056 A 
HETATM   27  C   UNL     1      20.092  52.003  48.600  1.00  0.00     0.010 A 
HETATM   28  C   UNL     1      18.773  52.330  48.274  1.00  0.00     0.037 A 
HETATM   29  C   UNL     1      17.732  51.725  48.964  1.00  0.00     0.065 A 
HETATM   30  C   UNL     1      17.989  50.784  49.951  1.00  0.00     0.037 A 
HETATM   31  C   UNL     1      19.307  50.437  50.257  1.00  0.00     0.010 A 
BRANCH  29  32
HETATM   32  O   UNL     1      16.432  52.026  48.695  1.00  0.00    -0.361 OA
HETATM   33  H   UNL     1      15.973  51.216  48.415  1.00  0.00     0.217 HD
ENDBRANCH  29  32
ENDBRANCH  25  26
ENDBRANCH  23  25
ENDBRANCH   1  23
TORSDOF 9
ENDMDL
MODEL 6
REMARK VINA RESULT:      -8.3      3.967      6.001
REMARK  9 active torsions:
REMARK  status: ('A' for Active; 'I' for Inactive)
REMARK    1  A    between atoms: C_2  and  N_3 
REMARK    2  A    between atoms: C_2  and  C_23 
REMARK       I    between atoms: N_3  and  C_4 
REMARK       I    between atoms: C_4  and  N_5 
REMARK    3  A    between atoms: N_5  and  C_6 
REMARK    4  A    between atoms: C_6  and  C_7 
REMARK    5  A    between atoms: C_7  and  N_8 
REMARK    6  A    between atoms: C_7  and  C_14 
REMARK    7  A    between atoms: C_15  and  O_16 
REMARK    8  A    between atoms: C_23  and  C_24 
REMARK    9  A    between atoms: C_27  and  O_28 
ROOT
HETATM    1  N   UNL     1      24.212  46.982  50.715  1.00  0.00    -0.339 N 
HETATM    2  C   UNL     1      24.014  48.076  49.927  1.00  0.00     0.316 C 
HETATM    3  N   UNL     1      22.702  48.177  49.526  1.00  0.00    -0.341 N 
HETATM    4  O   UNL     1      24.887  48.838  49.541  1.00  0.00    -0.248 OA
HETATM    5  H   UNL     1      23.448  46.328  50.793  1.00  0.00     0.164 HD
HETATM    6  H   UNL     1      22.059  47.841  50.232  1.00  0.00     0.164 HD
ENDROOT
BRANCH   3   7
HETATM    7  C   UNL     1      22.267  49.373  48.817  1.00  0.00     0.162 C 
BRANCH   7   8
HETATM    8  C   UNL     1      21.032  49.255  47.859  1.00  0.00     0.241 C 
BRANCH   8   9
HETATM    9  N   UNL     1      20.388  47.852  47.921  1.00  0.00    -0.061 N 
HETATM   10  H   UNL     1      21.037  47.238  48.419  1.00  0.00     0.280 HD
HETATM   11  C   UNL     1      20.116  47.208  46.565  1.00  0.00     0.236 C 
HETATM   12  C   UNL     1      18.644  46.833  46.578  1.00  0.00     0.029 C 
HETATM   13  C   UNL     1      18.307  46.683  48.040  1.00  0.00     0.029 C 
HETATM   14  C   UNL     1      19.062  47.834  48.665  1.00  0.00     0.236 C 
ENDBRANCH   8   9
BRANCH   8  15
HETATM   15  C   UNL     1      20.058  50.373  48.248  1.00  0.00     0.007 A 
HETATM   16  C   UNL     1      19.200  50.925  47.275  1.00  0.00     0.076 A 
HETATM   17  C   UNL     1      18.319  51.952  47.622  1.00  0.00     0.037 A 
HETATM   18  C   UNL     1      18.302  52.457  48.923  1.00  0.00     0.003 A 
HETATM   19  C   UNL     1      19.170  51.946  49.882  1.00  0.00     0.001 A 
HETATM   20  C   UNL     1      20.049  50.916  49.548  1.00  0.00     0.012 A 
BRANCH  16  21
HETATM   21  O   UNL     1      19.291  50.380  46.023  1.00  0.00    -0.355 OA
HETATM   22  C   UNL     1      18.091  50.305  45.256  1.00  0.00     0.210 C 
ENDBRANCH  16  21
ENDBRANCH   8  15
ENDBRANCH   7   8
ENDBRANCH   3   7
BRANCH   1  23
HETATM   23  C   UNL     1      25.534  46.482  51.105  1.00  0.00     0.086 C 
HETATM   24  C   UNL     1      26.213  45.731  49.958  1.00  0.00     0.032 C 
BRANCH  23  25
HETATM   25  C   UNL     1      25.513  45.616  52.387  1.00  0.00     0.063 C 
BRANCH  25  26
HETATM   26  C   UNL     1      26.639  45.792  53.392  1.00  0.00    -0.056 A 
HETATM   27  C   UNL     1      27.508  44.706  53.606  1.00  0.00     0.010 A 
HETATM   28  C   UNL     1      28.581  44.804  54.497  1.00  0.00     0.037 A 
HETATM   29  C   UNL     1      28.783  45.990  55.189  1.00  0.00     0.065 A 
HETATM   30  C   UNL     1      27.949  47.080  54.984  1.00  0.00     0.037 A 
HETATM   31  C   UNL     1      26.895  46.990  54.073  1.00  0.00     0.010 A 
BRANCH  29  32
HETATM   32  O   UNL     1      29.802  46.127  56.082  1.00  0.00    -0.361 OA
HETATM   33  H   UNL     1      30.647  46.048  55.608  1.00  0.00     0.217 HD
ENDBRANCH  29  32
ENDBRANCH  25  26
ENDBRANCH  23  25
ENDBRANCH   1  23
TORSDOF 9
ENDMDL
MODEL 7
REMARK VINA RESULT:      -8.2     12.008     15.045
REMARK  9 active torsions:
REMARK  status: ('A' for Active; 'I' for Inactive)
REMARK    1  A    between atoms: C_2  and  N_3 
REMARK    2  A    between atoms: C_2  and  C_23 
REMARK       I    between atoms: N_3  and  C_4 
REMARK       I    between atoms: C_4  and  N_5 
REMARK    3  A    between atoms: N_5  and  C_6 
REMARK    4  A    between atoms: C_6  and  C_7 
REMARK    5  A    between atoms: C_7  and  N_8 
REMARK    6  A    between atoms: C_7  and  C_14 
REMARK    7  A    between atoms: C_15  and  O_16 
REMARK    8  A    between atoms: C_23  and  C_24 
REMARK    9  A    between atoms: C_27  and  O_28 
ROOT
HETATM    1  N   UNL     1      29.590  48.370  39.645  1.00  0.00    -0.339 N 
HETATM    2  C   UNL     1      30.447  48.394  40.704  1.00  0.00     0.316 C 
HETATM    3  N   UNL     1      31.759  48.363  40.292  1.00  0.00    -0.341 N 
HETATM    4  O   UNL     1      30.121  48.361  41.881  1.00  0.00    -0.248 OA
HETATM    5  H   UNL     1      29.989  48.197  38.736  1.00  0.00     0.164 HD
HETATM    6  H   UNL     1      31.896  48.854  39.416  1.00  0.00     0.164 HD
ENDROOT
BRANCH   3   7
HETATM    7  C   UNL     1      32.817  48.551  41.275  1.00  0.00     0.162 C 
BRANCH   7   8
HETATM    8  C   UNL     1      33.734  49.815  41.142  1.00  0.00     0.241 C 
BRANCH   8   9
HETATM    9  N   UNL     1      33.413  50.626  39.866  1.00  0.00    -0.061 N 
HETATM   10  H   UNL     1      33.112  49.963  39.148  1.00  0.00     0.280 HD
HETATM   11  C   UNL     1      34.588  51.408  39.287  1.00  0.00     0.236 C 
HETATM   12  C   UNL     1      34.106  52.842  39.165  1.00  0.00     0.029 C 
HETATM   13  C   UNL     1      32.605  52.726  39.063  1.00  0.00     0.029 C 
HETATM   14  C   UNL     1      32.297  51.639  40.066  1.00  0.00     0.236 C 
ENDBRANCH   8   9
BRANCH   8  15
HETATM   15  C   UNL     1      33.555  50.632  42.426  1.00  0.00     0.007 A 
HETATM   16  C   UNL     1      34.644  51.357  42.953  1.00  0.00     0.076 A 
HETATM   17  C   UNL     1      34.488  52.094  44.129  1.00  0.00     0.037 A 
HETATM   18  C   UNL     1      33.267  52.095  44.805  1.00  0.00     0.003 A 
HETATM   19  C   UNL     1      32.197  51.355  44.315  1.00  0.00     0.001 A 
HETATM   20  C   UNL     1      32.339  50.620  43.138  1.00  0.00     0.012 A 
BRANCH  16  21
HETATM   21  O   UNL     1      35.807  51.291  42.235  1.00  0.00    -0.355 OA
HETATM   22  C   UNL     1      36.618  52.463  42.198  1.00  0.00     0.210 C 
ENDBRANCH  16  21
ENDBRANCH   8  15
ENDBRANCH   7   8
ENDBRANCH   3   7
BRANCH   1  23
HETATM   23  C   UNL     1      28.144  48.163  39.767  1.00  0.00     0.086 C 
HETATM   24  C   UNL     1      27.683  46.929  38.989  1.00  0.00     0.032 C 
BRANCH  23  25
HETATM   25  C   UNL     1      27.307  49.402  39.368  1.00  0.00     0.063 C 
BRANCH  25  26
HETATM   26  C   UNL     1      27.908  50.779  39.595  1.00  0.00    -0.056 A 
HETATM   27  C   UNL     1      28.365  51.493  38.472  1.00  0.00     0.010 A 
HETATM   28  C   UNL     1      28.907  52.775  38.602  1.00  0.00     0.037 A 
HETATM   29  C   UNL     1      29.004  53.347  39.863  1.00  0.00     0.065 A 
HETATM   30  C   UNL     1      28.547  52.670  40.985  1.00  0.00     0.037 A 
HETATM   31  C   UNL     1      27.980  51.400  40.849  1.00  0.00     0.010 A 
BRANCH  29  32
HETATM   32  O   UNL     1      29.542  54.584  40.043  1.00  0.00    -0.361 OA
HETATM   33  H   UNL     1      30.389  54.493  40.513  1.00  0.00     0.217 HD
ENDBRANCH  29  32
ENDBRANCH  25  26
ENDBRANCH  23  25
ENDBRANCH   1  23
TORSDOF 9
ENDMDL
MODEL 8
REMARK VINA RESULT:      -8.0      4.150      6.646
REMARK  9 active torsions:
REMARK  status: ('A' for Active; 'I' for Inactive)
REMARK    1  A    between atoms: C_2  and  N_3 
REMARK    2  A    between atoms: C_2  and  C_23 
REMARK       I    between atoms: N_3  and  C_4 
REMARK       I    between atoms: C_4  and  N_5 
REMARK    3  A    between atoms: N_5  and  C_6 
REMARK    4  A    between atoms: C_6  and  C_7 
REMARK    5  A    between atoms: C_7  and  N_8 
REMARK    6  A    between atoms: C_7  and  C_14 
REMARK    7  A    between atoms: C_15  and  O_16 
REMARK    8  A    between atoms: C_23  and  C_24 
REMARK    9  A    between atoms: C_27  and  O_28 
ROOT
HETATM    1  N   UNL     1      24.173  46.756  50.136  1.00  0.00    -0.339 N 
HETATM    2  C   UNL     1      23.444  47.740  49.538  1.00  0.00     0.316 C 
HETATM    3  N   UNL     1      22.705  47.251  48.486  1.00  0.00    -0.341 N 
HETATM    4  O   UNL     1      23.487  48.926  49.823  1.00  0.00    -0.248 OA
HETATM    5  H   UNL     1      24.197  45.858  49.676  1.00  0.00     0.164 HD
HETATM    6  H   UNL     1      22.385  46.303  48.650  1.00  0.00     0.164 HD
ENDROOT
BRANCH   3   7
HETATM    7  C   UNL     1      21.737  48.121  47.833  1.00  0.00     0.162 C 
BRANCH   7   8
HETATM    8  C   UNL     1      20.230  47.990  48.242  1.00  0.00     0.241 C 
BRANCH   8   9
HETATM    9  N   UNL     1      19.559  49.372  48.413  1.00  0.00    -0.061 N 
HETATM   10  H   UNL     1      18.580  49.275  48.132  1.00  0.00     0.280 HD
HETATM   11  C   UNL     1      20.157  50.488  47.562  1.00  0.00     0.236 C 
HETATM   12  C   UNL     1      20.502  51.604  48.533  1.00  0.00     0.029 C 
HETATM   13  C   UNL     1      19.575  51.383  49.702  1.00  0.00     0.029 C 
HETATM   14  C   UNL     1      19.588  49.879  49.846  1.00  0.00     0.236 C 
ENDBRANCH   8   9
BRANCH   8  15
HETATM   15  C   UNL     1      19.551  47.128  47.174  1.00  0.00     0.007 A 
HETATM   16  C   UNL     1      18.276  46.579  47.422  1.00  0.00     0.076 A 
HETATM   17  C   UNL     1      17.658  45.783  46.455  1.00  0.00     0.037 A 
HETATM   18  C   UNL     1      18.307  45.502  45.252  1.00  0.00     0.003 A 
HETATM   19  C   UNL     1      19.579  46.008  45.011  1.00  0.00     0.001 A 
HETATM   20  C   UNL     1      20.204  46.809  45.966  1.00  0.00     0.012 A 
BRANCH  16  21
HETATM   21  O   UNL     1      17.717  46.894  48.631  1.00  0.00    -0.355 OA
HETATM   22  C   UNL     1      16.428  47.503  48.615  1.00  0.00     0.210 C 
ENDBRANCH  16  21
ENDBRANCH   8  15
ENDBRANCH   7   8
ENDBRANCH   3   7
BRANCH   1  23
HETATM   23  C   UNL     1      25.224  47.003  51.127  1.00  0.00     0.086 C 
HETATM   24  C   UNL     1      26.577  47.266  50.462  1.00  0.00     0.032 C 
BRANCH  23  25
HETATM   25  C   UNL     1      25.347  45.883  52.188  1.00  0.00     0.063 C 
BRANCH  25  26
HETATM   26  C   UNL     1      26.403  46.032  53.271  1.00  0.00    -0.056 A 
HETATM   27  C   UNL     1      27.282  44.954  53.488  1.00  0.00     0.010 A 
HETATM   28  C   UNL     1      28.293  45.029  54.450  1.00  0.00     0.037 A 
HETATM   29  C   UNL     1      28.424  46.184  55.209  1.00  0.00     0.065 A 
HETATM   30  C   UNL     1      27.581  47.266  55.004  1.00  0.00     0.037 A 
HETATM   31  C   UNL     1      26.588  47.200  54.023  1.00  0.00     0.010 A 
BRANCH  29  32
HETATM   32  O   UNL     1      29.381  46.297  56.171  1.00  0.00    -0.361 OA
HETATM   33  H   UNL     1      29.369  45.496  56.721  1.00  0.00     0.217 HD
ENDBRANCH  29  32
ENDBRANCH  25  26
ENDBRANCH  23  25
ENDBRANCH   1  23
TORSDOF 9
ENDMDL
MODEL 9
REMARK VINA RESULT:      -7.9      4.098      6.235
REMARK  9 active torsions:
REMARK  status: ('A' for Active; 'I' for Inactive)
REMARK    1  A    between atoms: C_2  and  N_3 
REMARK    2  A    between atoms: C_2  and  C_23 
REMARK       I    between atoms: N_3  and  C_4 
REMARK       I    between atoms: C_4  and  N_5 
REMARK    3  A    between atoms: N_5  and  C_6 
REMARK    4  A    between atoms: C_6  and  C_7 
REMARK    5  A    between atoms: C_7  and  N_8 
REMARK    6  A    between atoms: C_7  and  C_14 
REMARK    7  A    between atoms: C_15  and  O_16 
REMARK    8  A    between atoms: C_23  and  C_24 
REMARK    9  A    between atoms: C_27  and  O_28 
ROOT
HETATM    1  N   UNL     1      28.148  42.096  52.930  1.00  0.00    -0.339 N 
HETATM    2  C   UNL     1      27.471  41.973  51.754  1.00  0.00     0.316 C 
HETATM    3  N   UNL     1      26.936  40.714  51.610  1.00  0.00    -0.341 N 
HETATM    4  O   UNL     1      27.402  42.826  50.882  1.00  0.00    -0.248 OA
HETATM    5  H   UNL     1      28.295  41.254  53.465  1.00  0.00     0.164 HD
HETATM    6  H   UNL     1      26.648  40.317  52.496  1.00  0.00     0.164 HD
ENDROOT
BRANCH   3   7
HETATM    7  C   UNL     1      26.039  40.447  50.494  1.00  0.00     0.162 C 
BRANCH   7   8
HETATM    8  C   UNL     1      26.606  40.584  49.040  1.00  0.00     0.241 C 
BRANCH   8   9
HETATM    9  N   UNL     1      27.379  39.319  48.603  1.00  0.00    -0.061 N 
HETATM   10  H   UNL     1      27.213  39.188  47.602  1.00  0.00     0.280 HD
HETATM   11  C   UNL     1      26.952  38.030  49.298  1.00  0.00     0.236 C 
HETATM   12  C   UNL     1      28.222  37.439  49.884  1.00  0.00     0.029 C 
HETATM   13  C   UNL     1      29.327  38.002  49.026  1.00  0.00     0.029 C 
HETATM   14  C   UNL     1      28.880  39.431  48.819  1.00  0.00     0.236 C 
ENDBRANCH   8   9
BRANCH   8  15
HETATM   15  C   UNL     1      25.417  40.899  48.125  1.00  0.00     0.007 A 
HETATM   16  C   UNL     1      25.615  41.018  46.734  1.00  0.00     0.076 A 
HETATM   17  C   UNL     1      24.537  41.316  45.898  1.00  0.00     0.037 A 
HETATM   18  C   UNL     1      23.265  41.525  46.434  1.00  0.00     0.003 A 
HETATM   19  C   UNL     1      23.065  41.446  47.808  1.00  0.00     0.001 A 
HETATM   20  C   UNL     1      24.133  41.142  48.652  1.00  0.00     0.012 A 
BRANCH  16  21
HETATM   21  O   UNL     1      26.895  40.811  46.295  1.00  0.00    -0.355 OA
HETATM   22  C   UNL     1      27.055  40.131  45.051  1.00  0.00     0.210 C 
ENDBRANCH  16  21
ENDBRANCH   8  15
ENDBRANCH   7   8
ENDBRANCH   3   7
BRANCH   1  23
HETATM   23  C   UNL     1      29.013  43.233  53.261  1.00  0.00     0.086 C 
HETATM   24  C   UNL     1      30.493  42.850  53.209  1.00  0.00     0.032 C 
BRANCH  23  25
HETATM   25  C   UNL     1      28.669  43.895  54.617  1.00  0.00     0.063 C 
BRANCH  25  26
HETATM   26  C   UNL     1      27.798  45.140  54.609  1.00  0.00    -0.056 A 
HETATM   27  C   UNL     1      28.241  46.260  55.337  1.00  0.00     0.010 A 
HETATM   28  C   UNL     1      27.504  47.448  55.354  1.00  0.00     0.037 A 
HETATM   29  C   UNL     1      26.310  47.517  54.650  1.00  0.00     0.065 A 
HETATM   30  C   UNL     1      25.859  46.431  53.913  1.00  0.00     0.037 A 
HETATM   31  C   UNL     1      26.611  45.254  53.874  1.00  0.00     0.010 A 
BRANCH  29  32
HETATM   32  O   UNL     1      25.547  48.644  54.654  1.00  0.00    -0.361 OA
HETATM   33  H   UNL     1      24.665  48.428  54.308  1.00  0.00     0.217 HD
ENDBRANCH  29  32
ENDBRANCH  25  26
ENDBRANCH  23  25
ENDBRANCH   1  23
TORSDOF 9
ENDMDL
MODEL 10
REMARK VINA RESULT:      -7.8     12.292     14.237
REMARK  9 active torsions:
REMARK  status: ('A' for Active; 'I' for Inactive)
REMARK    1  A    between atoms: C_2  and  N_3 
REMARK    2  A    between atoms: C_2  and  C_23 
REMARK       I    between atoms: N_3  and  C_4 
REMARK       I    between atoms: C_4  and  N_5 
REMARK    3  A    between atoms: N_5  and  C_6 
REMARK    4  A    between atoms: C_6  and  C_7 
REMARK    5  A    between atoms: C_7  and  N_8 
REMARK    6  A    between atoms: C_7  and  C_14 
REMARK    7  A    between atoms: C_15  and  O_16 
REMARK    8  A    between atoms: C_23  and  C_24 
REMARK    9  A    between atoms: C_27  and  O_28 
ROOT
HETATM    1  N   UNL     1      35.112  51.036  39.403  1.00  0.00    -0.339 N 
HETATM    2  C   UNL     1      33.918  51.654  39.183  1.00  0.00     0.316 C 
HETATM    3  N   UNL     1      33.154  50.964  38.269  1.00  0.00    -0.341 N 
HETATM    4  O   UNL     1      33.577  52.727  39.656  1.00  0.00    -0.248 OA
HETATM    5  H   UNL     1      35.347  50.263  38.799  1.00  0.00     0.164 HD
HETATM    6  H   UNL     1      33.291  49.963  38.334  1.00  0.00     0.164 HD
ENDROOT
BRANCH   3   7
HETATM    7  C   UNL     1      31.779  51.383  38.033  1.00  0.00     0.162 C 
BRANCH   7   8
HETATM    8  C   UNL     1      30.627  50.405  38.449  1.00  0.00     0.241 C 
BRANCH   8   9
HETATM    9  N   UNL     1      31.176  49.046  38.940  1.00  0.00    -0.061 N 
HETATM   10  H   UNL     1      32.096  48.915  38.514  1.00  0.00     0.280 HD
HETATM   11  C   UNL     1      30.331  47.835  38.560  1.00  0.00     0.236 C 
HETATM   12  C   UNL     1      30.048  47.107  39.862  1.00  0.00     0.029 C 
HETATM   13  C   UNL     1      31.181  47.512  40.772  1.00  0.00     0.029 C 
HETATM   14  C   UNL     1      31.344  48.980  40.450  1.00  0.00     0.236 C 
ENDBRANCH   8   9
BRANCH   8  15
HETATM   15  C   UNL     1      29.791  51.127  39.511  1.00  0.00     0.007 A 
HETATM   16  C   UNL     1      28.404  50.884  39.596  1.00  0.00     0.076 A 
HETATM   17  C   UNL     1      27.636  51.548  40.555  1.00  0.00     0.037 A 
HETATM   18  C   UNL     1      28.228  52.476  41.413  1.00  0.00     0.003 A 
HETATM   19  C   UNL     1      29.587  52.751  41.315  1.00  0.00     0.001 A 
HETATM   20  C   UNL     1      30.365  52.089  40.366  1.00  0.00     0.012 A 
BRANCH  16  21
HETATM   21  O   UNL     1      27.904  49.970  38.708  1.00  0.00    -0.355 OA
HETATM   22  C   UNL     1      26.880  49.096  39.179  1.00  0.00     0.210 C 
ENDBRANCH  16  21
ENDBRANCH   8  15
ENDBRANCH   7   8
ENDBRANCH   3   7
BRANCH   1  23
HETATM   23  C   UNL     1      36.223  51.642  40.141  1.00  0.00     0.086 C 
HETATM   24  C   UNL     1      37.544  51.509  39.380  1.00  0.00     0.032 C 
BRANCH  23  25
HETATM   25  C   UNL     1      36.371  51.106  41.586  1.00  0.00     0.063 C 
BRANCH  25  26
HETATM   26  C   UNL     1      35.205  51.289  42.543  1.00  0.00    -0.056 A 
HETATM   27  C   UNL     1      35.386  52.140  43.649  1.00  0.00     0.010 A 
HETATM   28  C   UNL     1      34.350  52.375  44.557  1.00  0.00     0.037 A 
HETATM   29  C   UNL     1      33.126  51.748  44.368  1.00  0.00     0.065 A 
HETATM   30  C   UNL     1      32.917  50.916  43.278  1.00  0.00     0.037 A 
HETATM   31  C   UNL     1      33.945  50.704  42.356  1.00  0.00     0.010 A 
BRANCH  29  32
HETATM   32  O   UNL     1      32.093  51.929  45.236  1.00  0.00    -0.361 OA
HETATM   33  H   UNL     1      32.448  51.980  46.140  1.00  0.00     0.217 HD
ENDBRANCH  29  32
ENDBRANCH  25  26
ENDBRANCH  23  25
ENDBRANCH   1  23
TORSDOF 9
ENDMDL
