MODEL 1
REMARK VINA RESULT:      -9.0      0.000      0.000
REMARK  8 active torsions:
REMARK  status: ('A' for Active; 'I' for Inactive)
REMARK    1  A    between atoms: O_2  and  C_3 
REMARK    2  A    between atoms: C_5  and  N_6 
REMARK       I    between atoms: N_6  and  C_7 
REMARK    3  A    between atoms: C_7  and  C_8 
REMARK       I    between atoms: C_8  and  N_9 
REMARK    4  A    between atoms: N_9  and  C_10 
REMARK    5  A    between atoms: C_10  and  C_11 
REMARK    6  A    between atoms: C_11  and  S_12 
REMARK    7  A    between atoms: S_12  and  C_13 
REMARK    8  A    between atoms: C_26  and  O_27 
ROOT
HETATM    1  C   UNL     1      24.851  44.570  51.399  1.00  0.00     0.309 C 
HETATM    2  N   UNL     1      25.884  44.918  52.243  1.00  0.00    -0.351 N 
HETATM    3  O   UNL     1      24.072  43.641  51.555  1.00  0.00    -0.262 OA
HETATM    4  H   UNL     1      26.502  45.644  51.887  1.00  0.00     0.162 HD
ENDROOT
BRANCH   1   5
HETATM    5  C   UNL     1      24.744  45.469  50.147  1.00  0.00     0.314 C 
HETATM    6  N   UNL     1      24.338  46.744  50.460  1.00  0.00    -0.316 N 
HETATM    7  H   UNL     1      24.199  46.934  51.452  1.00  0.00     0.169 HD
HETATM    8  O   UNL     1      25.019  44.988  49.056  1.00  0.00    -0.262 OA
BRANCH   6   9
HETATM    9  C   UNL     1      24.089  47.830  49.598  1.00  0.00     0.071 A 
HETATM   10  C   UNL     1      22.824  48.120  49.074  1.00  0.00     0.069 A 
HETATM   11  C   UNL     1      22.647  49.227  48.242  1.00  0.00     0.070 A 
HETATM   12  C   UNL     1      23.744  50.024  47.912  1.00  0.00     0.039 A 
HETATM   13  C   UNL     1      25.011  49.746  48.430  1.00  0.00     0.042 A 
HETATM   14  C   UNL     1      25.190  48.655  49.281  1.00  0.00     0.095 A 
BRANCH  11  15
HETATM   15  O   UNL     1      21.464  49.628  47.682  1.00  0.00    -0.356 OA
HETATM   16  C   UNL     1      20.406  48.676  47.684  1.00  0.00     0.210 C 
ENDBRANCH  11  15
BRANCH  14  17
HETATM   17  O   UNL     1      26.385  48.292  49.857  1.00  0.00    -0.354 OA
HETATM   18  C   UNL     1      27.568  48.533  49.105  1.00  0.00     0.210 C 
ENDBRANCH  14  17
ENDBRANCH   6   9
ENDBRANCH   1   5
BRANCH   2  19
HETATM   19  C   UNL     1      26.296  44.061  53.340  1.00  0.00     0.144 C 
BRANCH  19  20
HETATM   20  C   UNL     1      27.839  43.912  53.541  1.00  0.00     0.033 C 
HETATM   21  C   UNL     1      28.107  42.656  54.400  1.00  0.00     0.049 C 
HETATM   22  C   UNL     1      27.824  41.371  53.623  1.00  0.00     0.169 C 
HETATM   23  O   UNL     1      28.561  41.341  52.403  1.00  0.00    -0.391 OA
HETATM   24  C   UNL     1      28.250  42.426  51.532  1.00  0.00     0.169 C 
HETATM   25  C   UNL     1      28.580  43.759  52.197  1.00  0.00     0.049 C 
BRANCH  20  26
HETATM   26  S   UNL     1      28.378  45.475  54.426  1.00  0.00    -0.118 SA
BRANCH  26  27
HETATM   27  C   UNL     1      29.537  44.896  55.649  1.00  0.00     0.001 A 
HETATM   28  C   UNL     1      30.430  43.864  55.346  1.00  0.00     0.018 A 
HETATM   29  C   UNL     1      31.359  43.433  56.294  1.00  0.00     0.001 A 
HETATM   30  C   UNL     1      31.412  44.044  57.547  1.00  0.00     0.000 A 
HETATM   31  C   UNL     1      30.546  45.093  57.846  1.00  0.00     0.001 A 
HETATM   32  C   UNL     1      29.618  45.525  56.895  1.00  0.00     0.018 A 
ENDBRANCH  26  27
ENDBRANCH  20  26
ENDBRANCH  19  20
ENDBRANCH   2  19
TORSDOF 8
ENDMDL
MODEL 2
REMARK VINA RESULT:      -9.0      2.285      3.172
REMARK  8 active torsions:
REMARK  status: ('A' for Active; 'I' for Inactive)
REMARK    1  A    between atoms: O_2  and  C_3 
REMARK    2  A    between atoms: C_5  and  N_6 
REMARK       I    between atoms: N_6  and  C_7 
REMARK    3  A    between atoms: C_7  and  C_8 
REMARK       I    between atoms: C_8  and  N_9 
REMARK    4  A    between atoms: N_9  and  C_10 
REMARK    5  A    between atoms: C_10  and  C_11 
REMARK    6  A    between atoms: C_11  and  S_12 
REMARK    7  A    between atoms: S_12  and  C_13 
REMARK    8  A    between atoms: C_26  and  O_27 
ROOT
HETATM    1  C   UNL     1      23.201  44.928  49.106  1.00  0.00     0.309 C 
HETATM    2  N   UNL     1      23.532  45.074  50.437  1.00  0.00    -0.351 N 
HETATM    3  O   UNL     1      23.357  43.922  48.429  1.00  0.00    -0.262 OA
HETATM    4  H   UNL     1      23.444  46.020  50.798  1.00  0.00     0.162 HD
ENDROOT
BRANCH   1   5
HETATM    5  C   UNL     1      22.608  46.206  48.471  1.00  0.00     0.314 C 
HETATM    6  N   UNL     1      22.743  47.299  49.292  1.00  0.00    -0.316 N 
HETATM    7  H   UNL     1      23.235  47.137  50.171  1.00  0.00     0.169 HD
HETATM    8  O   UNL     1      22.105  46.128  47.359  1.00  0.00    -0.262 OA
BRANCH   6   9
HETATM    9  C   UNL     1      22.299  48.621  49.087  1.00  0.00     0.071 A 
HETATM   10  C   UNL     1      20.951  48.962  48.932  1.00  0.00     0.069 A 
HETATM   11  C   UNL     1      20.582  50.297  48.752  1.00  0.00     0.070 A 
HETATM   12  C   UNL     1      21.568  51.283  48.698  1.00  0.00     0.039 A 
HETATM   13  C   UNL     1      22.916  50.955  48.853  1.00  0.00     0.042 A 
HETATM   14  C   UNL     1      23.290  49.626  49.056  1.00  0.00     0.095 A 
BRANCH  11  15
HETATM   15  O   UNL     1      19.303  50.762  48.607  1.00  0.00    -0.356 OA
HETATM   16  C   UNL     1      18.972  51.944  49.328  1.00  0.00     0.210 C 
ENDBRANCH  11  15
BRANCH  14  17
HETATM   17  O   UNL     1      24.581  49.188  49.231  1.00  0.00    -0.354 OA
HETATM   18  C   UNL     1      25.579  49.759  48.393  1.00  0.00     0.210 C 
ENDBRANCH  14  17
ENDBRANCH   6   9
ENDBRANCH   1   5
BRANCH   2  19
HETATM   19  C   UNL     1      24.314  44.075  51.143  1.00  0.00     0.144 C 
BRANCH  19  20
HETATM   20  C   UNL     1      25.629  44.592  51.809  1.00  0.00     0.033 C 
HETATM   21  C   UNL     1      26.772  43.606  51.480  1.00  0.00     0.049 C 
HETATM   22  C   UNL     1      27.180  43.688  50.010  1.00  0.00     0.169 C 
HETATM   23  O   UNL     1      27.519  45.024  49.648  1.00  0.00    -0.391 OA
HETATM   24  C   UNL     1      26.445  45.944  49.830  1.00  0.00     0.169 C 
HETATM   25  C   UNL     1      26.021  45.992  51.295  1.00  0.00     0.049 C 
BRANCH  20  26
HETATM   26  S   UNL     1      25.271  44.634  53.650  1.00  0.00    -0.118 SA
BRANCH  26  27
HETATM   27  C   UNL     1      26.760  45.305  54.361  1.00  0.00     0.001 A 
HETATM   28  C   UNL     1      27.836  44.469  54.671  1.00  0.00     0.018 A 
HETATM   29  C   UNL     1      29.014  45.001  55.199  1.00  0.00     0.001 A 
HETATM   30  C   UNL     1      29.130  46.376  55.402  1.00  0.00     0.000 A 
HETATM   31  C   UNL     1      28.073  47.219  55.066  1.00  0.00     0.001 A 
HETATM   32  C   UNL     1      26.895  46.687  54.536  1.00  0.00     0.018 A 
ENDBRANCH  26  27
ENDBRANCH  20  26
ENDBRANCH  19  20
ENDBRANCH   2  19
TORSDOF 8
ENDMDL
MODEL 3
REMARK VINA RESULT:      -8.8      1.787      2.454
REMARK  8 active torsions:
REMARK  status: ('A' for Active; 'I' for Inactive)
REMARK    1  A    between atoms: O_2  and  C_3 
REMARK    2  A    between atoms: C_5  and  N_6 
REMARK       I    between atoms: N_6  and  C_7 
REMARK    3  A    between atoms: C_7  and  C_8 
REMARK       I    between atoms: C_8  and  N_9 
REMARK    4  A    between atoms: N_9  and  C_10 
REMARK    5  A    between atoms: C_10  and  C_11 
REMARK    6  A    between atoms: C_11  and  S_12 
REMARK    7  A    between atoms: S_12  and  C_13 
REMARK    8  A    between atoms: C_26  and  O_27 
ROOT
HETATM    1  C   UNL     1      26.470  45.895  50.319  1.00  0.00     0.309 C 
HETATM    2  N   UNL     1      26.689  45.227  51.506  1.00  0.00    -0.351 N 
HETATM    3  O   UNL     1      26.882  45.563  49.217  1.00  0.00    -0.262 OA
HETATM    4  H   UNL     1      26.372  45.719  52.338  1.00  0.00     0.162 HD
ENDROOT
BRANCH   1   5
HETATM    5  C   UNL     1      25.641  47.189  50.479  1.00  0.00     0.314 C 
HETATM    6  N   UNL     1      25.002  47.539  49.315  1.00  0.00    -0.316 N 
HETATM    7  H   UNL     1      25.125  46.897  48.531  1.00  0.00     0.169 HD
HETATM    8  O   UNL     1      25.632  47.747  51.568  1.00  0.00    -0.262 OA
BRANCH   6   9
HETATM    9  C   UNL     1      24.192  48.662  49.052  1.00  0.00     0.071 A 
HETATM   10  C   UNL     1      22.874  48.780  49.505  1.00  0.00     0.069 A 
HETATM   11  C   UNL     1      22.136  49.932  49.224  1.00  0.00     0.070 A 
HETATM   12  C   UNL     1      22.712  50.949  48.461  1.00  0.00     0.039 A 
HETATM   13  C   UNL     1      24.027  50.843  48.004  1.00  0.00     0.042 A 
HETATM   14  C   UNL     1      24.777  49.705  48.302  1.00  0.00     0.095 A 
BRANCH  11  15
HETATM   15  O   UNL     1      20.851  50.179  49.623  1.00  0.00    -0.356 OA
HETATM   16  C   UNL     1      19.963  49.066  49.627  1.00  0.00     0.210 C 
ENDBRANCH  11  15
BRANCH  14  17
HETATM   17  O   UNL     1      26.080  49.496  47.915  1.00  0.00    -0.354 OA
HETATM   18  C   UNL     1      27.096  50.121  48.691  1.00  0.00     0.210 C 
ENDBRANCH  14  17
ENDBRANCH   6   9
ENDBRANCH   1   5
BRANCH   2  19
HETATM   19  C   UNL     1      27.635  44.131  51.602  1.00  0.00     0.144 C 
BRANCH  19  20
HETATM   20  C   UNL     1      27.062  42.787  52.156  1.00  0.00     0.033 C 
HETATM   21  C   UNL     1      25.760  42.453  51.394  1.00  0.00     0.049 C 
HETATM   22  C   UNL     1      26.043  42.036  49.952  1.00  0.00     0.169 C 
HETATM   23  O   UNL     1      26.971  40.955  49.907  1.00  0.00    -0.391 OA
HETATM   24  C   UNL     1      28.229  41.269  50.501  1.00  0.00     0.169 C 
HETATM   25  C   UNL     1      28.054  41.622  51.974  1.00  0.00     0.049 C 
BRANCH  20  26
HETATM   26  S   UNL     1      26.728  43.102  53.975  1.00  0.00    -0.118 SA
BRANCH  26  27
HETATM   27  C   UNL     1      28.285  43.701  54.598  1.00  0.00     0.001 A 
HETATM   28  C   UNL     1      28.387  44.991  55.126  1.00  0.00     0.018 A 
HETATM   29  C   UNL     1      29.601  45.448  55.643  1.00  0.00     0.001 A 
HETATM   30  C   UNL     1      30.715  44.611  55.652  1.00  0.00     0.000 A 
HETATM   31  C   UNL     1      30.613  43.313  55.156  1.00  0.00     0.001 A 
HETATM   32  C   UNL     1      29.398  42.855  54.640  1.00  0.00     0.018 A 
ENDBRANCH  26  27
ENDBRANCH  20  26
ENDBRANCH  19  20
ENDBRANCH   2  19
TORSDOF 8
ENDMDL
MODEL 4
REMARK VINA RESULT:      -8.5      2.669      4.415
REMARK  8 active torsions:
REMARK  status: ('A' for Active; 'I' for Inactive)
REMARK    1  A    between atoms: O_2  and  C_3 
REMARK    2  A    between atoms: C_5  and  N_6 
REMARK       I    between atoms: N_6  and  C_7 
REMARK    3  A    between atoms: C_7  and  C_8 
REMARK       I    between atoms: C_8  and  N_9 
REMARK    4  A    between atoms: N_9  and  C_10 
REMARK    5  A    between atoms: C_10  and  C_11 
REMARK    6  A    between atoms: C_11  and  S_12 
REMARK    7  A    between atoms: S_12  and  C_13 
REMARK    8  A    between atoms: C_26  and  O_27 
ROOT
HETATM    1  C   UNL     1      22.294  45.112  48.793  1.00  0.00     0.309 C 
HETATM    2  N   UNL     1      23.594  45.477  49.069  1.00  0.00    -0.351 N 
HETATM    3  O   UNL     1      21.842  43.976  48.815  1.00  0.00    -0.262 OA
HETATM    4  H   UNL     1      23.814  46.452  48.880  1.00  0.00     0.162 HD
ENDROOT
BRANCH   1   5
HETATM    5  C   UNL     1      21.386  46.300  48.402  1.00  0.00     0.314 C 
HETATM    6  N   UNL     1      21.719  47.448  49.080  1.00  0.00    -0.316 N 
HETATM    7  H   UNL     1      22.521  47.377  49.706  1.00  0.00     0.169 HD
HETATM    8  O   UNL     1      20.507  46.116  47.571  1.00  0.00    -0.262 OA
BRANCH   6   9
HETATM    9  C   UNL     1      21.108  48.716  49.027  1.00  0.00     0.071 A 
HETATM   10  C   UNL     1      19.921  49.025  49.701  1.00  0.00     0.069 A 
HETATM   11  C   UNL     1      19.382  50.311  49.619  1.00  0.00     0.070 A 
HETATM   12  C   UNL     1      20.019  51.276  48.837  1.00  0.00     0.039 A 
HETATM   13  C   UNL     1      21.204  50.980  48.161  1.00  0.00     0.042 A 
HETATM   14  C   UNL     1      21.760  49.704  48.257  1.00  0.00     0.095 A 
BRANCH  11  15
HETATM   15  O   UNL     1      18.243  50.744  50.242  1.00  0.00    -0.356 OA
HETATM   16  C   UNL     1      17.777  52.039  49.883  1.00  0.00     0.210 C 
ENDBRANCH  11  15
BRANCH  14  17
HETATM   17  O   UNL     1      22.925  49.303  47.646  1.00  0.00    -0.354 OA
HETATM   18  C   UNL     1      24.125  49.955  48.045  1.00  0.00     0.210 C 
ENDBRANCH  14  17
ENDBRANCH   6   9
ENDBRANCH   1   5
BRANCH   2  19
HETATM   19  C   UNL     1      24.648  44.491  49.222  1.00  0.00     0.144 C 
BRANCH  19  20
HETATM   20  C   UNL     1      25.556  44.659  50.483  1.00  0.00     0.033 C 
HETATM   21  C   UNL     1      26.938  45.182  50.031  1.00  0.00     0.049 C 
HETATM   22  C   UNL     1      26.867  46.637  49.571  1.00  0.00     0.169 C 
HETATM   23  O   UNL     1      26.297  47.464  50.581  1.00  0.00    -0.391 OA
HETATM   24  C   UNL     1      24.971  47.080  50.940  1.00  0.00     0.169 C 
HETATM   25  C   UNL     1      24.956  45.658  51.492  1.00  0.00     0.049 C 
BRANCH  20  26
HETATM   26  S   UNL     1      25.685  42.946  51.236  1.00  0.00    -0.118 SA
BRANCH  26  27
HETATM   27  C   UNL     1      27.112  43.050  52.295  1.00  0.00     0.001 A 
HETATM   28  C   UNL     1      28.335  42.507  51.891  1.00  0.00     0.018 A 
HETATM   29  C   UNL     1      29.461  42.618  52.708  1.00  0.00     0.001 A 
HETATM   30  C   UNL     1      29.376  43.288  53.928  1.00  0.00     0.000 A 
HETATM   31  C   UNL     1      28.168  43.858  54.324  1.00  0.00     0.001 A 
HETATM   32  C   UNL     1      27.041  43.749  53.505  1.00  0.00     0.018 A 
ENDBRANCH  26  27
ENDBRANCH  20  26
ENDBRANCH  19  20
ENDBRANCH   2  19
TORSDOF 8
ENDMDL
MODEL 5
REMARK VINA RESULT:      -8.4      3.132     10.210
REMARK  8 active torsions:
REMARK  status: ('A' for Active; 'I' for Inactive)
REMARK    1  A    between atoms: O_2  and  C_3 
REMARK    2  A    between atoms: C_5  and  N_6 
REMARK       I    between atoms: N_6  and  C_7 
REMARK    3  A    between atoms: C_7  and  C_8 
REMARK       I    between atoms: C_8  and  N_9 
REMARK    4  A    between atoms: N_9  and  C_10 
REMARK    5  A    between atoms: C_10  and  C_11 
REMARK    6  A    between atoms: C_11  and  S_12 
REMARK    7  A    between atoms: S_12  and  C_13 
REMARK    8  A    between atoms: C_26  and  O_27 
ROOT
HETATM    1  C   UNL     1      24.153  47.253  49.962  1.00  0.00     0.309 C 
HETATM    2  N   UNL     1      22.952  46.994  49.338  1.00  0.00    -0.351 N 
HETATM    3  O   UNL     1      24.802  48.286  49.879  1.00  0.00    -0.262 OA
HETATM    4  H   UNL     1      22.622  46.036  49.426  1.00  0.00     0.162 HD
ENDROOT
BRANCH   1   5
HETATM    5  C   UNL     1      24.680  46.073  50.809  1.00  0.00     0.314 C 
HETATM    6  N   UNL     1      25.755  46.434  51.584  1.00  0.00    -0.316 N 
HETATM    7  H   UNL     1      26.033  47.414  51.529  1.00  0.00     0.169 HD
HETATM    8  O   UNL     1      24.119  44.989  50.715  1.00  0.00    -0.262 OA
BRANCH   6   9
HETATM    9  C   UNL     1      26.528  45.637  52.453  1.00  0.00     0.071 A 
HETATM   10  C   UNL     1      27.321  44.572  52.014  1.00  0.00     0.069 A 
HETATM   11  C   UNL     1      28.077  43.838  52.930  1.00  0.00     0.070 A 
HETATM   12  C   UNL     1      28.012  44.154  54.288  1.00  0.00     0.039 A 
HETATM   13  C   UNL     1      27.225  45.217  54.738  1.00  0.00     0.042 A 
HETATM   14  C   UNL     1      26.486  45.969  53.825  1.00  0.00     0.095 A 
BRANCH  11  15
HETATM   15  O   UNL     1      28.904  42.789  52.630  1.00  0.00    -0.356 OA
HETATM   16  C   UNL     1      30.198  42.811  53.222  1.00  0.00     0.210 C 
ENDBRANCH  11  15
BRANCH  14  17
HETATM   17  O   UNL     1      25.686  47.040  54.149  1.00  0.00    -0.354 OA
HETATM   18  C   UNL     1      26.249  48.036  54.994  1.00  0.00     0.210 C 
ENDBRANCH  14  17
ENDBRANCH   6   9
ENDBRANCH   1   5
BRANCH   2  19
HETATM   19  C   UNL     1      22.415  47.877  48.318  1.00  0.00     0.144 C 
BRANCH  19  20
HETATM   20  C   UNL     1      20.992  48.457  48.605  1.00  0.00     0.033 C 
HETATM   21  C   UNL     1      20.336  48.845  47.262  1.00  0.00     0.049 C 
HETATM   22  C   UNL     1      19.950  47.612  46.447  1.00  0.00     0.169 C 
HETATM   23  O   UNL     1      19.117  46.739  47.206  1.00  0.00    -0.391 OA
HETATM   24  C   UNL     1      19.739  46.267  48.399  1.00  0.00     0.169 C 
HETATM   25  C   UNL     1      20.088  47.432  49.320  1.00  0.00     0.049 C 
BRANCH  20  26
HETATM   26  S   UNL     1      21.278  49.962  49.688  1.00  0.00    -0.118 SA
BRANCH  26  27
HETATM   27  C   UNL     1      19.823  50.957  49.431  1.00  0.00     0.001 A 
HETATM   28  C   UNL     1      19.838  52.009  48.511  1.00  0.00     0.018 A 
HETATM   29  C   UNL     1      18.687  52.767  48.288  1.00  0.00     0.001 A 
HETATM   30  C   UNL     1      17.509  52.466  48.970  1.00  0.00     0.000 A 
HETATM   31  C   UNL     1      17.478  51.399  49.866  1.00  0.00     0.001 A 
HETATM   32  C   UNL     1      18.630  50.639  50.087  1.00  0.00     0.018 A 
ENDBRANCH  26  27
ENDBRANCH  20  26
ENDBRANCH  19  20
ENDBRANCH   2  19
TORSDOF 8
ENDMDL
MODEL 6
REMARK VINA RESULT:      -8.4      3.206      9.852
REMARK  8 active torsions:
REMARK  status: ('A' for Active; 'I' for Inactive)
REMARK    1  A    between atoms: O_2  and  C_3 
REMARK    2  A    between atoms: C_5  and  N_6 
REMARK       I    between atoms: N_6  and  C_7 
REMARK    3  A    between atoms: C_7  and  C_8 
REMARK       I    between atoms: C_8  and  N_9 
REMARK    4  A    between atoms: N_9  and  C_10 
REMARK    5  A    between atoms: C_10  and  C_11 
REMARK    6  A    between atoms: C_11  and  S_12 
REMARK    7  A    between atoms: S_12  and  C_13 
REMARK    8  A    between atoms: C_26  and  O_27 
ROOT
HETATM    1  C   UNL     1      22.463  44.334  49.073  1.00  0.00     0.309 C 
HETATM    2  N   UNL     1      21.778  45.524  48.941  1.00  0.00    -0.351 N 
HETATM    3  O   UNL     1      22.059  43.227  48.748  1.00  0.00    -0.262 OA
HETATM    4  H   UNL     1      22.225  46.325  49.379  1.00  0.00     0.162 HD
ENDROOT
BRANCH   1   5
HETATM    5  C   UNL     1      23.855  44.490  49.726  1.00  0.00     0.314 C 
HETATM    6  N   UNL     1      23.776  45.034  50.986  1.00  0.00    -0.316 N 
HETATM    7  H   UNL     1      22.834  45.223  51.328  1.00  0.00     0.169 HD
HETATM    8  O   UNL     1      24.841  44.133  49.096  1.00  0.00    -0.262 OA
BRANCH   6   9
HETATM    9  C   UNL     1      24.817  45.363  51.875  1.00  0.00     0.071 A 
HETATM   10  C   UNL     1      25.404  44.437  52.745  1.00  0.00     0.069 A 
HETATM   11  C   UNL     1      26.447  44.830  53.587  1.00  0.00     0.070 A 
HETATM   12  C   UNL     1      26.879  46.157  53.576  1.00  0.00     0.039 A 
HETATM   13  C   UNL     1      26.302  47.089  52.711  1.00  0.00     0.042 A 
HETATM   14  C   UNL     1      25.276  46.698  51.851  1.00  0.00     0.095 A 
BRANCH  11  15
HETATM   15  O   UNL     1      27.115  44.021  54.467  1.00  0.00    -0.356 OA
HETATM   16  C   UNL     1      28.514  44.247  54.600  1.00  0.00     0.210 C 
ENDBRANCH  11  15
BRANCH  14  17
HETATM   17  O   UNL     1      24.642  47.523  50.952  1.00  0.00    -0.354 OA
HETATM   18  C   UNL     1      25.375  47.907  49.795  1.00  0.00     0.210 C 
ENDBRANCH  14  17
ENDBRANCH   6   9
ENDBRANCH   1   5
BRANCH   2  19
HETATM   19  C   UNL     1      20.374  45.559  48.574  1.00  0.00     0.144 C 
BRANCH  19  20
HETATM   20  C   UNL     1      19.825  46.954  48.131  1.00  0.00     0.033 C 
HETATM   21  C   UNL     1      19.652  46.952  46.596  1.00  0.00     0.049 C 
HETATM   22  C   UNL     1      18.485  46.067  46.161  1.00  0.00     0.169 C 
HETATM   23  O   UNL     1      17.283  46.448  46.825  1.00  0.00    -0.391 OA
HETATM   24  C   UNL     1      17.370  46.349  48.245  1.00  0.00     0.169 C 
HETATM   25  C   UNL     1      18.463  47.267  48.781  1.00  0.00     0.049 C 
BRANCH  20  26
HETATM   26  S   UNL     1      21.124  48.194  48.672  1.00  0.00    -0.118 SA
BRANCH  26  27
HETATM   27  C   UNL     1      20.243  49.742  48.722  1.00  0.00     0.001 A 
HETATM   28  C   UNL     1      19.957  50.355  49.945  1.00  0.00     0.018 A 
HETATM   29  C   UNL     1      19.295  51.583  49.981  1.00  0.00     0.001 A 
HETATM   30  C   UNL     1      18.930  52.215  48.792  1.00  0.00     0.000 A 
HETATM   31  C   UNL     1      19.239  51.625  47.569  1.00  0.00     0.001 A 
HETATM   32  C   UNL     1      19.904  50.396  47.533  1.00  0.00     0.018 A 
ENDBRANCH  26  27
ENDBRANCH  20  26
ENDBRANCH  19  20
ENDBRANCH   2  19
TORSDOF 8
ENDMDL
MODEL 7
REMARK VINA RESULT:      -8.2     12.330     15.485
REMARK  8 active torsions:
REMARK  status: ('A' for Active; 'I' for Inactive)
REMARK    1  A    between atoms: O_2  and  C_3 
REMARK    2  A    between atoms: C_5  and  N_6 
REMARK       I    between atoms: N_6  and  C_7 
REMARK    3  A    between atoms: C_7  and  C_8 
REMARK       I    between atoms: C_8  and  N_9 
REMARK    4  A    between atoms: N_9  and  C_10 
REMARK    5  A    between atoms: C_10  and  C_11 
REMARK    6  A    between atoms: C_11  and  S_12 
REMARK    7  A    between atoms: S_12  and  C_13 
REMARK    8  A    between atoms: C_26  and  O_27 
ROOT
HETATM    1  C   UNL     1      32.441  49.925  42.593  1.00  0.00     0.309 C 
HETATM    2  N   UNL     1      32.772  49.360  41.380  1.00  0.00    -0.351 N 
HETATM    3  O   UNL     1      31.595  49.515  43.375  1.00  0.00    -0.262 OA
HETATM    4  H   UNL     1      33.412  49.910  40.812  1.00  0.00     0.162 HD
ENDROOT
BRANCH   1   5
HETATM    5  C   UNL     1      33.239  51.208  42.917  1.00  0.00     0.314 C 
HETATM    6  N   UNL     1      34.575  51.072  42.626  1.00  0.00    -0.316 N 
HETATM    7  H   UNL     1      34.850  50.181  42.212  1.00  0.00     0.169 HD
HETATM    8  O   UNL     1      32.639  52.171  43.375  1.00  0.00    -0.262 OA
BRANCH   6   9
HETATM    9  C   UNL     1      35.622  51.996  42.815  1.00  0.00     0.071 A 
HETATM   10  C   UNL     1      35.982  52.500  44.069  1.00  0.00     0.069 A 
HETATM   11  C   UNL     1      37.045  53.399  44.184  1.00  0.00     0.070 A 
HETATM   12  C   UNL     1      37.723  53.814  43.037  1.00  0.00     0.039 A 
HETATM   13  C   UNL     1      37.374  53.317  41.780  1.00  0.00     0.042 A 
HETATM   14  C   UNL     1      36.328  52.401  41.661  1.00  0.00     0.095 A 
BRANCH  11  15
HETATM   15  O   UNL     1      37.507  53.949  45.349  1.00  0.00    -0.356 OA
HETATM   16  C   UNL     1      38.054  55.260  45.259  1.00  0.00     0.210 C 
ENDBRANCH  11  15
BRANCH  14  17
HETATM   17  O   UNL     1      35.904  51.837  40.481  1.00  0.00    -0.354 OA
HETATM   18  C   UNL     1      35.203  52.681  39.575  1.00  0.00     0.210 C 
ENDBRANCH  14  17
ENDBRANCH   6   9
ENDBRANCH   1   5
BRANCH   2  19
HETATM   19  C   UNL     1      31.977  48.297  40.791  1.00  0.00     0.144 C 
BRANCH  19  20
HETATM   20  C   UNL     1      30.884  48.755  39.771  1.00  0.00     0.033 C 
HETATM   21  C   UNL     1      30.521  47.558  38.865  1.00  0.00     0.049 C 
HETATM   22  C   UNL     1      29.732  46.493  39.626  1.00  0.00     0.169 C 
HETATM   23  O   UNL     1      28.576  47.058  40.240  1.00  0.00    -0.391 OA
HETATM   24  C   UNL     1      28.884  48.090  41.173  1.00  0.00     0.169 C 
HETATM   25  C   UNL     1      29.606  49.242  40.482  1.00  0.00     0.049 C 
BRANCH  20  26
HETATM   26  S   UNL     1      31.672  50.144  38.788  1.00  0.00    -0.118 SA
BRANCH  26  27
HETATM   27  C   UNL     1      30.653  51.558  39.154  1.00  0.00     0.001 A 
HETATM   28  C   UNL     1      30.969  52.400  40.224  1.00  0.00     0.018 A 
HETATM   29  C   UNL     1      30.188  53.526  40.491  1.00  0.00     0.001 A 
HETATM   30  C   UNL     1      29.097  53.828  39.677  1.00  0.00     0.000 A 
HETATM   31  C   UNL     1      28.795  53.011  38.589  1.00  0.00     0.001 A 
HETATM   32  C   UNL     1      29.577  51.885  38.322  1.00  0.00     0.018 A 
ENDBRANCH  26  27
ENDBRANCH  20  26
ENDBRANCH  19  20
ENDBRANCH   2  19
TORSDOF 8
ENDMDL
MODEL 8
REMARK VINA RESULT:      -8.1      2.318      4.609
REMARK  8 active torsions:
REMARK  status: ('A' for Active; 'I' for Inactive)
REMARK    1  A    between atoms: O_2  and  C_3 
REMARK    2  A    between atoms: C_5  and  N_6 
REMARK       I    between atoms: N_6  and  C_7 
REMARK    3  A    between atoms: C_7  and  C_8 
REMARK       I    between atoms: C_8  and  N_9 
REMARK    4  A    between atoms: N_9  and  C_10 
REMARK    5  A    between atoms: C_10  and  C_11 
REMARK    6  A    between atoms: C_11  and  S_12 
REMARK    7  A    between atoms: S_12  and  C_13 
REMARK    8  A    between atoms: C_26  and  O_27 
ROOT
HETATM    1  C   UNL     1      26.554  45.727  50.269  1.00  0.00     0.309 C 
HETATM    2  N   UNL     1      26.940  45.139  51.455  1.00  0.00    -0.351 N 
HETATM    3  O   UNL     1      26.907  45.391  49.148  1.00  0.00    -0.262 OA
HETATM    4  H   UNL     1      26.643  45.631  52.293  1.00  0.00     0.162 HD
ENDROOT
BRANCH   1   5
HETATM    5  C   UNL     1      25.607  46.934  50.455  1.00  0.00     0.314 C 
HETATM    6  N   UNL     1      25.097  47.378  49.259  1.00  0.00    -0.316 N 
HETATM    7  H   UNL     1      25.374  46.846  48.434  1.00  0.00     0.169 HD
HETATM    8  O   UNL     1      25.410  47.354  51.587  1.00  0.00    -0.262 OA
BRANCH   6   9
HETATM    9  C   UNL     1      24.239  48.467  49.012  1.00  0.00     0.071 A 
HETATM   10  C   UNL     1      22.903  48.500  49.426  1.00  0.00     0.069 A 
HETATM   11  C   UNL     1      22.115  49.623  49.164  1.00  0.00     0.070 A 
HETATM   12  C   UNL     1      22.660  50.698  48.460  1.00  0.00     0.039 A 
HETATM   13  C   UNL     1      23.992  50.678  48.043  1.00  0.00     0.042 A 
HETATM   14  C   UNL     1      24.791  49.569  48.322  1.00  0.00     0.095 A 
BRANCH  11  15
HETATM   15  O   UNL     1      20.806  49.788  49.530  1.00  0.00    -0.356 OA
HETATM   16  C   UNL     1      20.504  50.941  50.307  1.00  0.00     0.210 C 
ENDBRANCH  11  15
BRANCH  14  17
HETATM   17  O   UNL     1      26.115  49.441  47.971  1.00  0.00    -0.354 OA
HETATM   18  C   UNL     1      27.067  50.138  48.767  1.00  0.00     0.210 C 
ENDBRANCH  14  17
ENDBRANCH   6   9
ENDBRANCH   1   5
BRANCH   2  19
HETATM   19  C   UNL     1      28.004  44.152  51.507  1.00  0.00     0.144 C 
BRANCH  19  20
HETATM   20  C   UNL     1      27.747  42.928  52.444  1.00  0.00     0.033 C 
HETATM   21  C   UNL     1      29.063  42.133  52.592  1.00  0.00     0.049 C 
HETATM   22  C   UNL     1      30.087  42.891  53.436  1.00  0.00     0.169 C 
HETATM   23  O   UNL     1      29.540  43.245  54.704  1.00  0.00    -0.391 OA
HETATM   24  C   UNL     1      28.387  44.078  54.606  1.00  0.00     0.169 C 
HETATM   25  C   UNL     1      27.274  43.367  53.844  1.00  0.00     0.049 C 
BRANCH  20  26
HETATM   26  S   UNL     1      26.427  41.911  51.582  1.00  0.00    -0.118 SA
BRANCH  26  27
HETATM   27  C   UNL     1      27.268  41.229  50.168  1.00  0.00     0.001 A 
HETATM   28  C   UNL     1      28.067  40.090  50.301  1.00  0.00     0.018 A 
HETATM   29  C   UNL     1      28.700  39.538  49.186  1.00  0.00     0.001 A 
HETATM   30  C   UNL     1      28.523  40.111  47.927  1.00  0.00     0.000 A 
HETATM   31  C   UNL     1      27.703  41.228  47.782  1.00  0.00     0.001 A 
HETATM   32  C   UNL     1      27.068  41.779  48.898  1.00  0.00     0.018 A 
ENDBRANCH  26  27
ENDBRANCH  20  26
ENDBRANCH  19  20
ENDBRANCH   2  19
TORSDOF 8
ENDMDL
MODEL 9
REMARK VINA RESULT:      -8.0     12.141     15.085
REMARK  8 active torsions:
REMARK  status: ('A' for Active; 'I' for Inactive)
REMARK    1  A    between atoms: O_2  and  C_3 
REMARK    2  A    between atoms: C_5  and  N_6 
REMARK       I    between atoms: N_6  and  C_7 
REMARK    3  A    between atoms: C_7  and  C_8 
REMARK       I    between atoms: C_8  and  N_9 
REMARK    4  A    between atoms: N_9  and  C_10 
REMARK    5  A    between atoms: C_10  and  C_11 
REMARK    6  A    between atoms: C_11  and  S_12 
REMARK    7  A    between atoms: S_12  and  C_13 
REMARK    8  A    between atoms: C_26  and  O_27 
ROOT
HETATM    1  C   UNL     1      31.311  47.645  40.059  1.00  0.00     0.309 C 
HETATM    2  N   UNL     1      30.827  48.683  39.291  1.00  0.00    -0.351 N 
HETATM    3  O   UNL     1      30.831  46.524  40.144  1.00  0.00    -0.262 OA
HETATM    4  H   UNL     1      31.285  49.578  39.443  1.00  0.00     0.162 HD
ENDROOT
BRANCH   1   5
HETATM    5  C   UNL     1      32.564  48.016  40.883  1.00  0.00     0.314 C 
HETATM    6  N   UNL     1      32.788  49.372  40.899  1.00  0.00    -0.316 N 
HETATM    7  H   UNL     1      32.096  49.942  40.410  1.00  0.00     0.169 HD
HETATM    8  O   UNL     1      33.203  47.118  41.414  1.00  0.00    -0.262 OA
BRANCH   6   9
HETATM    9  C   UNL     1      33.840  50.089  41.502  1.00  0.00     0.071 A 
HETATM   10  C   UNL     1      35.155  50.067  41.026  1.00  0.00     0.069 A 
HETATM   11  C   UNL     1      36.144  50.819  41.663  1.00  0.00     0.070 A 
HETATM   12  C   UNL     1      35.818  51.569  42.795  1.00  0.00     0.039 A 
HETATM   13  C   UNL     1      34.509  51.600  43.278  1.00  0.00     0.042 A 
HETATM   14  C   UNL     1      33.511  50.870  42.632  1.00  0.00     0.095 A 
BRANCH  11  15
HETATM   15  O   UNL     1      37.459  50.898  41.288  1.00  0.00    -0.356 OA
HETATM   16  C   UNL     1      38.423  50.584  42.286  1.00  0.00     0.210 C 
ENDBRANCH  11  15
BRANCH  14  17
HETATM   17  O   UNL     1      32.190  50.833  43.011  1.00  0.00    -0.354 OA
HETATM   18  C   UNL     1      31.725  51.885  43.848  1.00  0.00     0.210 C 
ENDBRANCH  14  17
ENDBRANCH   6   9
ENDBRANCH   1   5
BRANCH   2  19
HETATM   19  C   UNL     1      29.533  48.609  38.637  1.00  0.00     0.144 C 
BRANCH  19  20
HETATM   20  C   UNL     1      28.516  49.734  39.018  1.00  0.00     0.033 C 
HETATM   21  C   UNL     1      27.086  49.229  38.725  1.00  0.00     0.049 C 
HETATM   22  C   UNL     1      26.656  48.149  39.716  1.00  0.00     0.169 C 
HETATM   23  O   UNL     1      26.787  48.608  41.059  1.00  0.00    -0.391 OA
HETATM   24  C   UNL     1      28.122  48.974  41.400  1.00  0.00     0.169 C 
HETATM   25  C   UNL     1      28.611  50.111  40.510  1.00  0.00     0.049 C 
BRANCH  20  26
HETATM   26  S   UNL     1      28.962  51.196  37.931  1.00  0.00    -0.118 SA
BRANCH  26  27
HETATM   27  C   UNL     1      29.904  52.258  39.007  1.00  0.00     0.001 A 
HETATM   28  C   UNL     1      29.269  53.263  39.742  1.00  0.00     0.018 A 
HETATM   29  C   UNL     1      30.004  54.074  40.609  1.00  0.00     0.001 A 
HETATM   30  C   UNL     1      31.375  53.873  40.760  1.00  0.00     0.000 A 
HETATM   31  C   UNL     1      32.009  52.853  40.054  1.00  0.00     0.001 A 
HETATM   32  C   UNL     1      31.274  52.040  39.187  1.00  0.00     0.018 A 
ENDBRANCH  26  27
ENDBRANCH  20  26
ENDBRANCH  19  20
ENDBRANCH   2  19
TORSDOF 8
ENDMDL
MODEL 10
REMARK VINA RESULT:      -7.9      2.634      4.891
REMARK  8 active torsions:
REMARK  status: ('A' for Active; 'I' for Inactive)
REMARK    1  A    between atoms: O_2  and  C_3 
REMARK    2  A    between atoms: C_5  and  N_6 
REMARK       I    between atoms: N_6  and  C_7 
REMARK    3  A    between atoms: C_7  and  C_8 
REMARK       I    between atoms: C_8  and  N_9 
REMARK    4  A    between atoms: N_9  and  C_10 
REMARK    5  A    between atoms: C_10  and  C_11 
REMARK    6  A    between atoms: C_11  and  S_12 
REMARK    7  A    between atoms: S_12  and  C_13 
REMARK    8  A    between atoms: C_26  and  O_27 
ROOT
HETATM    1  C   UNL     1      24.242  47.711  49.691  1.00  0.00     0.309 C 
HETATM    2  N   UNL     1      23.801  46.428  49.937  1.00  0.00    -0.351 N 
HETATM    3  O   UNL     1      25.316  48.185  50.035  1.00  0.00    -0.262 OA
HETATM    4  H   UNL     1      22.832  46.252  49.682  1.00  0.00     0.162 HD
ENDROOT
BRANCH   1   5
HETATM    5  C   UNL     1      23.220  48.582  48.927  1.00  0.00     0.314 C 
HETATM    6  N   UNL     1      21.985  48.575  49.529  1.00  0.00    -0.316 N 
HETATM    7  H   UNL     1      21.917  48.042  50.396  1.00  0.00     0.169 HD
HETATM    8  O   UNL     1      23.588  49.164  47.915  1.00  0.00    -0.262 OA
BRANCH   6   9
HETATM    9  C   UNL     1      20.796  49.209  49.117  1.00  0.00     0.071 A 
HETATM   10  C   UNL     1      20.517  50.556  49.370  1.00  0.00     0.069 A 
HETATM   11  C   UNL     1      19.325  51.123  48.914  1.00  0.00     0.070 A 
HETATM   12  C   UNL     1      18.401  50.329  48.233  1.00  0.00     0.039 A 
HETATM   13  C   UNL     1      18.668  48.984  47.973  1.00  0.00     0.042 A 
HETATM   14  C   UNL     1      19.868  48.417  48.405  1.00  0.00     0.095 A 
BRANCH  11  15
HETATM   15  O   UNL     1      18.943  52.427  49.079  1.00  0.00    -0.356 OA
HETATM   16  C   UNL     1      17.606  52.646  49.515  1.00  0.00     0.210 C 
ENDBRANCH  11  15
BRANCH  14  17
HETATM   17  O   UNL     1      20.243  47.110  48.198  1.00  0.00    -0.354 OA
HETATM   18  C   UNL     1      20.492  46.712  46.856  1.00  0.00     0.210 C 
ENDBRANCH  14  17
ENDBRANCH   6   9
ENDBRANCH   1   5
BRANCH   2  19
HETATM   19  C   UNL     1      24.508  45.538  50.840  1.00  0.00     0.144 C 
BRANCH  19  20
HETATM   20  C   UNL     1      25.269  44.351  50.163  1.00  0.00     0.033 C 
HETATM   21  C   UNL     1      24.953  43.054  50.941  1.00  0.00     0.049 C 
HETATM   22  C   UNL     1      23.513  42.598  50.714  1.00  0.00     0.169 C 
HETATM   23  O   UNL     1      23.236  42.458  49.323  1.00  0.00    -0.391 OA
HETATM   24  C   UNL     1      23.404  43.670  48.592  1.00  0.00     0.169 C 
HETATM   25  C   UNL     1      24.844  44.162  48.693  1.00  0.00     0.049 C 
BRANCH  20  26
HETATM   26  S   UNL     1      27.087  44.795  50.281  1.00  0.00    -0.118 SA
BRANCH  26  27
HETATM   27  C   UNL     1      27.600  44.089  51.834  1.00  0.00     0.001 A 
HETATM   28  C   UNL     1      27.253  44.703  53.040  1.00  0.00     0.018 A 
HETATM   29  C   UNL     1      27.628  44.132  54.257  1.00  0.00     0.001 A 
HETATM   30  C   UNL     1      28.339  42.932  54.275  1.00  0.00     0.000 A 
HETATM   31  C   UNL     1      28.662  42.298  53.078  1.00  0.00     0.001 A 
HETATM   32  C   UNL     1      28.284  42.869  51.860  1.00  0.00     0.018 A 
ENDBRANCH  26  27
ENDBRANCH  20  26
ENDBRANCH  19  20
ENDBRANCH   2  19
TORSDOF 8
ENDMDL
