MODEL 1
REMARK VINA RESULT:      -9.5      0.000      0.000
REMARK  9 active torsions:
REMARK  status: ('A' for Active; 'I' for Inactive)
REMARK    1  A    between atoms: N_5  and  C_6 
REMARK    2  A    between atoms: C_6  and  C_7 
REMARK    3  A    between atoms: C_7  and  O_8 
REMARK    4  A    between atoms: C_7  and  C_9 
REMARK    5  A    between atoms: C_9  and  O_10 
REMARK    6  A    between atoms: O_10  and  C_11 
REMARK    7  A    between atoms: N_23  and  C_24 
REMARK    8  A    between atoms: C_24  and  C_25 
REMARK    9  A    between atoms: C_25  and  N_26 
ROOT
HETATM    1  C   UNL     1      26.951  50.145  48.485  1.00  0.00     0.002 A 
HETATM    2  C   UNL     1      25.568  50.105  48.318  1.00  0.00     0.032 A 
HETATM    3  C   UNL     1      24.902  48.989  48.794  1.00  0.00     0.079 A 
HETATM    4  C   UNL     1      25.560  47.905  49.435  1.00  0.00     0.079 A 
HETATM    5  N   UNL     1      24.599  46.954  49.809  1.00  0.00    -0.179 N 
HETATM    6  C   UNL     1      23.356  47.420  49.258  1.00  0.00     0.681 A 
HETATM    7  N   UNL     1      22.197  46.718  49.249  1.00  0.00    -0.234 N 
HETATM    8  H   UNL     1      21.357  47.029  48.784  1.00  0.00     0.174 HD
HETATM    9  H   UNL     1      22.151  45.795  49.671  1.00  0.00     0.174 HD
HETATM   10  N   UNL     1      23.496  48.693  48.698  1.00  0.00    -0.180 N 
HETATM   11  C   UNL     1      26.929  47.957  49.578  1.00  0.00     0.032 A 
HETATM   12  C   UNL     1      27.620  49.082  49.106  1.00  0.00     0.002 A 
ENDROOT
BRANCH   5  13
HETATM   13  C   UNL     1      24.875  45.523  50.021  1.00  0.00     0.181 C 
BRANCH  13  14
HETATM   14  C   UNL     1      24.518  44.856  51.360  1.00  0.00     0.161 C 
BRANCH  14  15
HETATM   15  O   UNL     1      23.258  44.191  51.230  1.00  0.00    -0.392 OA
HETATM   16  H   UNL     1      23.438  43.306  50.847  1.00  0.00     0.210 HD
ENDBRANCH  14  15
BRANCH  14  17
HETATM   17  C   UNL     1      25.573  43.923  51.961  1.00  0.00     0.209 C 
BRANCH  17  18
HETATM   18  O   UNL     1      26.846  44.563  51.767  1.00  0.00    -0.347 OA
BRANCH  18  19
HETATM   19  C   UNL     1      27.766  44.213  52.722  1.00  0.00     0.090 A 
HETATM   20  C   UNL     1      27.840  44.939  53.918  1.00  0.00     0.069 A 
HETATM   21 CL   UNL     1      26.731  46.218  54.253  1.00  0.00    -0.081 Cl
HETATM   22  C   UNL     1      28.803  44.621  54.875  1.00  0.00     0.050 A 
HETATM   23  C   UNL     1      29.702  43.589  54.619  1.00  0.00     0.035 A 
HETATM   24 CL   UNL     1      30.893  43.185  55.792  1.00  0.00    -0.084 Cl
HETATM   25  C   UNL     1      29.650  42.879  53.418  1.00  0.00     0.026 A 
HETATM   26  C   UNL     1      28.684  43.195  52.461  1.00  0.00     0.040 A 
ENDBRANCH  18  19
ENDBRANCH  17  18
ENDBRANCH  14  17
ENDBRANCH  13  14
ENDBRANCH   5  13
BRANCH  10  27
HETATM   27  C   UNL     1      22.514  49.491  47.944  1.00  0.00     0.175 C 
BRANCH  27  28
HETATM   28  C   UNL     1      22.231  50.859  48.596  1.00  0.00     0.256 C 
BRANCH  28  29
HETATM   29  N   UNL     1      20.906  50.955  49.325  1.00  0.00    -0.066 N 
HETATM   30  H   UNL     1      21.116  51.398  50.233  1.00  0.00     0.280 HD
HETATM   31  C   UNL     1      19.892  51.902  48.666  1.00  0.00     0.261 C 
HETATM   32  C   UNL     1      18.652  52.028  49.560  1.00  0.00     0.195 C 
HETATM   33  O   UNL     1      18.078  50.739  49.799  1.00  0.00    -0.388 OA
HETATM   34  C   UNL     1      18.974  49.874  50.504  1.00  0.00     0.195 C 
HETATM   35  C   UNL     1      20.237  49.621  49.671  1.00  0.00     0.261 C 
ENDBRANCH  28  29
ENDBRANCH  27  28
ENDBRANCH  10  27
TORSDOF 9
ENDMDL
MODEL 2
REMARK VINA RESULT:      -9.4      1.138      1.652
REMARK  9 active torsions:
REMARK  status: ('A' for Active; 'I' for Inactive)
REMARK    1  A    between atoms: N_5  and  C_6 
REMARK    2  A    between atoms: C_6  and  C_7 
REMARK    3  A    between atoms: C_7  and  O_8 
REMARK    4  A    between atoms: C_7  and  C_9 
REMARK    5  A    between atoms: C_9  and  O_10 
REMARK    6  A    between atoms: O_10  and  C_11 
REMARK    7  A    between atoms: N_23  and  C_24 
REMARK    8  A    between atoms: C_24  and  C_25 
REMARK    9  A    between atoms: C_25  and  N_26 
ROOT
HETATM    1  C   UNL     1      27.022  50.080  48.478  1.00  0.00     0.002 A 
HETATM    2  C   UNL     1      25.650  50.165  48.251  1.00  0.00     0.032 A 
HETATM    3  C   UNL     1      24.860  49.144  48.749  1.00  0.00     0.079 A 
HETATM    4  C   UNL     1      25.381  48.037  49.470  1.00  0.00     0.079 A 
HETATM    5  N   UNL     1      24.317  47.204  49.846  1.00  0.00    -0.179 N 
HETATM    6  C   UNL     1      23.149  47.757  49.219  1.00  0.00     0.681 A 
HETATM    7  N   UNL     1      21.928  47.171  49.191  1.00  0.00    -0.234 N 
HETATM    8  H   UNL     1      21.142  47.537  48.675  1.00  0.00     0.174 HD
HETATM    9  H   UNL     1      21.774  46.280  49.654  1.00  0.00     0.174 HD
HETATM   10  N   UNL     1      23.436  48.981  48.605  1.00  0.00    -0.180 N 
HETATM   11  C   UNL     1      26.742  47.964  49.671  1.00  0.00     0.032 A 
HETATM   12  C   UNL     1      27.559  48.991  49.177  1.00  0.00     0.002 A 
ENDROOT
BRANCH   5  13
HETATM   13  C   UNL     1      24.443  45.765  50.139  1.00  0.00     0.181 C 
BRANCH  13  14
HETATM   14  C   UNL     1      24.667  45.287  51.583  1.00  0.00     0.161 C 
BRANCH  14  15
HETATM   15  O   UNL     1      24.016  44.026  51.765  1.00  0.00    -0.392 OA
HETATM   16  H   UNL     1      23.052  44.185  51.676  1.00  0.00     0.210 HD
ENDBRANCH  14  15
BRANCH  14  17
HETATM   17  C   UNL     1      26.120  45.230  52.066  1.00  0.00     0.209 C 
BRANCH  17  18
HETATM   18  O   UNL     1      26.285  43.961  52.722  1.00  0.00    -0.347 OA
BRANCH  18  19
HETATM   19  C   UNL     1      27.444  43.889  53.451  1.00  0.00     0.090 A 
HETATM   20  C   UNL     1      28.186  42.701  53.468  1.00  0.00     0.069 A 
HETATM   21 CL   UNL     1      27.713  41.343  52.513  1.00  0.00    -0.081 Cl
HETATM   22  C   UNL     1      29.340  42.603  54.245  1.00  0.00     0.050 A 
HETATM   23  C   UNL     1      29.734  43.691  55.018  1.00  0.00     0.035 A 
HETATM   24 CL   UNL     1      31.157  43.584  55.978  1.00  0.00    -0.084 Cl
HETATM   25  C   UNL     1      28.985  44.870  55.026  1.00  0.00     0.026 A 
HETATM   26  C   UNL     1      27.831  44.968  54.246  1.00  0.00     0.040 A 
ENDBRANCH  18  19
ENDBRANCH  17  18
ENDBRANCH  14  17
ENDBRANCH  13  14
ENDBRANCH   5  13
BRANCH  10  27
HETATM   27  C   UNL     1      22.568  49.828  47.770  1.00  0.00     0.175 C 
BRANCH  27  28
HETATM   28  C   UNL     1      21.933  50.990  48.560  1.00  0.00     0.256 C 
BRANCH  28  29
HETATM   29  N   UNL     1      20.456  50.825  48.859  1.00  0.00    -0.066 N 
HETATM   30  H   UNL     1      20.106  50.140  48.172  1.00  0.00     0.280 HD
HETATM   31  C   UNL     1      20.158  50.183  50.222  1.00  0.00     0.261 C 
HETATM   32  C   UNL     1      18.649  49.939  50.353  1.00  0.00     0.195 C 
HETATM   33  O   UNL     1      17.930  51.166  50.189  1.00  0.00    -0.388 OA
HETATM   34  C   UNL     1      18.116  51.726  48.886  1.00  0.00     0.195 C 
HETATM   35  C   UNL     1      19.592  52.075  48.662  1.00  0.00     0.261 C 
ENDBRANCH  28  29
ENDBRANCH  27  28
ENDBRANCH  10  27
TORSDOF 9
ENDMDL
MODEL 3
REMARK VINA RESULT:      -8.9      2.513      3.135
REMARK  9 active torsions:
REMARK  status: ('A' for Active; 'I' for Inactive)
REMARK    1  A    between atoms: N_5  and  C_6 
REMARK    2  A    between atoms: C_6  and  C_7 
REMARK    3  A    between atoms: C_7  and  O_8 
REMARK    4  A    between atoms: C_7  and  C_9 
REMARK    5  A    between atoms: C_9  and  O_10 
REMARK    6  A    between atoms: O_10  and  C_11 
REMARK    7  A    between atoms: N_23  and  C_24 
REMARK    8  A    between atoms: C_24  and  C_25 
REMARK    9  A    between atoms: C_25  and  N_26 
ROOT
HETATM    1  C   UNL     1      26.418  49.713  48.625  1.00  0.00     0.002 A 
HETATM    2  C   UNL     1      25.093  49.291  48.715  1.00  0.00     0.032 A 
HETATM    3  C   UNL     1      24.862  48.032  49.242  1.00  0.00     0.079 A 
HETATM    4  C   UNL     1      25.901  47.172  49.686  1.00  0.00     0.079 A 
HETATM    5  N   UNL     1      25.327  45.990  50.177  1.00  0.00    -0.179 N 
HETATM    6  C   UNL     1      23.922  46.093  49.894  1.00  0.00     0.681 A 
HETATM    7  N   UNL     1      23.020  45.097  50.060  1.00  0.00    -0.234 N 
HETATM    8  H   UNL     1      22.052  45.163  49.777  1.00  0.00     0.174 HD
HETATM    9  H   UNL     1      23.309  44.196  50.429  1.00  0.00     0.174 HD
HETATM   10  N   UNL     1      23.599  47.357  49.391  1.00  0.00    -0.180 N 
HETATM   11  C   UNL     1      27.205  47.602  49.575  1.00  0.00     0.032 A 
HETATM   12  C   UNL     1      27.459  48.876  49.048  1.00  0.00     0.002 A 
ENDROOT
BRANCH   5  13
HETATM   13  C   UNL     1      26.019  44.691  50.252  1.00  0.00     0.181 C 
BRANCH  13  14
HETATM   14  C   UNL     1      26.321  44.053  51.618  1.00  0.00     0.161 C 
BRANCH  14  15
HETATM   15  O   UNL     1      25.949  42.673  51.584  1.00  0.00    -0.392 OA
HETATM   16  H   UNL     1      26.637  42.177  52.076  1.00  0.00     0.210 HD
ENDBRANCH  14  15
BRANCH  14  17
HETATM   17  C   UNL     1      27.747  44.225  52.151  1.00  0.00     0.209 C 
BRANCH  17  18
HETATM   18  O   UNL     1      27.632  44.878  53.428  1.00  0.00    -0.347 OA
BRANCH  18  19
HETATM   19  C   UNL     1      28.631  44.522  54.296  1.00  0.00     0.090 A 
HETATM   20  C   UNL     1      29.049  45.422  55.286  1.00  0.00     0.069 A 
HETATM   21 CL   UNL     1      28.267  46.947  55.490  1.00  0.00    -0.081 Cl
HETATM   22  C   UNL     1      30.097  45.087  56.144  1.00  0.00     0.050 A 
HETATM   23  C   UNL     1      30.735  43.859  55.991  1.00  0.00     0.035 A 
HETATM   24 CL   UNL     1      32.026  43.434  57.045  1.00  0.00    -0.084 Cl
HETATM   25  C   UNL     1      30.340  42.969  54.991  1.00  0.00     0.026 A 
HETATM   26  C   UNL     1      29.289  43.303  54.135  1.00  0.00     0.040 A 
ENDBRANCH  18  19
ENDBRANCH  17  18
ENDBRANCH  14  17
ENDBRANCH  13  14
ENDBRANCH   5  13
BRANCH  10  27
HETATM   27  C   UNL     1      22.310  47.852  48.879  1.00  0.00     0.175 C 
BRANCH  27  28
HETATM   28  C   UNL     1      22.002  47.351  47.454  1.00  0.00     0.256 C 
BRANCH  28  29
HETATM   29  N   UNL     1      20.759  46.493  47.334  1.00  0.00    -0.066 N 
HETATM   30  H   UNL     1      20.229  46.878  46.537  1.00  0.00     0.280 HD
HETATM   31  C   UNL     1      21.036  45.035  46.939  1.00  0.00     0.261 C 
HETATM   32  C   UNL     1      19.706  44.305  46.712  1.00  0.00     0.195 C 
HETATM   33  O   UNL     1      18.891  44.379  47.886  1.00  0.00    -0.388 OA
HETATM   34  C   UNL     1      18.538  45.727  48.210  1.00  0.00     0.195 C 
HETATM   35  C   UNL     1      19.796  46.546  48.524  1.00  0.00     0.261 C 
ENDBRANCH  28  29
ENDBRANCH  27  28
ENDBRANCH  10  27
TORSDOF 9
ENDMDL
MODEL 4
REMARK VINA RESULT:      -8.6      4.108     10.073
REMARK  9 active torsions:
REMARK  status: ('A' for Active; 'I' for Inactive)
REMARK    1  A    between atoms: N_5  and  C_6 
REMARK    2  A    between atoms: C_6  and  C_7 
REMARK    3  A    between atoms: C_7  and  O_8 
REMARK    4  A    between atoms: C_7  and  C_9 
REMARK    5  A    between atoms: C_9  and  O_10 
REMARK    6  A    between atoms: O_10  and  C_11 
REMARK    7  A    between atoms: N_23  and  C_24 
REMARK    8  A    between atoms: C_24  and  C_25 
REMARK    9  A    between atoms: C_25  and  N_26 
ROOT
HETATM    1  C   UNL     1      29.588  44.713  55.572  1.00  0.00     0.002 A 
HETATM    2  C   UNL     1      29.259  43.565  54.853  1.00  0.00     0.032 A 
HETATM    3  C   UNL     1      28.254  43.674  53.908  1.00  0.00     0.079 A 
HETATM    4  C   UNL     1      27.560  44.885  53.646  1.00  0.00     0.079 A 
HETATM    5  N   UNL     1      26.625  44.655  52.626  1.00  0.00    -0.179 N 
HETATM    6  C   UNL     1      26.670  43.243  52.367  1.00  0.00     0.681 A 
HETATM    7  N   UNL     1      25.813  42.571  51.562  1.00  0.00    -0.234 N 
HETATM    8  H   UNL     1      25.811  41.566  51.459  1.00  0.00     0.174 HD
HETATM    9  H   UNL     1      25.078  43.065  51.065  1.00  0.00     0.174 HD
HETATM   10  N   UNL     1      27.705  42.630  53.082  1.00  0.00    -0.180 N 
HETATM   11  C   UNL     1      27.889  46.005  54.377  1.00  0.00     0.032 A 
HETATM   12  C   UNL     1      28.908  45.916  55.337  1.00  0.00     0.002 A 
ENDROOT
BRANCH   5  13
HETATM   13  C   UNL     1      25.405  45.453  52.412  1.00  0.00     0.181 C 
BRANCH  13  14
HETATM   14  C   UNL     1      24.962  45.822  50.986  1.00  0.00     0.161 C 
BRANCH  14  15
HETATM   15  O   UNL     1      23.792  45.070  50.650  1.00  0.00    -0.392 OA
HETATM   16  H   UNL     1      24.050  44.436  49.948  1.00  0.00     0.210 HD
ENDBRANCH  14  15
BRANCH  14  17
HETATM   17  C   UNL     1      24.758  47.313  50.699  1.00  0.00     0.209 C 
BRANCH  17  18
HETATM   18  O   UNL     1      24.469  47.424  49.294  1.00  0.00    -0.347 OA
BRANCH  18  19
HETATM   19  C   UNL     1      23.539  48.394  49.021  1.00  0.00     0.090 A 
HETATM   20  C   UNL     1      23.959  49.679  48.652  1.00  0.00     0.069 A 
HETATM   21 CL   UNL     1      25.634  50.043  48.449  1.00  0.00    -0.081 Cl
HETATM   22  C   UNL     1      23.022  50.685  48.418  1.00  0.00     0.050 A 
HETATM   23  C   UNL     1      21.668  50.404  48.576  1.00  0.00     0.035 A 
HETATM   24 CL   UNL     1      20.502  51.635  48.288  1.00  0.00    -0.084 Cl
HETATM   25  C   UNL     1      21.244  49.132  48.969  1.00  0.00     0.026 A 
HETATM   26  C   UNL     1      22.182  48.125  49.199  1.00  0.00     0.040 A 
ENDBRANCH  18  19
ENDBRANCH  17  18
ENDBRANCH  14  17
ENDBRANCH  13  14
ENDBRANCH   5  13
BRANCH  10  27
HETATM   27  C   UNL     1      28.041  41.201  53.191  1.00  0.00     0.175 C 
BRANCH  27  28
HETATM   28  C   UNL     1      29.143  40.770  52.202  1.00  0.00     0.256 C 
BRANCH  28  29
HETATM   29  N   UNL     1      28.766  39.623  51.287  1.00  0.00    -0.066 N 
HETATM   30  H   UNL     1      27.962  39.158  51.737  1.00  0.00     0.280 HD
HETATM   31  C   UNL     1      28.234  40.060  49.914  1.00  0.00     0.261 C 
HETATM   32  C   UNL     1      27.755  38.829  49.135  1.00  0.00     0.195 C 
HETATM   33  O   UNL     1      28.818  37.881  49.000  1.00  0.00    -0.388 OA
HETATM   34  C   UNL     1      29.259  37.385  50.268  1.00  0.00     0.195 C 
HETATM   35  C   UNL     1      29.824  38.528  51.120  1.00  0.00     0.261 C 
ENDBRANCH  28  29
ENDBRANCH  27  28
ENDBRANCH  10  27
TORSDOF 9
ENDMDL
MODEL 5
REMARK VINA RESULT:      -8.5      3.776      9.876
REMARK  9 active torsions:
REMARK  status: ('A' for Active; 'I' for Inactive)
REMARK    1  A    between atoms: N_5  and  C_6 
REMARK    2  A    between atoms: C_6  and  C_7 
REMARK    3  A    between atoms: C_7  and  O_8 
REMARK    4  A    between atoms: C_7  and  C_9 
REMARK    5  A    between atoms: C_9  and  O_10 
REMARK    6  A    between atoms: O_10  and  C_11 
REMARK    7  A    between atoms: N_23  and  C_24 
REMARK    8  A    between atoms: C_24  and  C_25 
REMARK    9  A    between atoms: C_25  and  N_26 
ROOT
HETATM    1  C   UNL     1      27.918  41.639  52.959  1.00  0.00     0.002 A 
HETATM    2  C   UNL     1      27.810  42.754  53.788  1.00  0.00     0.032 A 
HETATM    3  C   UNL     1      27.033  43.807  53.338  1.00  0.00     0.079 A 
HETATM    4  C   UNL     1      26.354  43.796  52.091  1.00  0.00     0.079 A 
HETATM    5  N   UNL     1      25.647  45.000  51.953  1.00  0.00    -0.179 N 
HETATM    6  C   UNL     1      26.022  45.803  53.084  1.00  0.00     0.681 A 
HETATM    7  N   UNL     1      25.691  47.105  53.258  1.00  0.00    -0.234 N 
HETATM    8  H   UNL     1      26.034  47.674  54.019  1.00  0.00     0.174 HD
HETATM    9  H   UNL     1      25.117  47.587  52.573  1.00  0.00     0.174 HD
HETATM   10  N   UNL     1      26.808  45.075  53.983  1.00  0.00    -0.180 N 
HETATM   11  C   UNL     1      26.485  42.691  51.279  1.00  0.00     0.032 A 
HETATM   12  C   UNL     1      27.265  41.612  51.719  1.00  0.00     0.002 A 
ENDROOT
BRANCH   5  13
HETATM   13  C   UNL     1      25.251  45.596  50.665  1.00  0.00     0.181 C 
BRANCH  13  14
HETATM   14  C   UNL     1      24.018  45.065  49.914  1.00  0.00     0.161 C 
BRANCH  14  15
HETATM   15  O   UNL     1      23.111  44.484  50.854  1.00  0.00    -0.392 OA
HETATM   16  H   UNL     1      23.528  43.661  51.185  1.00  0.00     0.210 HD
ENDBRANCH  14  15
BRANCH  14  17
HETATM   17  C   UNL     1      23.298  46.058  48.996  1.00  0.00     0.209 C 
BRANCH  17  18
HETATM   18  O   UNL     1      23.929  47.335  49.197  1.00  0.00    -0.347 OA
BRANCH  18  19
HETATM   19  C   UNL     1      23.076  48.386  48.982  1.00  0.00     0.090 A 
HETATM   20  C   UNL     1      23.592  49.665  48.734  1.00  0.00     0.069 A 
HETATM   21 CL   UNL     1      25.293  49.928  48.608  1.00  0.00    -0.081 Cl
HETATM   22  C   UNL     1      22.733  50.750  48.561  1.00  0.00     0.050 A 
HETATM   23  C   UNL     1      21.358  50.551  48.657  1.00  0.00     0.035 A 
HETATM   24 CL   UNL     1      20.287  51.879  48.443  1.00  0.00    -0.084 Cl
HETATM   25  C   UNL     1      20.837  49.284  48.930  1.00  0.00     0.026 A 
HETATM   26  C   UNL     1      21.698  48.198  49.100  1.00  0.00     0.040 A 
ENDBRANCH  18  19
ENDBRANCH  17  18
ENDBRANCH  14  17
ENDBRANCH  13  14
ENDBRANCH   5  13
BRANCH  10  27
HETATM   27  C   UNL     1      27.485  45.533  55.207  1.00  0.00     0.175 C 
BRANCH  27  28
HETATM   28  C   UNL     1      29.022  45.529  55.075  1.00  0.00     0.256 C 
BRANCH  28  29
HETATM   29  N   UNL     1      29.759  44.880  56.229  1.00  0.00    -0.066 N 
HETATM   30  H   UNL     1      29.061  44.297  56.716  1.00  0.00     0.280 HD
HETATM   31  C   UNL     1      30.851  43.889  55.801  1.00  0.00     0.261 C 
HETATM   32  C   UNL     1      31.428  43.195  57.042  1.00  0.00     0.195 C 
HETATM   33  O   UNL     1      31.939  44.165  57.961  1.00  0.00    -0.388 OA
HETATM   34  C   UNL     1      30.914  45.035  58.450  1.00  0.00     0.195 C 
HETATM   35  C   UNL     1      30.301  45.837  57.296  1.00  0.00     0.261 C 
ENDBRANCH  28  29
ENDBRANCH  27  28
ENDBRANCH  10  27
TORSDOF 9
ENDMDL
MODEL 6
REMARK VINA RESULT:      -8.5      2.015      2.522
REMARK  9 active torsions:
REMARK  status: ('A' for Active; 'I' for Inactive)
REMARK    1  A    between atoms: N_5  and  C_6 
REMARK    2  A    between atoms: C_6  and  C_7 
REMARK    3  A    between atoms: C_7  and  O_8 
REMARK    4  A    between atoms: C_7  and  C_9 
REMARK    5  A    between atoms: C_9  and  O_10 
REMARK    6  A    between atoms: O_10  and  C_11 
REMARK    7  A    between atoms: N_23  and  C_24 
REMARK    8  A    between atoms: C_24  and  C_25 
REMARK    9  A    between atoms: C_25  and  N_26 
ROOT
HETATM    1  C   UNL     1      25.827  50.428  48.107  1.00  0.00     0.002 A 
HETATM    2  C   UNL     1      24.525  49.935  48.029  1.00  0.00     0.032 A 
HETATM    3  C   UNL     1      24.270  48.717  48.633  1.00  0.00     0.079 A 
HETATM    4  C   UNL     1      25.263  47.964  49.316  1.00  0.00     0.079 A 
HETATM    5  N   UNL     1      24.672  46.797  49.823  1.00  0.00    -0.179 N 
HETATM    6  C   UNL     1      23.327  46.789  49.316  1.00  0.00     0.681 A 
HETATM    7  N   UNL     1      22.457  45.758  49.434  1.00  0.00    -0.234 N 
HETATM    8  H   UNL     1      21.546  45.741  48.998  1.00  0.00     0.174 HD
HETATM    9  H   UNL     1      22.723  44.913  49.930  1.00  0.00     0.174 HD
HETATM   10  N   UNL     1      23.032  47.982  48.647  1.00  0.00    -0.180 N 
HETATM   11  C   UNL     1      26.546  48.460  49.370  1.00  0.00     0.032 A 
HETATM   12  C   UNL     1      26.823  49.696  48.767  1.00  0.00     0.002 A 
ENDROOT
BRANCH   5  13
HETATM   13  C   UNL     1      25.401  45.554  50.132  1.00  0.00     0.181 C 
BRANCH  13  14
HETATM   14  C   UNL     1      25.374  44.975  51.556  1.00  0.00     0.161 C 
BRANCH  14  15
HETATM   15  O   UNL     1      24.087  44.400  51.803  1.00  0.00    -0.392 OA
HETATM   16  H   UNL     1      24.149  43.912  52.652  1.00  0.00     0.210 HD
ENDBRANCH  14  15
BRANCH  14  17
HETATM   17  C   UNL     1      26.493  43.993  51.915  1.00  0.00     0.209 C 
BRANCH  17  18
HETATM   18  O   UNL     1      26.388  43.748  53.329  1.00  0.00    -0.347 OA
BRANCH  18  19
HETATM   19  C   UNL     1      27.593  43.844  53.973  1.00  0.00     0.090 A 
HETATM   20  C   UNL     1      28.420  42.718  54.078  1.00  0.00     0.069 A 
HETATM   21 CL   UNL     1      27.987  41.224  53.331  1.00  0.00    -0.081 Cl
HETATM   22  C   UNL     1      29.627  42.793  54.773  1.00  0.00     0.050 A 
HETATM   23  C   UNL     1      29.990  43.993  55.379  1.00  0.00     0.035 A 
HETATM   24 CL   UNL     1      31.477  44.100  56.236  1.00  0.00    -0.084 Cl
HETATM   25  C   UNL     1      29.159  45.113  55.300  1.00  0.00     0.026 A 
HETATM   26  C   UNL     1      27.952  45.037  54.601  1.00  0.00     0.040 A 
ENDBRANCH  18  19
ENDBRANCH  17  18
ENDBRANCH  14  17
ENDBRANCH  13  14
ENDBRANCH   5  13
BRANCH  10  27
HETATM   27  C   UNL     1      21.821  48.350  47.895  1.00  0.00     0.175 C 
BRANCH  27  28
HETATM   28  C   UNL     1      20.649  48.754  48.811  1.00  0.00     0.256 C 
BRANCH  28  29
HETATM   29  N   UNL     1      19.310  48.153  48.435  1.00  0.00    -0.066 N 
HETATM   30  H   UNL     1      18.847  48.853  47.836  1.00  0.00     0.280 HD
HETATM   31  C   UNL     1      19.407  46.900  47.553  1.00  0.00     0.261 C 
HETATM   32  C   UNL     1      18.000  46.466  47.122  1.00  0.00     0.195 C 
HETATM   33  O   UNL     1      17.180  46.229  48.270  1.00  0.00    -0.388 OA
HETATM   34  C   UNL     1      16.994  47.413  49.052  1.00  0.00     0.195 C 
HETATM   35  C   UNL     1      18.339  47.909  49.595  1.00  0.00     0.261 C 
ENDBRANCH  28  29
ENDBRANCH  27  28
ENDBRANCH  10  27
TORSDOF 9
ENDMDL
MODEL 7
REMARK VINA RESULT:      -8.3      1.500      2.255
REMARK  9 active torsions:
REMARK  status: ('A' for Active; 'I' for Inactive)
REMARK    1  A    between atoms: N_5  and  C_6 
REMARK    2  A    between atoms: C_6  and  C_7 
REMARK    3  A    between atoms: C_7  and  O_8 
REMARK    4  A    between atoms: C_7  and  C_9 
REMARK    5  A    between atoms: C_9  and  O_10 
REMARK    6  A    between atoms: O_10  and  C_11 
REMARK    7  A    between atoms: N_23  and  C_24 
REMARK    8  A    between atoms: C_24  and  C_25 
REMARK    9  A    between atoms: C_25  and  N_26 
ROOT
HETATM    1  C   UNL     1      23.103  50.834  47.807  1.00  0.00     0.002 A 
HETATM    2  C   UNL     1      21.976  50.014  47.807  1.00  0.00     0.032 A 
HETATM    3  C   UNL     1      22.128  48.727  48.291  1.00  0.00     0.079 A 
HETATM    4  C   UNL     1      23.361  48.218  48.778  1.00  0.00     0.079 A 
HETATM    5  N   UNL     1      23.165  46.897  49.206  1.00  0.00    -0.179 N 
HETATM    6  C   UNL     1      21.815  46.566  48.841  1.00  0.00     0.681 A 
HETATM    7  N   UNL     1      21.266  45.331  48.930  1.00  0.00    -0.234 N 
HETATM    8  H   UNL     1      20.342  45.103  48.591  1.00  0.00     0.174 HD
HETATM    9  H   UNL     1      21.805  44.552  49.296  1.00  0.00     0.174 HD
HETATM   10  N   UNL     1      21.136  47.684  48.348  1.00  0.00    -0.180 N 
HETATM   11  C   UNL     1      24.467  49.039  48.755  1.00  0.00     0.032 A 
HETATM   12  C   UNL     1      24.333  50.349  48.273  1.00  0.00     0.002 A 
ENDROOT
BRANCH   5  13
HETATM   13  C   UNL     1      24.226  45.878  49.293  1.00  0.00     0.181 C 
BRANCH  13  14
HETATM   14  C   UNL     1      24.673  45.342  50.664  1.00  0.00     0.161 C 
BRANCH  14  15
HETATM   15  O   UNL     1      23.638  44.517  51.205  1.00  0.00    -0.392 OA
HETATM   16  H   UNL     1      23.319  44.955  52.022  1.00  0.00     0.210 HD
ENDBRANCH  14  15
BRANCH  14  17
HETATM   17  C   UNL     1      26.027  44.627  50.708  1.00  0.00     0.209 C 
BRANCH  17  18
HETATM   18  O   UNL     1      25.917  43.602  51.712  1.00  0.00    -0.347 OA
BRANCH  18  19
HETATM   19  C   UNL     1      27.011  43.549  52.536  1.00  0.00     0.090 A 
HETATM   20  C   UNL     1      26.960  44.146  53.803  1.00  0.00     0.069 A 
HETATM   21 CL   UNL     1      25.509  44.876  54.385  1.00  0.00    -0.081 Cl
HETATM   22  C   UNL     1      28.084  44.139  54.630  1.00  0.00     0.050 A 
HETATM   23  C   UNL     1      29.260  43.551  54.174  1.00  0.00     0.035 A 
HETATM   24 CL   UNL     1      30.651  43.533  55.185  1.00  0.00    -0.084 Cl
HETATM   25  C   UNL     1      29.326  42.977  52.902  1.00  0.00     0.026 A 
HETATM   26  C   UNL     1      28.200  42.981  52.077  1.00  0.00     0.040 A 
ENDBRANCH  18  19
ENDBRANCH  17  18
ENDBRANCH  14  17
ENDBRANCH  13  14
ENDBRANCH   5  13
BRANCH  10  27
HETATM   27  C   UNL     1      19.784  47.771  47.771  1.00  0.00     0.175 C 
BRANCH  27  28
HETATM   28  C   UNL     1      18.720  48.187  48.806  1.00  0.00     0.256 C 
BRANCH  28  29
HETATM   29  N   UNL     1      18.421  49.672  48.852  1.00  0.00    -0.066 N 
HETATM   30  H   UNL     1      18.894  50.078  48.030  1.00  0.00     0.280 HD
HETATM   31  C   UNL     1      16.940  50.023  48.652  1.00  0.00     0.261 C 
HETATM   32  C   UNL     1      16.780  51.547  48.577  1.00  0.00     0.195 C 
HETATM   33  O   UNL     1      17.303  52.161  49.758  1.00  0.00    -0.388 OA
HETATM   34  C   UNL     1      18.707  51.928  49.908  1.00  0.00     0.195 C 
HETATM   35  C   UNL     1      18.986  50.428  50.059  1.00  0.00     0.261 C 
ENDBRANCH  28  29
ENDBRANCH  27  28
ENDBRANCH  10  27
TORSDOF 9
ENDMDL
MODEL 8
REMARK VINA RESULT:      -8.1      3.544      9.379
REMARK  9 active torsions:
REMARK  status: ('A' for Active; 'I' for Inactive)
REMARK    1  A    between atoms: N_5  and  C_6 
REMARK    2  A    between atoms: C_6  and  C_7 
REMARK    3  A    between atoms: C_7  and  O_8 
REMARK    4  A    between atoms: C_7  and  C_9 
REMARK    5  A    between atoms: C_9  and  O_10 
REMARK    6  A    between atoms: O_10  and  C_11 
REMARK    7  A    between atoms: N_23  and  C_24 
REMARK    8  A    between atoms: C_24  and  C_25 
REMARK    9  A    between atoms: C_25  and  N_26 
ROOT
HETATM    1  C   UNL     1      27.861  49.308  49.040  1.00  0.00     0.002 A 
HETATM    2  C   UNL     1      27.614  48.034  49.548  1.00  0.00     0.032 A 
HETATM    3  C   UNL     1      26.302  47.597  49.555  1.00  0.00     0.079 A 
HETATM    4  C   UNL     1      25.218  48.379  49.072  1.00  0.00     0.079 A 
HETATM    5  N   UNL     1      24.035  47.637  49.205  1.00  0.00    -0.179 N 
HETATM    6  C   UNL     1      24.403  46.439  49.906  1.00  0.00     0.681 A 
HETATM    7  N   UNL     1      23.532  45.516  50.382  1.00  0.00    -0.234 N 
HETATM    8  H   UNL     1      23.806  44.724  50.944  1.00  0.00     0.174 HD
HETATM    9  H   UNL     1      22.533  45.628  50.237  1.00  0.00     0.174 HD
HETATM   10  N   UNL     1      25.789  46.353  50.068  1.00  0.00    -0.180 N 
HETATM   11  C   UNL     1      25.481  49.640  48.587  1.00  0.00     0.032 A 
HETATM   12  C   UNL     1      26.806  50.100  48.568  1.00  0.00     0.002 A 
ENDROOT
BRANCH   5  13
HETATM   13  C   UNL     1      22.686  48.223  49.306  1.00  0.00     0.181 C 
BRANCH  13  14
HETATM   14  C   UNL     1      21.578  47.784  48.334  1.00  0.00     0.161 C 
BRANCH  14  15
HETATM   15  O   UNL     1      20.943  46.610  48.846  1.00  0.00    -0.392 OA
HETATM   16  H   UNL     1      21.196  45.866  48.259  1.00  0.00     0.210 HD
ENDBRANCH  14  15
BRANCH  14  17
HETATM   17  C   UNL     1      20.543  48.848  47.954  1.00  0.00     0.209 C 
BRANCH  17  18
HETATM   18  O   UNL     1      20.843  50.013  48.743  1.00  0.00    -0.347 OA
BRANCH  18  19
HETATM   19  C   UNL     1      19.743  50.798  48.966  1.00  0.00     0.090 A 
HETATM   20  C   UNL     1      18.753  50.374  49.863  1.00  0.00     0.069 A 
HETATM   21 CL   UNL     1      18.935  48.912  50.762  1.00  0.00    -0.081 Cl
HETATM   22  C   UNL     1      17.606  51.143  50.061  1.00  0.00     0.050 A 
HETATM   23  C   UNL     1      17.448  52.326  49.344  1.00  0.00     0.035 A 
HETATM   24 CL   UNL     1      16.040  53.285  49.582  1.00  0.00    -0.084 Cl
HETATM   25  C   UNL     1      18.418  52.742  48.430  1.00  0.00     0.026 A 
HETATM   26  C   UNL     1      19.567  51.973  48.235  1.00  0.00     0.040 A 
ENDBRANCH  18  19
ENDBRANCH  17  18
ENDBRANCH  14  17
ENDBRANCH  13  14
ENDBRANCH   5  13
BRANCH  10  27
HETATM   27  C   UNL     1      26.579  45.356  50.811  1.00  0.00     0.175 C 
BRANCH  27  28
HETATM   28  C   UNL     1      26.236  45.323  52.314  1.00  0.00     0.256 C 
BRANCH  28  29
HETATM   29  N   UNL     1      27.434  45.335  53.241  1.00  0.00    -0.066 N 
HETATM   30  H   UNL     1      28.217  45.710  52.683  1.00  0.00     0.280 HD
HETATM   31  C   UNL     1      27.307  46.308  54.422  1.00  0.00     0.261 C 
HETATM   32  C   UNL     1      28.625  46.338  55.205  1.00  0.00     0.195 C 
HETATM   33  O   UNL     1      28.968  45.022  55.652  1.00  0.00    -0.388 OA
HETATM   34  C   UNL     1      29.191  44.125  54.560  1.00  0.00     0.195 C 
HETATM   35  C   UNL     1      27.910  43.964  53.733  1.00  0.00     0.261 C 
ENDBRANCH  28  29
ENDBRANCH  27  28
ENDBRANCH  10  27
TORSDOF 9
ENDMDL
MODEL 9
REMARK VINA RESULT:      -8.0      1.750      2.672
REMARK  9 active torsions:
REMARK  status: ('A' for Active; 'I' for Inactive)
REMARK    1  A    between atoms: N_5  and  C_6 
REMARK    2  A    between atoms: C_6  and  C_7 
REMARK    3  A    between atoms: C_7  and  O_8 
REMARK    4  A    between atoms: C_7  and  C_9 
REMARK    5  A    between atoms: C_9  and  O_10 
REMARK    6  A    between atoms: O_10  and  C_11 
REMARK    7  A    between atoms: N_23  and  C_24 
REMARK    8  A    between atoms: C_24  and  C_25 
REMARK    9  A    between atoms: C_25  and  N_26 
ROOT
HETATM    1  C   UNL     1      23.542  50.694  47.895  1.00  0.00     0.002 A 
HETATM    2  C   UNL     1      22.352  49.981  47.761  1.00  0.00     0.032 A 
HETATM    3  C   UNL     1      22.326  48.690  48.258  1.00  0.00     0.079 A 
HETATM    4  C   UNL     1      23.440  48.076  48.889  1.00  0.00     0.079 A 
HETATM    5  N   UNL     1      23.074  46.783  49.291  1.00  0.00    -0.179 N 
HETATM    6  C   UNL     1      21.752  46.573  48.768  1.00  0.00     0.681 A 
HETATM    7  N   UNL     1      21.084  45.395  48.789  1.00  0.00    -0.234 N 
HETATM    8  H   UNL     1      20.191  45.248  48.343  1.00  0.00     0.174 HD
HETATM    9  H   UNL     1      21.502  44.574  49.217  1.00  0.00     0.174 HD
HETATM   10  N   UNL     1      21.242  47.744  48.197  1.00  0.00    -0.180 N 
HETATM   11  C   UNL     1      24.612  48.792  48.999  1.00  0.00     0.032 A 
HETATM   12  C   UNL     1      24.657  50.103  48.505  1.00  0.00     0.002 A 
ENDROOT
BRANCH   5  13
HETATM   13  C   UNL     1      24.018  45.673  49.504  1.00  0.00     0.181 C 
BRANCH  13  14
HETATM   14  C   UNL     1      24.009  44.893  50.830  1.00  0.00     0.161 C 
BRANCH  14  15
HETATM   15  O   UNL     1      22.818  44.104  50.901  1.00  0.00    -0.392 OA
HETATM   16  H   UNL     1      22.590  43.844  49.983  1.00  0.00     0.210 HD
ENDBRANCH  14  15
BRANCH  14  17
HETATM   17  C   UNL     1      25.249  44.046  51.133  1.00  0.00     0.209 C 
BRANCH  17  18
HETATM   18  O   UNL     1      26.376  44.940  51.094  1.00  0.00    -0.347 OA
BRANCH  18  19
HETATM   19  C   UNL     1      26.876  45.214  52.341  1.00  0.00     0.090 A 
HETATM   20  C   UNL     1      27.846  44.374  52.904  1.00  0.00     0.069 A 
HETATM   21 CL   UNL     1      28.491  43.040  52.018  1.00  0.00    -0.081 Cl
HETATM   22  C   UNL     1      28.327  44.617  54.190  1.00  0.00     0.050 A 
HETATM   23  C   UNL     1      27.817  45.691  54.915  1.00  0.00     0.035 A 
HETATM   24 CL   UNL     1      28.404  46.003  56.502  1.00  0.00    -0.084 Cl
HETATM   25  C   UNL     1      26.832  46.517  54.370  1.00  0.00     0.026 A 
HETATM   26  C   UNL     1      26.354  46.275  53.081  1.00  0.00     0.040 A 
ENDBRANCH  18  19
ENDBRANCH  17  18
ENDBRANCH  14  17
ENDBRANCH  13  14
ENDBRANCH   5  13
BRANCH  10  27
HETATM   27  C   UNL     1      19.982  47.947  47.462  1.00  0.00     0.175 C 
BRANCH  27  28
HETATM   28  C   UNL     1      18.800  48.293  48.391  1.00  0.00     0.256 C 
BRANCH  28  29
HETATM   29  N   UNL     1      18.489  49.771  48.504  1.00  0.00    -0.066 N 
HETATM   30  H   UNL     1      17.481  49.831  48.712  1.00  0.00     0.280 HD
HETATM   31  C   UNL     1      19.165  50.467  49.695  1.00  0.00     0.261 C 
HETATM   32  C   UNL     1      18.669  51.916  49.790  1.00  0.00     0.195 C 
HETATM   33  O   UNL     1      18.929  52.612  48.567  1.00  0.00    -0.388 OA
HETATM   34  C   UNL     1      18.225  52.037  47.462  1.00  0.00     0.195 C 
HETATM   35  C   UNL     1      18.689  50.594  47.228  1.00  0.00     0.261 C 
ENDBRANCH  28  29
ENDBRANCH  27  28
ENDBRANCH  10  27
TORSDOF 9
ENDMDL
MODEL 10
REMARK VINA RESULT:      -8.0      2.264      3.658
REMARK  9 active torsions:
REMARK  status: ('A' for Active; 'I' for Inactive)
REMARK    1  A    between atoms: N_5  and  C_6 
REMARK    2  A    between atoms: C_6  and  C_7 
REMARK    3  A    between atoms: C_7  and  O_8 
REMARK    4  A    between atoms: C_7  and  C_9 
REMARK    5  A    between atoms: C_9  and  O_10 
REMARK    6  A    between atoms: O_10  and  C_11 
REMARK    7  A    between atoms: N_23  and  C_24 
REMARK    8  A    between atoms: C_24  and  C_25 
REMARK    9  A    between atoms: C_25  and  N_26 
ROOT
HETATM    1  C   UNL     1      23.793  42.445  47.553  1.00  0.00     0.002 A 
HETATM    2  C   UNL     1      23.260  43.713  47.773  1.00  0.00     0.032 A 
HETATM    3  C   UNL     1      23.898  44.519  48.699  1.00  0.00     0.079 A 
HETATM    4  C   UNL     1      25.053  44.112  49.420  1.00  0.00     0.079 A 
HETATM    5  N   UNL     1      25.455  45.164  50.256  1.00  0.00    -0.179 N 
HETATM    6  C   UNL     1      24.438  46.172  50.130  1.00  0.00     0.681 A 
HETATM    7  N   UNL     1      24.352  47.290  50.889  1.00  0.00    -0.234 N 
HETATM    8  H   UNL     1      23.583  47.943  50.841  1.00  0.00     0.174 HD
HETATM    9  H   UNL     1      25.050  47.485  51.600  1.00  0.00     0.174 HD
HETATM   10  N   UNL     1      23.515  45.837  49.134  1.00  0.00    -0.180 N 
HETATM   11  C   UNL     1      25.556  42.849  49.199  1.00  0.00     0.032 A 
HETATM   12  C   UNL     1      24.926  42.020  48.261  1.00  0.00     0.002 A 
ENDROOT
BRANCH   5  13
HETATM   13  C   UNL     1      26.248  45.000  51.486  1.00  0.00     0.181 C 
BRANCH  13  14
HETATM   14  C   UNL     1      25.550  44.697  52.822  1.00  0.00     0.161 C 
BRANCH  14  15
HETATM   15  O   UNL     1      24.840  43.460  52.710  1.00  0.00    -0.392 OA
HETATM   16  H   UNL     1      24.858  43.037  53.595  1.00  0.00     0.210 HD
ENDBRANCH  14  15
BRANCH  14  17
HETATM   17  C   UNL     1      26.434  44.713  54.074  1.00  0.00     0.209 C 
BRANCH  17  18
HETATM   18  O   UNL     1      27.686  45.304  53.685  1.00  0.00    -0.347 OA
BRANCH  18  19
HETATM   19  C   UNL     1      28.733  44.888  54.466  1.00  0.00     0.090 A 
HETATM   20  C   UNL     1      29.450  43.736  54.118  1.00  0.00     0.069 A 
HETATM   21 CL   UNL     1      29.095  42.872  52.667  1.00  0.00    -0.081 Cl
HETATM   22  C   UNL     1      30.486  43.279  54.933  1.00  0.00     0.050 A 
HETATM   23  C   UNL     1      30.784  43.968  56.105  1.00  0.00     0.035 A 
HETATM   24 CL   UNL     1      32.061  43.416  57.117  1.00  0.00    -0.084 Cl
HETATM   25  C   UNL     1      30.056  45.103  56.471  1.00  0.00     0.026 A 
HETATM   26  C   UNL     1      29.022  45.562  55.654  1.00  0.00     0.040 A 
ENDBRANCH  18  19
ENDBRANCH  17  18
ENDBRANCH  14  17
ENDBRANCH  13  14
ENDBRANCH   5  13
BRANCH  10  27
HETATM   27  C   UNL     1      22.271  46.526  48.749  1.00  0.00     0.175 C 
BRANCH  27  28
HETATM   28  C   UNL     1      22.530  47.839  47.983  1.00  0.00     0.256 C 
BRANCH  28  29
HETATM   29  N   UNL     1      21.485  48.916  48.193  1.00  0.00    -0.066 N 
HETATM   30  H   UNL     1      21.055  49.074  47.269  1.00  0.00     0.280 HD
HETATM   31  C   UNL     1      20.314  48.491  49.091  1.00  0.00     0.261 C 
HETATM   32  C   UNL     1      19.259  49.604  49.116  1.00  0.00     0.195 C 
HETATM   33  O   UNL     1      19.840  50.831  49.568  1.00  0.00    -0.388 OA
HETATM   34  C   UNL     1      20.866  51.295  48.686  1.00  0.00     0.195 C 
HETATM   35  C   UNL     1      22.017  50.285  48.629  1.00  0.00     0.261 C 
ENDBRANCH  28  29
ENDBRANCH  27  28
ENDBRANCH  10  27
TORSDOF 9
ENDMDL
