MODEL 1
REMARK VINA RESULT:      -9.1      0.000      0.000
REMARK  8 active torsions:
REMARK  status: ('A' for Active; 'I' for Inactive)
REMARK    1  A    between atoms: N_2  and  C_4 
REMARK    2  A    between atoms: N_2  and  C_27 
REMARK    3  A    between atoms: C_4  and  C_5 
REMARK    4  A    between atoms: C_8  and  C_9 
REMARK    5  A    between atoms: C_9  and  N_10 
REMARK       I    between atoms: N_10  and  C_11 
REMARK    6  A    between atoms: C_11  and  C_12 
REMARK    7  A    between atoms: C_27  and  C_28 
REMARK    8  A    between atoms: C_28  and  C_29 
ROOT
HETATM    1  C   UNL     1      27.758  40.662  50.526  1.00  0.00     0.041 C 
HETATM    2  C   UNL     1      28.064  40.791  49.002  1.00  0.00    -0.004 C 
HETATM    3  C   UNL     1      26.973  41.648  48.310  1.00  0.00     0.040 C 
HETATM    4  C   UNL     1      25.626  40.900  48.313  1.00  0.00     0.206 C 
HETATM    5  N   UNL     1      25.774  39.772  49.331  1.00  0.00    -0.065 N 
HETATM    6  H   UNL     1      24.827  39.385  49.516  1.00  0.00     0.280 HD
HETATM    7  C   UNL     1      26.290  40.240  50.678  1.00  0.00     0.242 C 
HETATM    8  C   UNL     1      28.001  39.363  48.402  1.00  0.00     0.032 C 
HETATM    9  C   UNL     1      26.666  38.692  48.758  1.00  0.00     0.236 C 
ENDROOT
BRANCH   4  10
HETATM   10  C   UNL     1      24.398  41.807  48.574  1.00  0.00     0.156 C 
BRANCH  10  11
HETATM   11  N   UNL     1      24.703  43.030  49.310  1.00  0.00    -0.355 N 
HETATM   12  C   UNL     1      24.000  43.415  50.431  1.00  0.00     0.251 C 
HETATM   13  O   UNL     1      22.962  42.851  50.768  1.00  0.00    -0.268 OA
HETATM   14  H   UNL     1      25.631  43.429  49.186  1.00  0.00     0.162 HD
BRANCH  12  15
HETATM   15  C   UNL     1      24.530  44.568  51.198  1.00  0.00     0.034 A 
HETATM   16  C   UNL     1      25.018  44.402  52.500  1.00  0.00     0.056 A 
HETATM   17  C   UNL     1      25.539  45.515  53.126  1.00  0.00     0.106 A 
HETATM   18  C   UNL     1      25.579  46.745  52.515  1.00  0.00     0.105 A 
HETATM   19  O   UNL     1      26.074  45.538  54.375  1.00  0.00    -0.323 OA
HETATM   20  O   UNL     1      26.139  47.697  53.306  1.00  0.00    -0.323 OA
HETATM   21  C   UNL     1      25.106  46.937  51.235  1.00  0.00     0.041 A 
HETATM   22  C   UNL     1      26.467  46.926  54.481  1.00  0.00     0.352 A 
HETATM   23  C   UNL     1      24.580  45.828  50.564  1.00  0.00     0.020 A 
ENDBRANCH  12  15
ENDBRANCH  10  11
ENDBRANCH   4  10
BRANCH   1  24
HETATM   24  C   UNL     1      28.124  41.936  51.316  1.00  0.00     0.241 C 
BRANCH  24  25
HETATM   25  N   UNL     1      29.119  41.722  52.435  1.00  0.00    -0.074 N 
HETATM   26  C   UNL     1      28.454  41.055  53.622  1.00  0.00     0.269 C 
HETATM   27  H   UNL     1      29.865  41.055  52.139  1.00  0.00     0.279 HD
BRANCH  25  28
HETATM   28  C   UNL     1      29.900  42.968  52.857  1.00  0.00     0.240 C 
BRANCH  28  29
HETATM   29  C   UNL     1      29.106  43.867  53.816  1.00  0.00     0.087 C 
BRANCH  29  30
HETATM   30  C   UNL     1      29.769  44.084  55.159  1.00  0.00     0.035 A 
HETATM   31  N   UNL     1      29.433  45.206  55.865  1.00  0.00    -0.266 NA
HETATM   32  C   UNL     1      30.112  45.413  57.028  1.00  0.00     0.117 A 
HETATM   33  C   UNL     1      31.091  44.569  57.519  1.00  0.00     0.019 A 
HETATM   34  C   UNL     1      31.415  43.440  56.779  1.00  0.00     0.003 A 
HETATM   35  C   UNL     1      30.754  43.194  55.580  1.00  0.00     0.027 A 
ENDBRANCH  29  30
ENDBRANCH  28  29
ENDBRANCH  25  28
ENDBRANCH  24  25
ENDBRANCH   1  24
TORSDOF 8
ENDMDL
MODEL 2
REMARK VINA RESULT:      -9.0      1.602      2.105
REMARK  8 active torsions:
REMARK  status: ('A' for Active; 'I' for Inactive)
REMARK    1  A    between atoms: N_2  and  C_4 
REMARK    2  A    between atoms: N_2  and  C_27 
REMARK    3  A    between atoms: C_4  and  C_5 
REMARK    4  A    between atoms: C_8  and  C_9 
REMARK    5  A    between atoms: C_9  and  N_10 
REMARK       I    between atoms: N_10  and  C_11 
REMARK    6  A    between atoms: C_11  and  C_12 
REMARK    7  A    between atoms: C_27  and  C_28 
REMARK    8  A    between atoms: C_28  and  C_29 
ROOT
HETATM    1  C   UNL     1      27.903  40.812  51.044  1.00  0.00     0.041 C 
HETATM    2  C   UNL     1      28.228  40.681  49.525  1.00  0.00    -0.004 C 
HETATM    3  C   UNL     1      27.098  41.325  48.680  1.00  0.00     0.040 C 
HETATM    4  C   UNL     1      25.801  40.504  48.812  1.00  0.00     0.206 C 
HETATM    5  N   UNL     1      26.001  39.593  50.020  1.00  0.00    -0.065 N 
HETATM    6  H   UNL     1      25.077  39.184  50.267  1.00  0.00     0.280 HD
HETATM    7  C   UNL     1      26.462  40.330  51.262  1.00  0.00     0.242 C 
HETATM    8  C   UNL     1      28.266  39.166  49.196  1.00  0.00     0.032 C 
HETATM    9  C   UNL     1      26.969  38.486  49.660  1.00  0.00     0.236 C 
ENDROOT
BRANCH   4  10
HETATM   10  C   UNL     1      24.513  41.361  48.895  1.00  0.00     0.156 C 
BRANCH  10  11
HETATM   11  N   UNL     1      24.755  42.798  48.972  1.00  0.00    -0.355 N 
HETATM   12  C   UNL     1      24.746  43.489  50.165  1.00  0.00     0.251 C 
HETATM   13  O   UNL     1      24.352  42.971  51.207  1.00  0.00    -0.268 OA
HETATM   14  H   UNL     1      25.245  43.231  48.191  1.00  0.00     0.162 HD
BRANCH  12  15
HETATM   15  C   UNL     1      25.197  44.900  50.133  1.00  0.00     0.034 A 
HETATM   16  C   UNL     1      26.412  45.253  49.532  1.00  0.00     0.056 A 
HETATM   17  C   UNL     1      26.736  46.593  49.501  1.00  0.00     0.106 A 
HETATM   18  C   UNL     1      25.915  47.556  50.037  1.00  0.00     0.105 A 
HETATM   19  O   UNL     1      27.858  47.119  48.943  1.00  0.00    -0.323 OA
HETATM   20  O   UNL     1      26.420  48.807  49.889  1.00  0.00    -0.323 OA
HETATM   21  C   UNL     1      24.714  47.238  50.633  1.00  0.00     0.041 A 
HETATM   22  C   UNL     1      27.648  48.531  49.181  1.00  0.00     0.352 A 
HETATM   23  C   UNL     1      24.347  45.888  50.674  1.00  0.00     0.020 A 
ENDBRANCH  12  15
ENDBRANCH  10  11
ENDBRANCH   4  10
BRANCH   1  24
HETATM   24  C   UNL     1      28.174  42.230  51.591  1.00  0.00     0.241 C 
BRANCH  24  25
HETATM   25  N   UNL     1      27.858  42.413  53.058  1.00  0.00    -0.074 N 
HETATM   26  C   UNL     1      27.223  43.768  53.303  1.00  0.00     0.269 C 
HETATM   27  H   UNL     1      27.139  41.724  53.367  1.00  0.00     0.279 HD
BRANCH  25  28
HETATM   28  C   UNL     1      29.028  42.162  54.011  1.00  0.00     0.240 C 
BRANCH  28  29
HETATM   29  C   UNL     1      30.027  43.328  54.042  1.00  0.00     0.087 C 
BRANCH  29  30
HETATM   30  C   UNL     1      30.266  43.908  55.419  1.00  0.00     0.035 A 
HETATM   31  N   UNL     1      29.710  45.123  55.709  1.00  0.00    -0.266 NA
HETATM   32  C   UNL     1      30.016  45.652  56.926  1.00  0.00     0.117 A 
HETATM   33  C   UNL     1      30.833  45.040  57.859  1.00  0.00     0.019 A 
HETATM   34  C   UNL     1      31.387  43.809  57.537  1.00  0.00     0.003 A 
HETATM   35  C   UNL     1      31.110  43.235  56.300  1.00  0.00     0.027 A 
ENDBRANCH  29  30
ENDBRANCH  28  29
ENDBRANCH  25  28
ENDBRANCH  24  25
ENDBRANCH   1  24
TORSDOF 8
ENDMDL
MODEL 3
REMARK VINA RESULT:      -8.9      4.181      5.755
REMARK  8 active torsions:
REMARK  status: ('A' for Active; 'I' for Inactive)
REMARK    1  A    between atoms: N_2  and  C_4 
REMARK    2  A    between atoms: N_2  and  C_27 
REMARK    3  A    between atoms: C_4  and  C_5 
REMARK    4  A    between atoms: C_8  and  C_9 
REMARK    5  A    between atoms: C_9  and  N_10 
REMARK       I    between atoms: N_10  and  C_11 
REMARK    6  A    between atoms: C_11  and  C_12 
REMARK    7  A    between atoms: C_27  and  C_28 
REMARK    8  A    between atoms: C_28  and  C_29 
ROOT
HETATM    1  C   UNL     1      26.138  44.181  51.949  1.00  0.00     0.041 C 
HETATM    2  C   UNL     1      26.208  43.844  50.428  1.00  0.00    -0.004 C 
HETATM    3  C   UNL     1      26.101  45.143  49.588  1.00  0.00     0.040 C 
HETATM    4  C   UNL     1      24.693  45.752  49.726  1.00  0.00     0.206 C 
HETATM    5  N   UNL     1      24.057  45.070  50.934  1.00  0.00    -0.065 N 
HETATM    6  H   UNL     1      23.199  45.604  51.185  1.00  0.00     0.280 HD
HETATM    7  C   UNL     1      24.928  45.101  52.173  1.00  0.00     0.242 C 
HETATM    8  C   UNL     1      24.976  42.961  50.100  1.00  0.00     0.032 C 
HETATM    9  C   UNL     1      23.686  43.648  50.570  1.00  0.00     0.236 C 
ENDROOT
BRANCH   4  10
HETATM   10  C   UNL     1      24.678  47.299  49.814  1.00  0.00     0.156 C 
BRANCH  10  11
HETATM   11  N   UNL     1      23.341  47.885  49.809  1.00  0.00    -0.355 N 
HETATM   12  C   UNL     1      23.101  49.181  49.405  1.00  0.00     0.251 C 
HETATM   13  O   UNL     1      24.018  49.973  49.202  1.00  0.00    -0.268 OA
HETATM   14  H   UNL     1      22.551  47.243  49.798  1.00  0.00     0.162 HD
BRANCH  12  15
HETATM   15  C   UNL     1      21.685  49.593  49.260  1.00  0.00     0.034 A 
HETATM   16  C   UNL     1      20.724  48.701  48.766  1.00  0.00     0.056 A 
HETATM   17  C   UNL     1      19.420  49.146  48.709  1.00  0.00     0.106 A 
HETATM   18  C   UNL     1      19.061  50.410  49.110  1.00  0.00     0.105 A 
HETATM   19  O   UNL     1      18.357  48.416  48.280  1.00  0.00    -0.323 OA
HETATM   20  O   UNL     1      17.728  50.636  48.977  1.00  0.00    -0.323 OA
HETATM   21  C   UNL     1      19.985  51.308  49.599  1.00  0.00     0.041 A 
HETATM   22  C   UNL     1      17.279  49.364  48.464  1.00  0.00     0.352 A 
HETATM   23  C   UNL     1      21.317  50.888  49.683  1.00  0.00     0.020 A 
ENDBRANCH  12  15
ENDBRANCH  10  11
ENDBRANCH   4  10
BRANCH   1  24
HETATM   24  C   UNL     1      27.463  44.753  52.494  1.00  0.00     0.241 C 
BRANCH  24  25
HETATM   25  N   UNL     1      27.785  44.361  53.918  1.00  0.00    -0.074 N 
HETATM   26  C   UNL     1      27.157  43.023  54.258  1.00  0.00     0.269 C 
HETATM   27  H   UNL     1      28.810  44.209  54.034  1.00  0.00     0.279 HD
BRANCH  25  28
HETATM   28  C   UNL     1      27.457  45.417  54.974  1.00  0.00     0.240 C 
BRANCH  28  29
HETATM   29  C   UNL     1      28.690  46.225  55.405  1.00  0.00     0.087 C 
BRANCH  29  30
HETATM   30  C   UNL     1      29.728  45.421  56.160  1.00  0.00     0.035 A 
HETATM   31  N   UNL     1      30.287  44.345  55.530  1.00  0.00    -0.266 NA
HETATM   32  C   UNL     1      31.153  43.596  56.268  1.00  0.00     0.117 A 
HETATM   33  C   UNL     1      31.489  43.864  57.582  1.00  0.00     0.019 A 
HETATM   34  C   UNL     1      30.902  44.961  58.199  1.00  0.00     0.003 A 
HETATM   35  C   UNL     1      30.005  45.747  57.486  1.00  0.00     0.027 A 
ENDBRANCH  29  30
ENDBRANCH  28  29
ENDBRANCH  25  28
ENDBRANCH  24  25
ENDBRANCH   1  24
TORSDOF 8
ENDMDL
MODEL 4
REMARK VINA RESULT:      -8.8      3.661      5.371
REMARK  8 active torsions:
REMARK  status: ('A' for Active; 'I' for Inactive)
REMARK    1  A    between atoms: N_2  and  C_4 
REMARK    2  A    between atoms: N_2  and  C_27 
REMARK    3  A    between atoms: C_4  and  C_5 
REMARK    4  A    between atoms: C_8  and  C_9 
REMARK    5  A    between atoms: C_9  and  N_10 
REMARK       I    between atoms: N_10  and  C_11 
REMARK    6  A    between atoms: C_11  and  C_12 
REMARK    7  A    between atoms: C_27  and  C_28 
REMARK    8  A    between atoms: C_28  and  C_29 
ROOT
HETATM    1  C   UNL     1      27.334  44.003  52.323  1.00  0.00     0.041 C 
HETATM    2  C   UNL     1      25.961  43.548  52.905  1.00  0.00    -0.004 C 
HETATM    3  C   UNL     1      24.857  43.669  51.822  1.00  0.00     0.040 C 
HETATM    4  C   UNL     1      24.598  45.150  51.487  1.00  0.00     0.206 C 
HETATM    5  N   UNL     1      25.786  45.922  52.055  1.00  0.00    -0.065 N 
HETATM    6  H   UNL     1      25.754  46.886  51.664  1.00  0.00     0.280 HD
HETATM    7  C   UNL     1      27.129  45.360  51.634  1.00  0.00     0.242 C 
HETATM    8  C   UNL     1      25.608  44.525  54.056  1.00  0.00     0.032 C 
HETATM    9  C   UNL     1      25.674  45.978  53.563  1.00  0.00     0.236 C 
ENDROOT
BRANCH   4  10
HETATM   10  C   UNL     1      24.348  45.425  49.983  1.00  0.00     0.156 C 
BRANCH  10  11
HETATM   11  N   UNL     1      23.430  46.529  49.721  1.00  0.00    -0.355 N 
HETATM   12  C   UNL     1      23.844  47.843  49.677  1.00  0.00     0.251 C 
HETATM   13  O   UNL     1      24.970  48.177  50.037  1.00  0.00    -0.268 OA
HETATM   14  H   UNL     1      22.552  46.305  49.257  1.00  0.00     0.162 HD
BRANCH  12  15
HETATM   15  C   UNL     1      22.859  48.847  49.211  1.00  0.00     0.034 A 
HETATM   16  C   UNL     1      21.512  48.505  49.037  1.00  0.00     0.056 A 
HETATM   17  C   UNL     1      20.650  49.509  48.648  1.00  0.00     0.106 A 
HETATM   18  C   UNL     1      21.079  50.796  48.430  1.00  0.00     0.105 A 
HETATM   19  O   UNL     1      19.313  49.367  48.451  1.00  0.00    -0.323 OA
HETATM   20  O   UNL     1      20.067  51.624  48.063  1.00  0.00    -0.323 OA
HETATM   21  C   UNL     1      22.398  51.161  48.594  1.00  0.00     0.041 A 
HETATM   22  C   UNL     1      18.942  50.719  48.092  1.00  0.00     0.352 A 
HETATM   23  C   UNL     1      23.300  50.170  48.999  1.00  0.00     0.020 A 
ENDBRANCH  12  15
ENDBRANCH  10  11
ENDBRANCH   4  10
BRANCH   1  24
HETATM   24  C   UNL     1      27.978  42.935  51.414  1.00  0.00     0.241 C 
BRANCH  24  25
HETATM   25  N   UNL     1      29.147  42.200  52.031  1.00  0.00    -0.074 N 
HETATM   26  C   UNL     1      28.668  40.982  52.797  1.00  0.00     0.269 C 
HETATM   27  H   UNL     1      29.771  41.817  51.288  1.00  0.00     0.279 HD
BRANCH  25  28
HETATM   28  C   UNL     1      30.083  43.062  52.878  1.00  0.00     0.240 C 
BRANCH  28  29
HETATM   29  C   UNL     1      30.229  42.540  54.315  1.00  0.00     0.087 C 
BRANCH  29  30
HETATM   30  C   UNL     1      30.200  43.620  55.376  1.00  0.00     0.035 A 
HETATM   31  N   UNL     1      29.380  44.695  55.172  1.00  0.00    -0.266 NA
HETATM   32  C   UNL     1      29.443  45.687  56.104  1.00  0.00     0.117 A 
HETATM   33  C   UNL     1      30.265  45.660  57.216  1.00  0.00     0.019 A 
HETATM   34  C   UNL     1      31.089  44.557  57.395  1.00  0.00     0.003 A 
HETATM   35  C   UNL     1      31.066  43.526  56.463  1.00  0.00     0.027 A 
ENDBRANCH  29  30
ENDBRANCH  28  29
ENDBRANCH  25  28
ENDBRANCH  24  25
ENDBRANCH   1  24
TORSDOF 8
ENDMDL
MODEL 5
REMARK VINA RESULT:      -8.7      4.041      8.529
REMARK  8 active torsions:
REMARK  status: ('A' for Active; 'I' for Inactive)
REMARK    1  A    between atoms: N_2  and  C_4 
REMARK    2  A    between atoms: N_2  and  C_27 
REMARK    3  A    between atoms: C_4  and  C_5 
REMARK    4  A    between atoms: C_8  and  C_9 
REMARK    5  A    between atoms: C_9  and  N_10 
REMARK       I    between atoms: N_10  and  C_11 
REMARK    6  A    between atoms: C_11  and  C_12 
REMARK    7  A    between atoms: C_27  and  C_28 
REMARK    8  A    between atoms: C_28  and  C_29 
ROOT
HETATM    1  C   UNL     1      23.951  44.985  49.467  1.00  0.00     0.041 C 
HETATM    2  C   UNL     1      23.645  44.161  50.755  1.00  0.00    -0.004 C 
HETATM    3  C   UNL     1      24.928  44.021  51.616  1.00  0.00     0.040 C 
HETATM    4  C   UNL     1      25.960  43.134  50.895  1.00  0.00     0.206 C 
HETATM    5  N   UNL     1      25.494  43.043  49.444  1.00  0.00    -0.065 N 
HETATM    6  H   UNL     1      26.272  42.636  48.886  1.00  0.00     0.280 HD
HETATM    7  C   UNL     1      25.209  44.393  48.816  1.00  0.00     0.242 C 
HETATM    8  C   UNL     1      23.221  42.741  50.298  1.00  0.00     0.032 C 
HETATM    9  C   UNL     1      24.280  42.142  49.362  1.00  0.00     0.236 C 
ENDROOT
BRANCH   4  10
HETATM   10  C   UNL     1      27.424  43.617  51.042  1.00  0.00     0.156 C 
BRANCH  10  11
HETATM   11  N   UNL     1      27.801  43.980  52.404  1.00  0.00    -0.355 N 
HETATM   12  C   UNL     1      28.939  43.496  53.013  1.00  0.00     0.251 C 
HETATM   13  O   UNL     1      29.602  42.591  52.513  1.00  0.00    -0.268 OA
HETATM   14  H   UNL     1      27.398  44.834  52.787  1.00  0.00     0.162 HD
BRANCH  12  15
HETATM   15  C   UNL     1      29.312  44.090  54.319  1.00  0.00     0.034 A 
HETATM   16  C   UNL     1      30.302  43.504  55.118  1.00  0.00     0.056 A 
HETATM   17  C   UNL     1      30.624  44.146  56.295  1.00  0.00     0.106 A 
HETATM   18  C   UNL     1      30.007  45.310  56.686  1.00  0.00     0.105 A 
HETATM   19  O   UNL     1      31.570  43.737  57.182  1.00  0.00    -0.323 OA
HETATM   20  O   UNL     1      30.482  45.775  57.870  1.00  0.00    -0.323 OA
HETATM   21  C   UNL     1      29.031  45.908  55.919  1.00  0.00     0.041 A 
HETATM   22  C   UNL     1      31.486  44.784  58.178  1.00  0.00     0.352 A 
HETATM   23  C   UNL     1      28.684  45.291  54.712  1.00  0.00     0.020 A 
ENDBRANCH  12  15
ENDBRANCH  10  11
ENDBRANCH   4  10
BRANCH   1  24
HETATM   24  C   UNL     1      24.047  46.501  49.740  1.00  0.00     0.241 C 
BRANCH  24  25
HETATM   25  N   UNL     1      22.848  47.302  49.284  1.00  0.00    -0.074 N 
HETATM   26  C   UNL     1      22.279  46.730  48.000  1.00  0.00     0.269 C 
HETATM   27  H   UNL     1      22.071  47.224  49.975  1.00  0.00     0.279 HD
BRANCH  25  28
HETATM   28  C   UNL     1      23.078  48.810  49.171  1.00  0.00     0.240 C 
BRANCH  28  29
HETATM   29  C   UNL     1      22.124  49.481  48.173  1.00  0.00     0.087 C 
BRANCH  29  30
HETATM   30  C   UNL     1      20.939  50.173  48.812  1.00  0.00     0.035 A 
HETATM   31  N   UNL     1      20.197  49.467  49.718  1.00  0.00    -0.266 NA
HETATM   32  C   UNL     1      19.090  50.091  50.208  1.00  0.00     0.117 A 
HETATM   33  C   UNL     1      18.693  51.367  49.852  1.00  0.00     0.019 A 
HETATM   34  C   UNL     1      19.463  52.059  48.927  1.00  0.00     0.003 A 
HETATM   35  C   UNL     1      20.596  51.456  48.392  1.00  0.00     0.027 A 
ENDBRANCH  29  30
ENDBRANCH  28  29
ENDBRANCH  25  28
ENDBRANCH  24  25
ENDBRANCH   1  24
TORSDOF 8
ENDMDL
MODEL 6
REMARK VINA RESULT:      -8.5      1.866      2.650
REMARK  8 active torsions:
REMARK  status: ('A' for Active; 'I' for Inactive)
REMARK    1  A    between atoms: N_2  and  C_4 
REMARK    2  A    between atoms: N_2  and  C_27 
REMARK    3  A    between atoms: C_4  and  C_5 
REMARK    4  A    between atoms: C_8  and  C_9 
REMARK    5  A    between atoms: C_9  and  N_10 
REMARK       I    between atoms: N_10  and  C_11 
REMARK    6  A    between atoms: C_11  and  C_12 
REMARK    7  A    between atoms: C_27  and  C_28 
REMARK    8  A    between atoms: C_28  and  C_29 
ROOT
HETATM    1  C   UNL     1      27.250  41.178  50.878  1.00  0.00     0.041 C 
HETATM    2  C   UNL     1      28.074  41.026  49.562  1.00  0.00    -0.004 C 
HETATM    3  C   UNL     1      27.228  41.487  48.347  1.00  0.00     0.040 C 
HETATM    4  C   UNL     1      26.055  40.515  48.115  1.00  0.00     0.206 C 
HETATM    5  N   UNL     1      25.938  39.687  49.392  1.00  0.00    -0.065 N 
HETATM    6  H   UNL     1      25.032  39.175  49.356  1.00  0.00     0.280 HD
HETATM    7  C   UNL     1      25.878  40.527  50.652  1.00  0.00     0.242 C 
HETATM    8  C   UNL     1      28.379  39.516  49.387  1.00  0.00     0.032 C 
HETATM    9  C   UNL     1      27.081  38.698  49.457  1.00  0.00     0.236 C 
ENDROOT
BRANCH   4  10
HETATM   10  C   UNL     1      24.731  41.205  47.705  1.00  0.00     0.156 C 
BRANCH  10  11
HETATM   11  N   UNL     1      24.723  42.651  47.904  1.00  0.00    -0.355 N 
HETATM   12  C   UNL     1      23.677  43.309  48.515  1.00  0.00     0.251 C 
HETATM   13  O   UNL     1      22.614  42.745  48.760  1.00  0.00    -0.268 OA
HETATM   14  H   UNL     1      25.622  43.129  47.883  1.00  0.00     0.162 HD
BRANCH  12  15
HETATM   15  C   UNL     1      23.875  44.744  48.832  1.00  0.00     0.034 A 
HETATM   16  C   UNL     1      22.868  45.682  48.575  1.00  0.00     0.056 A 
HETATM   17  C   UNL     1      23.112  46.988  48.945  1.00  0.00     0.106 A 
HETATM   18  C   UNL     1      24.291  47.371  49.537  1.00  0.00     0.105 A 
HETATM   19  O   UNL     1      22.246  48.025  48.793  1.00  0.00    -0.323 OA
HETATM   20  O   UNL     1      24.317  48.698  49.826  1.00  0.00    -0.323 OA
HETATM   21  C   UNL     1      25.299  46.470  49.802  1.00  0.00     0.041 A 
HETATM   22  C   UNL     1      23.012  49.110  49.367  1.00  0.00     0.352 A 
HETATM   23  C   UNL     1      25.083  45.133  49.451  1.00  0.00     0.020 A 
ENDBRANCH  12  15
ENDBRANCH  10  11
ENDBRANCH   4  10
BRANCH   1  24
HETATM   24  C   UNL     1      27.172  42.639  51.366  1.00  0.00     0.241 C 
BRANCH  24  25
HETATM   25  N   UNL     1      26.719  42.804  52.799  1.00  0.00    -0.074 N 
HETATM   26  C   UNL     1      25.979  44.116  52.979  1.00  0.00     0.269 C 
HETATM   27  H   UNL     1      26.021  42.071  53.049  1.00  0.00     0.279 HD
BRANCH  25  28
HETATM   28  C   UNL     1      27.814  42.630  53.852  1.00  0.00     0.240 C 
BRANCH  28  29
HETATM   29  C   UNL     1      28.915  43.695  53.742  1.00  0.00     0.087 C 
BRANCH  29  30
HETATM   30  C   UNL     1      29.644  43.974  55.039  1.00  0.00     0.035 A 
HETATM   31  N   UNL     1      29.361  45.140  55.695  1.00  0.00    -0.266 NA
HETATM   32  C   UNL     1      30.097  45.397  56.812  1.00  0.00     0.117 A 
HETATM   33  C   UNL     1      31.082  44.562  57.306  1.00  0.00     0.019 A 
HETATM   34  C   UNL     1      31.351  43.387  56.617  1.00  0.00     0.003 A 
HETATM   35  C   UNL     1      30.632  43.089  55.465  1.00  0.00     0.027 A 
ENDBRANCH  29  30
ENDBRANCH  28  29
ENDBRANCH  25  28
ENDBRANCH  24  25
ENDBRANCH   1  24
TORSDOF 8
ENDMDL
MODEL 7
REMARK VINA RESULT:      -8.2      4.325      6.146
REMARK  8 active torsions:
REMARK  status: ('A' for Active; 'I' for Inactive)
REMARK    1  A    between atoms: N_2  and  C_4 
REMARK    2  A    between atoms: N_2  and  C_27 
REMARK    3  A    between atoms: C_4  and  C_5 
REMARK    4  A    between atoms: C_8  and  C_9 
REMARK    5  A    between atoms: C_9  and  N_10 
REMARK       I    between atoms: N_10  and  C_11 
REMARK    6  A    between atoms: C_11  and  C_12 
REMARK    7  A    between atoms: C_27  and  C_28 
REMARK    8  A    between atoms: C_28  and  C_29 
ROOT
HETATM    1  C   UNL     1      26.905  44.526  51.133  1.00  0.00     0.041 C 
HETATM    2  C   UNL     1      25.818  44.987  52.151  1.00  0.00    -0.004 C 
HETATM    3  C   UNL     1      24.426  45.020  51.467  1.00  0.00     0.040 C 
HETATM    4  C   UNL     1      24.379  46.135  50.407  1.00  0.00     0.206 C 
HETATM    5  N   UNL     1      25.831  46.535  50.153  1.00  0.00    -0.065 N 
HETATM    6  H   UNL     1      25.852  47.126  49.297  1.00  0.00     0.280 HD
HETATM    7  C   UNL     1      26.737  45.358  49.854  1.00  0.00     0.242 C 
HETATM    8  C   UNL     1      26.175  46.436  52.574  1.00  0.00     0.032 C 
HETATM    9  C   UNL     1      26.347  47.327  51.335  1.00  0.00     0.236 C 
ENDROOT
BRANCH   4  10
HETATM   10  C   UNL     1      23.613  45.752  49.116  1.00  0.00     0.156 C 
BRANCH  10  11
HETATM   11  N   UNL     1      22.291  46.360  49.002  1.00  0.00    -0.355 N 
HETATM   12  C   UNL     1      22.069  47.526  48.302  1.00  0.00     0.251 C 
HETATM   13  O   UNL     1      22.997  48.217  47.890  1.00  0.00    -0.268 OA
HETATM   14  H   UNL     1      21.485  45.759  49.167  1.00  0.00     0.162 HD
BRANCH  12  15
HETATM   15  C   UNL     1      20.658  47.933  48.096  1.00  0.00     0.034 A 
HETATM   16  C   UNL     1      19.605  47.120  48.531  1.00  0.00     0.056 A 
HETATM   17  C   UNL     1      18.323  47.594  48.347  1.00  0.00     0.106 A 
HETATM   18  C   UNL     1      18.071  48.809  47.757  1.00  0.00     0.105 A 
HETATM   19  O   UNL     1      17.185  46.954  48.723  1.00  0.00    -0.323 OA
HETATM   20  O   UNL     1      16.743  49.083  47.683  1.00  0.00    -0.323 OA
HETATM   21  C   UNL     1      19.088  49.630  47.320  1.00  0.00     0.041 A 
HETATM   22  C   UNL     1      16.181  47.911  48.310  1.00  0.00     0.352 A 
HETATM   23  C   UNL     1      20.403  49.187  47.500  1.00  0.00     0.020 A 
ENDBRANCH  12  15
ENDBRANCH  10  11
ENDBRANCH   4  10
BRANCH   1  24
HETATM   24  C   UNL     1      26.885  43.002  50.892  1.00  0.00     0.241 C 
BRANCH  24  25
HETATM   25  N   UNL     1      28.026  42.244  51.532  1.00  0.00    -0.074 N 
HETATM   26  C   UNL     1      28.110  40.835  50.978  1.00  0.00     0.269 C 
HETATM   27  H   UNL     1      28.940  42.681  51.285  1.00  0.00     0.279 HD
BRANCH  25  28
HETATM   28  C   UNL     1      28.030  42.245  53.062  1.00  0.00     0.240 C 
BRANCH  28  29
HETATM   29  C   UNL     1      29.446  42.340  53.649  1.00  0.00     0.087 C 
BRANCH  29  30
HETATM   30  C   UNL     1      29.674  43.547  54.533  1.00  0.00     0.035 A 
HETATM   31  N   UNL     1      30.727  43.513  55.405  1.00  0.00    -0.266 NA
HETATM   32  C   UNL     1      30.851  44.579  56.244  1.00  0.00     0.117 A 
HETATM   33  C   UNL     1      29.995  45.666  56.254  1.00  0.00     0.019 A 
HETATM   34  C   UNL     1      28.933  45.672  55.361  1.00  0.00     0.003 A 
HETATM   35  C   UNL     1      28.761  44.599  54.493  1.00  0.00     0.027 A 
ENDBRANCH  29  30
ENDBRANCH  28  29
ENDBRANCH  25  28
ENDBRANCH  24  25
ENDBRANCH   1  24
TORSDOF 8
ENDMDL
MODEL 8
REMARK VINA RESULT:      -8.1      2.346      5.554
REMARK  8 active torsions:
REMARK  status: ('A' for Active; 'I' for Inactive)
REMARK    1  A    between atoms: N_2  and  C_4 
REMARK    2  A    between atoms: N_2  and  C_27 
REMARK    3  A    between atoms: C_4  and  C_5 
REMARK    4  A    between atoms: C_8  and  C_9 
REMARK    5  A    between atoms: C_9  and  N_10 
REMARK       I    between atoms: N_10  and  C_11 
REMARK    6  A    between atoms: C_11  and  C_12 
REMARK    7  A    between atoms: C_27  and  C_28 
REMARK    8  A    between atoms: C_28  and  C_29 
ROOT
HETATM    1  C   UNL     1      26.853  44.904  51.583  1.00  0.00     0.041 C 
HETATM    2  C   UNL     1      25.421  45.344  52.018  1.00  0.00    -0.004 C 
HETATM    3  C   UNL     1      24.361  44.706  51.083  1.00  0.00     0.040 C 
HETATM    4  C   UNL     1      24.472  45.301  49.666  1.00  0.00     0.206 C 
HETATM    5  N   UNL     1      25.826  46.005  49.612  1.00  0.00    -0.065 N 
HETATM    6  H   UNL     1      26.027  46.230  48.616  1.00  0.00     0.280 HD
HETATM    7  C   UNL     1      26.978  45.134  50.070  1.00  0.00     0.242 C 
HETATM    8  C   UNL     1      25.345  46.883  51.845  1.00  0.00     0.032 C 
HETATM    9  C   UNL     1      25.760  47.282  50.422  1.00  0.00     0.236 C 
ENDROOT
BRANCH   4  10
HETATM   10  C   UNL     1      24.269  44.271  48.528  1.00  0.00     0.156 C 
BRANCH  10  11
HETATM   11  N   UNL     1      25.136  43.100  48.619  1.00  0.00    -0.355 N 
HETATM   12  C   UNL     1      24.642  41.820  48.753  1.00  0.00     0.251 C 
HETATM   13  O   UNL     1      23.455  41.609  48.988  1.00  0.00    -0.268 OA
HETATM   14  H   UNL     1      26.086  43.194  48.264  1.00  0.00     0.162 HD
BRANCH  12  15
HETATM   15  C   UNL     1      25.612  40.705  48.637  1.00  0.00     0.034 A 
HETATM   16  C   UNL     1      26.646  40.553  49.569  1.00  0.00     0.056 A 
HETATM   17  C   UNL     1      27.476  39.462  49.419  1.00  0.00     0.106 A 
HETATM   18  C   UNL     1      27.312  38.554  48.401  1.00  0.00     0.105 A 
HETATM   19  O   UNL     1      28.514  39.144  50.236  1.00  0.00    -0.323 OA
HETATM   20  O   UNL     1      28.231  37.555  48.446  1.00  0.00    -0.323 OA
HETATM   21  C   UNL     1      26.303  38.679  47.470  1.00  0.00     0.041 A 
HETATM   22  C   UNL     1      28.985  37.922  49.621  1.00  0.00     0.352 A 
HETATM   23  C   UNL     1      25.435  39.769  47.597  1.00  0.00     0.020 A 
ENDBRANCH  12  15
ENDBRANCH  10  11
ENDBRANCH   4  10
BRANCH   1  24
HETATM   24  C   UNL     1      27.193  43.465  52.024  1.00  0.00     0.241 C 
BRANCH  24  25
HETATM   25  N   UNL     1      28.248  43.366  53.103  1.00  0.00    -0.074 N 
HETATM   26  C   UNL     1      28.648  41.921  53.328  1.00  0.00     0.269 C 
HETATM   27  H   UNL     1      29.127  43.840  52.800  1.00  0.00     0.279 HD
BRANCH  25  28
HETATM   28  C   UNL     1      27.900  44.063  54.419  1.00  0.00     0.240 C 
BRANCH  28  29
HETATM   29  C   UNL     1      28.890  45.182  54.775  1.00  0.00     0.087 C 
BRANCH  29  30
HETATM   30  C   UNL     1      29.789  44.867  55.952  1.00  0.00     0.035 A 
HETATM   31  N   UNL     1      29.720  45.682  57.047  1.00  0.00    -0.266 NA
HETATM   32  C   UNL     1      30.603  45.421  58.051  1.00  0.00     0.117 A 
HETATM   33  C   UNL     1      31.534  44.399  58.023  1.00  0.00     0.019 A 
HETATM   34  C   UNL     1      31.584  43.589  56.896  1.00  0.00     0.003 A 
HETATM   35  C   UNL     1      30.708  43.826  55.842  1.00  0.00     0.027 A 
ENDBRANCH  29  30
ENDBRANCH  28  29
ENDBRANCH  25  28
ENDBRANCH  24  25
ENDBRANCH   1  24
TORSDOF 8
ENDMDL
MODEL 9
REMARK VINA RESULT:      -8.1      2.216      6.641
REMARK  8 active torsions:
REMARK  status: ('A' for Active; 'I' for Inactive)
REMARK    1  A    between atoms: N_2  and  C_4 
REMARK    2  A    between atoms: N_2  and  C_27 
REMARK    3  A    between atoms: C_4  and  C_5 
REMARK    4  A    between atoms: C_8  and  C_9 
REMARK    5  A    between atoms: C_9  and  N_10 
REMARK       I    between atoms: N_10  and  C_11 
REMARK    6  A    between atoms: C_11  and  C_12 
REMARK    7  A    between atoms: C_27  and  C_28 
REMARK    8  A    between atoms: C_28  and  C_29 
ROOT
HETATM    1  C   UNL     1      25.700  43.367  50.811  1.00  0.00     0.041 C 
HETATM    2  C   UNL     1      25.976  44.343  49.627  1.00  0.00    -0.004 C 
HETATM    3  C   UNL     1      26.314  45.757  50.168  1.00  0.00     0.040 C 
HETATM    4  C   UNL     1      25.073  46.385  50.830  1.00  0.00     0.206 C 
HETATM    5  N   UNL     1      24.089  45.238  51.051  1.00  0.00    -0.065 N 
HETATM    6  H   UNL     1      23.338  45.581  51.683  1.00  0.00     0.280 HD
HETATM    7  C   UNL     1      24.701  44.046  51.759  1.00  0.00     0.242 C 
HETATM    8  C   UNL     1      24.664  44.448  48.807  1.00  0.00     0.032 C 
HETATM    9  C   UNL     1      23.491  44.828  49.722  1.00  0.00     0.236 C 
ENDROOT
BRANCH   4  10
HETATM   10  C   UNL     1      25.379  47.188  52.119  1.00  0.00     0.156 C 
BRANCH  10  11
HETATM   11  N   UNL     1      26.553  46.721  52.850  1.00  0.00    -0.355 N 
HETATM   12  C   UNL     1      26.612  46.710  54.227  1.00  0.00     0.251 C 
HETATM   13  O   UNL     1      25.757  47.263  54.914  1.00  0.00    -0.268 OA
HETATM   14  H   UNL     1      27.198  46.108  52.354  1.00  0.00     0.162 HD
BRANCH  12  15
HETATM   15  C   UNL     1      27.775  46.032  54.848  1.00  0.00     0.034 A 
HETATM   16  C   UNL     1      28.318  46.496  56.053  1.00  0.00     0.056 A 
HETATM   17  C   UNL     1      29.367  45.780  56.590  1.00  0.00     0.106 A 
HETATM   18  C   UNL     1      29.876  44.660  55.979  1.00  0.00     0.105 A 
HETATM   19  O   UNL     1      30.002  46.069  57.757  1.00  0.00    -0.323 OA
HETATM   20  O   UNL     1      30.899  44.107  56.681  1.00  0.00    -0.323 OA
HETATM   21  C   UNL     1      29.362  44.181  54.793  1.00  0.00     0.041 A 
HETATM   22  C   UNL     1      30.968  44.993  57.819  1.00  0.00     0.352 A 
HETATM   23  C   UNL     1      28.289  44.875  54.224  1.00  0.00     0.020 A 
ENDBRANCH  12  15
ENDBRANCH  10  11
ENDBRANCH   4  10
BRANCH   1  24
HETATM   24  C   UNL     1      26.994  42.894  51.506  1.00  0.00     0.241 C 
BRANCH  24  25
HETATM   25  N   UNL     1      26.993  41.440  51.921  1.00  0.00    -0.074 N 
HETATM   26  C   UNL     1      28.199  41.130  52.787  1.00  0.00     0.269 C 
HETATM   27  H   UNL     1      26.171  41.232  52.529  1.00  0.00     0.279 HD
BRANCH  25  28
HETATM   28  C   UNL     1      26.854  40.436  50.776  1.00  0.00     0.240 C 
BRANCH  28  29
HETATM   29  C   UNL     1      27.767  40.766  49.586  1.00  0.00     0.087 C 
BRANCH  29  30
HETATM   30  C   UNL     1      28.082  39.583  48.696  1.00  0.00     0.035 A 
HETATM   31  N   UNL     1      29.126  38.774  49.049  1.00  0.00    -0.266 NA
HETATM   32  C   UNL     1      29.434  37.771  48.181  1.00  0.00     0.117 A 
HETATM   33  C   UNL     1      28.760  37.532  46.997  1.00  0.00     0.019 A 
HETATM   34  C   UNL     1      27.707  38.371  46.661  1.00  0.00     0.003 A 
HETATM   35  C   UNL     1      27.365  39.415  47.513  1.00  0.00     0.027 A 
ENDBRANCH  29  30
ENDBRANCH  28  29
ENDBRANCH  25  28
ENDBRANCH  24  25
ENDBRANCH   1  24
TORSDOF 8
ENDMDL
MODEL 10
REMARK VINA RESULT:      -8.0      6.442     11.149
REMARK  8 active torsions:
REMARK  status: ('A' for Active; 'I' for Inactive)
REMARK    1  A    between atoms: N_2  and  C_4 
REMARK    2  A    between atoms: N_2  and  C_27 
REMARK    3  A    between atoms: C_4  and  C_5 
REMARK    4  A    between atoms: C_8  and  C_9 
REMARK    5  A    between atoms: C_9  and  N_10 
REMARK       I    between atoms: N_10  and  C_11 
REMARK    6  A    between atoms: C_11  and  C_12 
REMARK    7  A    between atoms: C_27  and  C_28 
REMARK    8  A    between atoms: C_28  and  C_29 
ROOT
HETATM    1  C   UNL     1      20.308  49.578  48.014  1.00  0.00     0.041 C 
HETATM    2  C   UNL     1      21.648  50.269  47.617  1.00  0.00    -0.004 C 
HETATM    3  C   UNL     1      22.801  49.232  47.606  1.00  0.00     0.040 C 
HETATM    4  C   UNL     1      23.093  48.744  49.038  1.00  0.00     0.206 C 
HETATM    5  N   UNL     1      21.891  49.167  49.879  1.00  0.00    -0.065 N 
HETATM    6  H   UNL     1      21.953  48.673  50.792  1.00  0.00     0.280 HD
HETATM    7  C   UNL     1      20.561  48.751  49.283  1.00  0.00     0.242 C 
HETATM    8  C   UNL     1      21.962  51.319  48.715  1.00  0.00     0.032 C 
HETATM    9  C   UNL     1      21.937  50.663  50.104  1.00  0.00     0.236 C 
ENDROOT
BRANCH   4  10
HETATM   10  C   UNL     1      23.413  47.232  49.140  1.00  0.00     0.156 C 
BRANCH  10  11
HETATM   11  N   UNL     1      24.074  46.842  50.382  1.00  0.00    -0.355 N 
HETATM   12  C   UNL     1      25.237  46.103  50.402  1.00  0.00     0.251 C 
HETATM   13  O   UNL     1      25.682  45.573  49.387  1.00  0.00    -0.268 OA
HETATM   14  H   UNL     1      23.855  47.384  51.216  1.00  0.00     0.162 HD
BRANCH  12  15
HETATM   15  C   UNL     1      25.911  45.940  51.712  1.00  0.00     0.034 A 
HETATM   16  C   UNL     1      26.790  44.874  51.941  1.00  0.00     0.056 A 
HETATM   17  C   UNL     1      27.415  44.822  53.169  1.00  0.00     0.106 A 
HETATM   18  C   UNL     1      27.192  45.766  54.142  1.00  0.00     0.105 A 
HETATM   19  O   UNL     1      28.310  43.877  53.558  1.00  0.00    -0.323 OA
HETATM   20  O   UNL     1      27.914  45.529  55.267  1.00  0.00    -0.323 OA
HETATM   21  C   UNL     1      26.333  46.826  53.945  1.00  0.00     0.041 A 
HETATM   22  C   UNL     1      28.636  44.337  54.890  1.00  0.00     0.352 A 
HETATM   23  C   UNL     1      25.689  46.917  52.706  1.00  0.00     0.020 A 
ENDBRANCH  12  15
ENDBRANCH  10  11
ENDBRANCH   4  10
BRANCH   1  24
HETATM   24  C   UNL     1      19.692  48.766  46.855  1.00  0.00     0.241 C 
BRANCH  24  25
HETATM   25  N   UNL     1      18.206  48.971  46.660  1.00  0.00    -0.074 N 
HETATM   26  C   UNL     1      17.493  47.637  46.551  1.00  0.00     0.269 C 
HETATM   27  H   UNL     1      17.786  49.428  47.498  1.00  0.00     0.279 HD
BRANCH  25  28
HETATM   28  C   UNL     1      17.824  49.906  45.512  1.00  0.00     0.240 C 
BRANCH  28  29
HETATM   29  C   UNL     1      17.868  51.387  45.916  1.00  0.00     0.087 C 
BRANCH  29  30
HETATM   30  C   UNL     1      17.405  51.661  47.331  1.00  0.00     0.035 A 
HETATM   31  N   UNL     1      16.133  51.292  47.671  1.00  0.00    -0.266 NA
HETATM   32  C   UNL     1      15.722  51.631  48.925  1.00  0.00     0.117 A 
HETATM   33  C   UNL     1      16.504  52.303  49.846  1.00  0.00     0.019 A 
HETATM   34  C   UNL     1      17.790  52.669  49.472  1.00  0.00     0.003 A 
HETATM   35  C   UNL     1      18.248  52.353  48.197  1.00  0.00     0.027 A 
ENDBRANCH  29  30
ENDBRANCH  28  29
ENDBRANCH  25  28
ENDBRANCH  24  25
ENDBRANCH   1  24
TORSDOF 8
ENDMDL
