MODEL 1
REMARK VINA RESULT:      -9.9      0.000      0.000
REMARK  6 active torsions:
REMARK  status: ('A' for Active; 'I' for Inactive)
REMARK    1  A    between atoms: C_3  and  N_4 
REMARK    2  A    between atoms: N_4  and  C_5 
REMARK    3  A    between atoms: C_12  and  C_13 
REMARK       I    between atoms: C_13  and  N_14 
REMARK    4  A    between atoms: N_14  and  C_15 
REMARK    5  A    between atoms: C_15  and  C_16 
REMARK    6  A    between atoms: C_16  and  C_17 
ROOT
HETATM    1  C   UNL     1      26.090  46.598  50.688  1.00  0.00     0.251 C 
HETATM    2  N   UNL     1      25.340  46.619  51.850  1.00  0.00    -0.357 N 
HETATM    3  O   UNL     1      26.781  45.638  50.359  1.00  0.00    -0.268 OA
HETATM    4  H   UNL     1      25.024  47.514  52.203  1.00  0.00     0.162 HD
ENDROOT
BRANCH   1   5
HETATM    5  C   UNL     1      26.072  47.824  49.842  1.00  0.00     0.034 A 
HETATM    6  C   UNL     1      24.879  48.402  49.378  1.00  0.00     0.047 A 
HETATM    7  C   UNL     1      24.896  49.557  48.587  1.00  0.00     0.050 A 
HETATM    8  C   UNL     1      26.145  50.109  48.253  1.00  0.00     0.030 A 
HETATM    9  C   UNL     1      27.337  49.533  48.693  1.00  0.00     0.003 A 
HETATM   10  C   UNL     1      27.300  48.392  49.486  1.00  0.00     0.017 A 
BRANCH   7  11
HETATM   11  N   UNL     1      23.745  50.185  48.096  1.00  0.00    -0.188 N 
HETATM   12  H   UNL     1      23.774  50.525  47.146  1.00  0.00     0.184 HD
BRANCH  11  13
HETATM   13  C   UNL     1      22.515  50.527  48.648  1.00  0.00     0.726 A 
HETATM   14  N   UNL     1      22.358  50.743  49.962  1.00  0.00    -0.075 NA
HETATM   15  C   UNL     1      21.122  51.061  50.393  1.00  0.00     0.138 A 
HETATM   16  C   UNL     1      20.037  51.183  49.564  1.00  0.00     0.040 A 
HETATM   17  C   UNL     1      20.291  50.947  48.239  1.00  0.00     0.138 A 
HETATM   18  N   UNL     1      21.507  50.619  47.762  1.00  0.00    -0.075 NA
ENDBRANCH  11  13
ENDBRANCH   7  11
ENDBRANCH   1   5
BRANCH   2  19
HETATM   19  C   UNL     1      25.456  45.532  52.806  1.00  0.00     0.127 C 
BRANCH  19  20
HETATM   20  C   UNL     1      26.470  45.808  53.916  1.00  0.00     0.060 C 
BRANCH  20  21
HETATM   21  C   UNL     1      27.577  44.799  54.001  1.00  0.00    -0.029 A 
HETATM   22  C   UNL     1      28.695  44.819  54.898  1.00  0.00     0.001 A 
HETATM   23  C   UNL     1      29.450  43.668  54.655  1.00  0.00     0.043 A 
HETATM   24  C   UNL     1      29.132  45.705  55.903  1.00  0.00     0.056 A 
HETATM   25  C   UNL     1      30.616  43.355  55.365  1.00  0.00     0.033 A 
HETATM   26  N   UNL     1      28.820  42.978  53.646  1.00  0.00    -0.365 N 
HETATM   27  C   UNL     1      31.026  44.249  56.358  1.00  0.00     0.044 A 
HETATM   28  C   UNL     1      30.291  45.398  56.614  1.00  0.00     0.117 A 
HETATM   29  F   UNL     1      30.715  46.244  57.565  1.00  0.00    -0.206 F 
HETATM   30  H   UNL     1      29.142  42.100  53.263  1.00  0.00     0.165 HD
HETATM   31  C   UNL     1      27.689  43.642  53.254  1.00  0.00     0.096 A 
ENDBRANCH  20  21
ENDBRANCH  19  20
ENDBRANCH   2  19
TORSDOF 6
ENDMDL
MODEL 2
REMARK VINA RESULT:      -9.6      1.625      2.196
REMARK  6 active torsions:
REMARK  status: ('A' for Active; 'I' for Inactive)
REMARK    1  A    between atoms: C_3  and  N_4 
REMARK    2  A    between atoms: N_4  and  C_5 
REMARK    3  A    between atoms: C_12  and  C_13 
REMARK       I    between atoms: C_13  and  N_14 
REMARK    4  A    between atoms: N_14  and  C_15 
REMARK    5  A    between atoms: C_15  and  C_16 
REMARK    6  A    between atoms: C_16  and  C_17 
ROOT
HETATM    1  C   UNL     1      26.627  45.111  50.768  1.00  0.00     0.251 C 
HETATM    2  N   UNL     1      26.497  44.883  52.125  1.00  0.00    -0.357 N 
HETATM    3  O   UNL     1      27.240  44.354  50.021  1.00  0.00    -0.268 OA
HETATM    4  H   UNL     1      26.232  45.658  52.721  1.00  0.00     0.162 HD
ENDROOT
BRANCH   1   5
HETATM    5  C   UNL     1      26.020  46.359  50.224  1.00  0.00     0.034 A 
HETATM    6  C   UNL     1      24.632  46.544  50.131  1.00  0.00     0.047 A 
HETATM    7  C   UNL     1      24.093  47.731  49.619  1.00  0.00     0.050 A 
HETATM    8  C   UNL     1      24.986  48.723  49.180  1.00  0.00     0.030 A 
HETATM    9  C   UNL     1      26.368  48.543  49.251  1.00  0.00     0.003 A 
HETATM   10  C   UNL     1      26.884  47.362  49.772  1.00  0.00     0.017 A 
BRANCH   7  11
HETATM   11  N   UNL     1      22.720  47.980  49.503  1.00  0.00    -0.188 N 
HETATM   12  H   UNL     1      22.095  47.211  49.693  1.00  0.00     0.184 HD
BRANCH  11  13
HETATM   13  C   UNL     1      21.962  49.079  49.115  1.00  0.00     0.726 A 
HETATM   14  N   UNL     1      21.799  50.149  49.907  1.00  0.00    -0.075 NA
HETATM   15  C   UNL     1      21.038  51.156  49.437  1.00  0.00     0.138 A 
HETATM   16  C   UNL     1      20.440  51.144  48.202  1.00  0.00     0.040 A 
HETATM   17  C   UNL     1      20.663  50.013  47.462  1.00  0.00     0.138 A 
HETATM   18  N   UNL     1      21.410  48.977  47.893  1.00  0.00    -0.075 NA
ENDBRANCH  11  13
ENDBRANCH   7  11
ENDBRANCH   1   5
BRANCH   2  19
HETATM   19  C   UNL     1      27.215  43.784  52.747  1.00  0.00     0.127 C 
BRANCH  19  20
HETATM   20  C   UNL     1      28.636  44.153  53.170  1.00  0.00     0.060 C 
BRANCH  20  21
HETATM   21  C   UNL     1      28.716  44.893  54.473  1.00  0.00    -0.029 A 
HETATM   22  C   UNL     1      29.630  44.648  55.550  1.00  0.00     0.001 A 
HETATM   23  C   UNL     1      29.373  45.596  56.544  1.00  0.00     0.043 A 
HETATM   24  C   UNL     1      30.661  43.712  55.768  1.00  0.00     0.056 A 
HETATM   25  C   UNL     1      30.093  45.660  57.743  1.00  0.00     0.033 A 
HETATM   26  N   UNL     1      28.339  46.383  56.093  1.00  0.00    -0.365 N 
HETATM   27  C   UNL     1      31.112  44.723  57.934  1.00  0.00     0.044 A 
HETATM   28  C   UNL     1      31.383  43.772  56.960  1.00  0.00     0.117 A 
HETATM   29  F   UNL     1      32.358  42.878  57.176  1.00  0.00    -0.206 F 
HETATM   30  H   UNL     1      27.942  47.158  56.606  1.00  0.00     0.165 HD
HETATM   31  C   UNL     1      27.945  45.977  54.847  1.00  0.00     0.096 A 
ENDBRANCH  20  21
ENDBRANCH  19  20
ENDBRANCH   2  19
TORSDOF 6
ENDMDL
MODEL 3
REMARK VINA RESULT:      -9.6      2.301      3.397
REMARK  6 active torsions:
REMARK  status: ('A' for Active; 'I' for Inactive)
REMARK    1  A    between atoms: C_3  and  N_4 
REMARK    2  A    between atoms: N_4  and  C_5 
REMARK    3  A    between atoms: C_12  and  C_13 
REMARK       I    between atoms: C_13  and  N_14 
REMARK    4  A    between atoms: N_14  and  C_15 
REMARK    5  A    between atoms: C_15  and  C_16 
REMARK    6  A    between atoms: C_16  and  C_17 
ROOT
HETATM    1  C   UNL     1      25.437  44.215  52.324  1.00  0.00     0.251 C 
HETATM    2  N   UNL     1      26.682  43.677  52.055  1.00  0.00    -0.357 N 
HETATM    3  O   UNL     1      24.994  44.333  53.462  1.00  0.00    -0.268 OA
HETATM    4  H   UNL     1      26.875  43.353  51.115  1.00  0.00     0.162 HD
ENDROOT
BRANCH   1   5
HETATM    5  C   UNL     1      24.603  44.620  51.157  1.00  0.00     0.034 A 
HETATM    6  C   UNL     1      24.558  45.941  50.685  1.00  0.00     0.047 A 
HETATM    7  C   UNL     1      23.766  46.289  49.584  1.00  0.00     0.050 A 
HETATM    8  C   UNL     1      23.000  45.278  48.978  1.00  0.00     0.030 A 
HETATM    9  C   UNL     1      23.022  43.965  49.450  1.00  0.00     0.003 A 
HETATM   10  C   UNL     1      23.822  43.637  50.539  1.00  0.00     0.017 A 
BRANCH   7  11
HETATM   11  N   UNL     1      23.681  47.585  49.061  1.00  0.00    -0.188 N 
HETATM   12  H   UNL     1      24.440  47.895  48.473  1.00  0.00     0.184 HD
BRANCH  11  13
HETATM   13  C   UNL     1      22.779  48.633  49.205  1.00  0.00     0.726 A 
HETATM   14  N   UNL     1      21.454  48.452  49.107  1.00  0.00    -0.075 NA
HETATM   15  C   UNL     1      20.669  49.537  49.255  1.00  0.00     0.138 A 
HETATM   16  C   UNL     1      21.152  50.795  49.509  1.00  0.00     0.040 A 
HETATM   17  C   UNL     1      22.517  50.885  49.594  1.00  0.00     0.138 A 
HETATM   18  N   UNL     1      23.342  49.831  49.445  1.00  0.00    -0.075 NA
ENDBRANCH  11  13
ENDBRANCH   7  11
ENDBRANCH   1   5
BRANCH   2  19
HETATM   19  C   UNL     1      27.468  43.098  53.131  1.00  0.00     0.127 C 
BRANCH  19  20
HETATM   20  C   UNL     1      28.833  43.763  53.307  1.00  0.00     0.060 C 
BRANCH  20  21
HETATM   21  C   UNL     1      28.945  44.619  54.534  1.00  0.00    -0.029 A 
HETATM   22  C   UNL     1      29.841  44.434  55.637  1.00  0.00     0.001 A 
HETATM   23  C   UNL     1      29.628  45.484  56.534  1.00  0.00     0.043 A 
HETATM   24  C   UNL     1      30.825  43.475  55.952  1.00  0.00     0.056 A 
HETATM   25  C   UNL     1      30.347  45.627  57.728  1.00  0.00     0.033 A 
HETATM   26  N   UNL     1      28.636  46.274  56.003  1.00  0.00    -0.365 N 
HETATM   27  C   UNL     1      31.318  44.664  58.015  1.00  0.00     0.044 A 
HETATM   28  C   UNL     1      31.545  43.613  57.138  1.00  0.00     0.117 A 
HETATM   29  F   UNL     1      32.475  42.697  57.446  1.00  0.00    -0.206 F 
HETATM   30  H   UNL     1      28.275  47.113  56.436  1.00  0.00     0.165 HD
HETATM   31  C   UNL     1      28.226  45.770  54.798  1.00  0.00     0.096 A 
ENDBRANCH  20  21
ENDBRANCH  19  20
ENDBRANCH   2  19
TORSDOF 6
ENDMDL
MODEL 4
REMARK VINA RESULT:      -9.3      1.175      1.526
REMARK  6 active torsions:
REMARK  status: ('A' for Active; 'I' for Inactive)
REMARK    1  A    between atoms: C_3  and  N_4 
REMARK    2  A    between atoms: N_4  and  C_5 
REMARK    3  A    between atoms: C_12  and  C_13 
REMARK       I    between atoms: C_13  and  N_14 
REMARK    4  A    between atoms: N_14  and  C_15 
REMARK    5  A    between atoms: C_15  and  C_16 
REMARK    6  A    between atoms: C_16  and  C_17 
ROOT
HETATM    1  C   UNL     1      24.571  46.615  50.388  1.00  0.00     0.251 C 
HETATM    2  N   UNL     1      25.142  46.773  51.638  1.00  0.00    -0.357 N 
HETATM    3  O   UNL     1      24.302  45.517  49.912  1.00  0.00    -0.268 OA
HETATM    4  H   UNL     1      25.588  47.655  51.857  1.00  0.00     0.162 HD
ENDROOT
BRANCH   1   5
HETATM    5  C   UNL     1      24.323  47.850  49.592  1.00  0.00     0.034 A 
HETATM    6  C   UNL     1      23.035  48.247  49.198  1.00  0.00     0.047 A 
HETATM    7  C   UNL     1      22.835  49.416  48.452  1.00  0.00     0.050 A 
HETATM    8  C   UNL     1      23.966  50.168  48.091  1.00  0.00     0.030 A 
HETATM    9  C   UNL     1      25.253  49.774  48.462  1.00  0.00     0.003 A 
HETATM   10  C   UNL     1      25.431  48.616  49.211  1.00  0.00     0.017 A 
BRANCH   7  11
HETATM   11  N   UNL     1      21.579  49.869  48.033  1.00  0.00    -0.188 N 
HETATM   12  H   UNL     1      21.377  49.818  47.045  1.00  0.00     0.184 HD
BRANCH  11  13
HETATM   13  C   UNL     1      20.496  50.460  48.673  1.00  0.00     0.726 A 
HETATM   14  N   UNL     1      19.851  49.860  49.684  1.00  0.00    -0.075 NA
HETATM   15  C   UNL     1      18.809  50.516  50.230  1.00  0.00     0.138 A 
HETATM   16  C   UNL     1      18.391  51.755  49.815  1.00  0.00     0.040 A 
HETATM   17  C   UNL     1      19.110  52.292  48.780  1.00  0.00     0.138 A 
HETATM   18  N   UNL     1      20.153  51.671  48.197  1.00  0.00    -0.075 NA
ENDBRANCH  11  13
ENDBRANCH   7  11
ENDBRANCH   1   5
BRANCH   2  19
HETATM   19  C   UNL     1      25.574  45.606  52.388  1.00  0.00     0.127 C 
BRANCH  19  20
HETATM   20  C   UNL     1      26.611  45.929  53.464  1.00  0.00     0.060 C 
BRANCH  20  21
HETATM   21  C   UNL     1      27.669  44.880  53.631  1.00  0.00    -0.029 A 
HETATM   22  C   UNL     1      28.717  44.858  54.610  1.00  0.00     0.001 A 
HETATM   23  C   UNL     1      29.444  43.679  54.422  1.00  0.00     0.043 A 
HETATM   24  C   UNL     1      29.109  45.728  55.646  1.00  0.00     0.056 A 
HETATM   25  C   UNL     1      30.540  43.324  55.219  1.00  0.00     0.033 A 
HETATM   26  N   UNL     1      28.867  43.013  53.368  1.00  0.00    -0.365 N 
HETATM   27  C   UNL     1      30.906  44.202  56.241  1.00  0.00     0.044 A 
HETATM   28  C   UNL     1      30.199  45.378  56.444  1.00  0.00     0.117 A 
HETATM   29  F   UNL     1      30.581  46.208  57.425  1.00  0.00    -0.206 F 
HETATM   30  H   UNL     1      29.183  42.122  53.009  1.00  0.00     0.165 HD
HETATM   31  C   UNL     1      27.795  43.718  52.892  1.00  0.00     0.096 A 
ENDBRANCH  20  21
ENDBRANCH  19  20
ENDBRANCH   2  19
TORSDOF 6
ENDMDL
MODEL 5
REMARK VINA RESULT:      -9.1      1.959      2.556
REMARK  6 active torsions:
REMARK  status: ('A' for Active; 'I' for Inactive)
REMARK    1  A    between atoms: C_3  and  N_4 
REMARK    2  A    between atoms: N_4  and  C_5 
REMARK    3  A    between atoms: C_12  and  C_13 
REMARK       I    between atoms: C_13  and  N_14 
REMARK    4  A    between atoms: N_14  and  C_15 
REMARK    5  A    between atoms: C_15  and  C_16 
REMARK    6  A    between atoms: C_16  and  C_17 
ROOT
HETATM    1  C   UNL     1      24.913  46.851  50.254  1.00  0.00     0.251 C 
HETATM    2  N   UNL     1      25.669  47.147  51.373  1.00  0.00    -0.357 N 
HETATM    3  O   UNL     1      24.709  45.703  49.872  1.00  0.00    -0.268 OA
HETATM    4  H   UNL     1      26.029  48.088  51.477  1.00  0.00     0.162 HD
ENDROOT
BRANCH   1   5
HETATM    5  C   UNL     1      24.373  48.000  49.472  1.00  0.00     0.034 A 
HETATM    6  C   UNL     1      23.003  48.152  49.206  1.00  0.00     0.047 A 
HETATM    7  C   UNL     1      22.526  49.245  48.471  1.00  0.00     0.050 A 
HETATM    8  C   UNL     1      23.464  50.174  47.990  1.00  0.00     0.030 A 
HETATM    9  C   UNL     1      24.830  50.024  48.234  1.00  0.00     0.003 A 
HETATM   10  C   UNL     1      25.284  48.938  48.974  1.00  0.00     0.017 A 
BRANCH   7  11
HETATM   11  N   UNL     1      21.175  49.457  48.174  1.00  0.00    -0.188 N 
HETATM   12  H   UNL     1      20.788  48.945  47.396  1.00  0.00     0.184 HD
BRANCH  11  13
HETATM   13  C   UNL     1      20.188  50.292  48.686  1.00  0.00     0.726 A 
HETATM   14  N   UNL     1      19.337  49.890  49.642  1.00  0.00    -0.075 NA
HETATM   15  C   UNL     1      18.413  50.775  50.061  1.00  0.00     0.138 A 
HETATM   16  C   UNL     1      18.310  52.053  49.573  1.00  0.00     0.040 A 
HETATM   17  C   UNL     1      19.220  52.377  48.602  1.00  0.00     0.138 A 
HETATM   18  N   UNL     1      20.157  51.523  48.145  1.00  0.00    -0.075 NA
ENDBRANCH  11  13
ENDBRANCH   7  11
ENDBRANCH   1   5
BRANCH   2  19
HETATM   19  C   UNL     1      26.372  46.086  52.073  1.00  0.00     0.127 C 
BRANCH  19  20
HETATM   20  C   UNL     1      26.032  46.014  53.561  1.00  0.00     0.060 C 
BRANCH  20  21
HETATM   21  C   UNL     1      27.229  45.944  54.462  1.00  0.00    -0.029 A 
HETATM   22  C   UNL     1      28.227  44.915  54.491  1.00  0.00     0.001 A 
HETATM   23  C   UNL     1      29.174  45.275  55.454  1.00  0.00     0.043 A 
HETATM   24  C   UNL     1      28.419  43.714  53.779  1.00  0.00     0.056 A 
HETATM   25  C   UNL     1      30.304  44.498  55.740  1.00  0.00     0.033 A 
HETATM   26  N   UNL     1      28.766  46.471  55.994  1.00  0.00    -0.365 N 
HETATM   27  C   UNL     1      30.473  43.314  55.019  1.00  0.00     0.044 A 
HETATM   28  C   UNL     1      29.544  42.938  54.059  1.00  0.00     0.117 A 
HETATM   29  F   UNL     1      29.725  41.789  53.391  1.00  0.00    -0.206 F 
HETATM   30  H   UNL     1      29.263  46.974  56.716  1.00  0.00     0.165 HD
HETATM   31  C   UNL     1      27.606  46.887  55.399  1.00  0.00     0.096 A 
ENDBRANCH  20  21
ENDBRANCH  19  20
ENDBRANCH   2  19
TORSDOF 6
ENDMDL
MODEL 6
REMARK VINA RESULT:      -8.8      3.259     10.179
REMARK  6 active torsions:
REMARK  status: ('A' for Active; 'I' for Inactive)
REMARK    1  A    between atoms: C_3  and  N_4 
REMARK    2  A    between atoms: N_4  and  C_5 
REMARK    3  A    between atoms: C_12  and  C_13 
REMARK       I    between atoms: C_13  and  N_14 
REMARK    4  A    between atoms: N_14  and  C_15 
REMARK    5  A    between atoms: C_15  and  C_16 
REMARK    6  A    between atoms: C_16  and  C_17 
ROOT
HETATM    1  C   UNL     1      25.934  44.339  52.345  1.00  0.00     0.251 C 
HETATM    2  N   UNL     1      26.105  45.494  51.605  1.00  0.00    -0.357 N 
HETATM    3  O   UNL     1      24.850  43.996  52.806  1.00  0.00    -0.268 OA
HETATM    4  H   UNL     1      27.042  45.862  51.494  1.00  0.00     0.162 HD
ENDROOT
BRANCH   1   5
HETATM    5  C   UNL     1      27.148  43.516  52.614  1.00  0.00     0.034 A 
HETATM    6  C   UNL     1      28.205  43.971  53.417  1.00  0.00     0.047 A 
HETATM    7  C   UNL     1      29.330  43.172  53.653  1.00  0.00     0.050 A 
HETATM    8  C   UNL     1      29.379  41.906  53.042  1.00  0.00     0.030 A 
HETATM    9  C   UNL     1      28.342  41.450  52.228  1.00  0.00     0.003 A 
HETATM   10  C   UNL     1      27.228  42.254  52.013  1.00  0.00     0.017 A 
BRANCH   7  11
HETATM   11  N   UNL     1      30.415  43.563  54.446  1.00  0.00    -0.188 N 
HETATM   12  H   UNL     1      31.340  43.386  54.082  1.00  0.00     0.184 HD
BRANCH  11  13
HETATM   13  C   UNL     1      30.540  44.121  55.713  1.00  0.00     0.726 A 
HETATM   14  N   UNL     1      29.880  45.232  56.072  1.00  0.00    -0.075 NA
HETATM   15  C   UNL     1      30.078  45.693  57.322  1.00  0.00     0.138 A 
HETATM   16  C   UNL     1      30.902  45.084  58.234  1.00  0.00     0.040 A 
HETATM   17  C   UNL     1      31.533  43.956  57.781  1.00  0.00     0.138 A 
HETATM   18  N   UNL     1      31.372  43.461  56.539  1.00  0.00    -0.075 NA
ENDBRANCH  11  13
ENDBRANCH   7  11
ENDBRANCH   1   5
BRANCH   2  19
HETATM   19  C   UNL     1      25.003  46.430  51.462  1.00  0.00     0.127 C 
BRANCH  19  20
HETATM   20  C   UNL     1      24.477  46.529  50.029  1.00  0.00     0.060 C 
BRANCH  20  21
HETATM   21  C   UNL     1      24.538  47.911  49.448  1.00  0.00    -0.029 A 
HETATM   22  C   UNL     1      23.429  48.750  49.102  1.00  0.00     0.001 A 
HETATM   23  C   UNL     1      23.947  49.960  48.633  1.00  0.00     0.043 A 
HETATM   24  C   UNL     1      22.029  48.598  49.154  1.00  0.00     0.056 A 
HETATM   25  C   UNL     1      23.140  51.026  48.216  1.00  0.00     0.033 A 
HETATM   26  N   UNL     1      25.317  49.859  48.684  1.00  0.00    -0.365 N 
HETATM   27  C   UNL     1      21.755  50.851  48.280  1.00  0.00     0.044 A 
HETATM   28  C   UNL     1      21.220  49.657  48.742  1.00  0.00     0.117 A 
HETATM   29  F   UNL     1      19.888  49.512  48.780  1.00  0.00    -0.206 F 
HETATM   30  H   UNL     1      25.958  50.591  48.408  1.00  0.00     0.165 HD
HETATM   31  C   UNL     1      25.683  48.638  49.182  1.00  0.00     0.096 A 
ENDBRANCH  20  21
ENDBRANCH  19  20
ENDBRANCH   2  19
TORSDOF 6
ENDMDL
MODEL 7
REMARK VINA RESULT:      -8.7      5.491      9.049
REMARK  6 active torsions:
REMARK  status: ('A' for Active; 'I' for Inactive)
REMARK    1  A    between atoms: C_3  and  N_4 
REMARK    2  A    between atoms: N_4  and  C_5 
REMARK    3  A    between atoms: C_12  and  C_13 
REMARK       I    between atoms: C_13  and  N_14 
REMARK    4  A    between atoms: N_14  and  C_15 
REMARK    5  A    between atoms: C_15  and  C_16 
REMARK    6  A    between atoms: C_16  and  C_17 
ROOT
HETATM    1  C   UNL     1      26.038  44.717  52.423  1.00  0.00     0.251 C 
HETATM    2  N   UNL     1      27.020  44.154  51.628  1.00  0.00    -0.357 N 
HETATM    3  O   UNL     1      24.848  44.441  52.307  1.00  0.00    -0.268 OA
HETATM    4  H   UNL     1      27.921  44.612  51.578  1.00  0.00     0.162 HD
ENDROOT
BRANCH   1   5
HETATM    5  C   UNL     1      26.471  45.730  53.427  1.00  0.00     0.034 A 
HETATM    6  C   UNL     1      27.541  45.508  54.308  1.00  0.00     0.047 A 
HETATM    7  C   UNL     1      27.925  46.482  55.238  1.00  0.00     0.050 A 
HETATM    8  C   UNL     1      27.192  47.681  55.277  1.00  0.00     0.030 A 
HETATM    9  C   UNL     1      26.115  47.905  54.418  1.00  0.00     0.003 A 
HETATM   10  C   UNL     1      25.755  46.930  53.494  1.00  0.00     0.017 A 
BRANCH   7  11
HETATM   11  N   UNL     1      28.984  46.326  56.141  1.00  0.00    -0.188 N 
HETATM   12  H   UNL     1      29.220  47.122  56.715  1.00  0.00     0.184 HD
BRANCH  11  13
HETATM   13  C   UNL     1      29.880  45.301  56.418  1.00  0.00     0.726 A 
HETATM   14  N   UNL     1      30.130  44.315  55.544  1.00  0.00    -0.075 NA
HETATM   15  C   UNL     1      31.010  43.366  55.916  1.00  0.00     0.138 A 
HETATM   16  C   UNL     1      31.661  43.366  57.123  1.00  0.00     0.040 A 
HETATM   17  C   UNL     1      31.347  44.412  57.951  1.00  0.00     0.138 A 
HETATM   18  N   UNL     1      30.468  45.379  57.626  1.00  0.00    -0.075 NA
ENDBRANCH  11  13
ENDBRANCH   7  11
ENDBRANCH   1   5
BRANCH   2  19
HETATM   19  C   UNL     1      26.647  43.299  50.514  1.00  0.00     0.127 C 
BRANCH  19  20
HETATM   20  C   UNL     1      26.253  41.886  50.942  1.00  0.00     0.060 C 
BRANCH  20  21
HETATM   21  C   UNL     1      27.396  40.914  50.978  1.00  0.00    -0.029 A 
HETATM   22  C   UNL     1      27.756  39.968  49.964  1.00  0.00     0.001 A 
HETATM   23  C   UNL     1      28.904  39.300  50.399  1.00  0.00     0.043 A 
HETATM   24  C   UNL     1      27.218  39.624  48.708  1.00  0.00     0.056 A 
HETATM   25  C   UNL     1      29.543  38.309  49.645  1.00  0.00     0.033 A 
HETATM   26  N   UNL     1      29.226  39.814  51.633  1.00  0.00    -0.365 N 
HETATM   27  C   UNL     1      28.992  37.988  48.402  1.00  0.00     0.044 A 
HETATM   28  C   UNL     1      27.852  38.638  47.951  1.00  0.00     0.117 A 
HETATM   29  F   UNL     1      27.337  38.300  46.760  1.00  0.00    -0.206 F 
HETATM   30  H   UNL     1      30.018  39.521  52.189  1.00  0.00     0.165 HD
HETATM   31  C   UNL     1      28.335  40.791  51.986  1.00  0.00     0.096 A 
ENDBRANCH  20  21
ENDBRANCH  19  20
ENDBRANCH   2  19
TORSDOF 6
ENDMDL
MODEL 8
REMARK VINA RESULT:      -8.7      2.228      3.088
REMARK  6 active torsions:
REMARK  status: ('A' for Active; 'I' for Inactive)
REMARK    1  A    between atoms: C_3  and  N_4 
REMARK    2  A    between atoms: N_4  and  C_5 
REMARK    3  A    between atoms: C_12  and  C_13 
REMARK       I    between atoms: C_13  and  N_14 
REMARK    4  A    between atoms: N_14  and  C_15 
REMARK    5  A    between atoms: C_15  and  C_16 
REMARK    6  A    between atoms: C_16  and  C_17 
ROOT
HETATM    1  C   UNL     1      25.529  47.316  50.907  1.00  0.00     0.251 C 
HETATM    2  N   UNL     1      25.357  46.838  52.193  1.00  0.00    -0.357 N 
HETATM    3  O   UNL     1      26.548  47.894  50.542  1.00  0.00    -0.268 OA
HETATM    4  H   UNL     1      24.418  46.627  52.507  1.00  0.00     0.162 HD
ENDROOT
BRANCH   1   5
HETATM    5  C   UNL     1      24.394  47.143  49.957  1.00  0.00     0.034 A 
HETATM    6  C   UNL     1      23.730  48.232  49.370  1.00  0.00     0.047 A 
HETATM    7  C   UNL     1      22.668  48.036  48.478  1.00  0.00     0.050 A 
HETATM    8  C   UNL     1      22.272  46.715  48.206  1.00  0.00     0.030 A 
HETATM    9  C   UNL     1      22.913  45.625  48.798  1.00  0.00     0.003 A 
HETATM   10  C   UNL     1      23.972  45.840  49.673  1.00  0.00     0.017 A 
BRANCH   7  11
HETATM   11  N   UNL     1      21.968  49.076  47.855  1.00  0.00    -0.188 N 
HETATM   12  H   UNL     1      22.193  49.269  46.890  1.00  0.00     0.184 HD
BRANCH  11  13
HETATM   13  C   UNL     1      21.022  50.001  48.280  1.00  0.00     0.726 A 
HETATM   14  N   UNL     1      20.166  50.587  47.430  1.00  0.00    -0.075 NA
HETATM   15  C   UNL     1      19.294  51.475  47.945  1.00  0.00     0.138 A 
HETATM   16  C   UNL     1      19.233  51.795  49.278  1.00  0.00     0.040 A 
HETATM   17  C   UNL     1      20.143  51.146  50.071  1.00  0.00     0.138 A 
HETATM   18  N   UNL     1      21.039  50.257  49.600  1.00  0.00    -0.075 NA
ENDBRANCH  11  13
ENDBRANCH   7  11
ENDBRANCH   1   5
BRANCH   2  19
HETATM   19  C   UNL     1      26.348  47.132  53.213  1.00  0.00     0.127 C 
BRANCH  19  20
HETATM   20  C   UNL     1      26.245  46.222  54.437  1.00  0.00     0.060 C 
BRANCH  20  21
HETATM   21  C   UNL     1      27.557  45.653  54.890  1.00  0.00    -0.029 A 
HETATM   22  C   UNL     1      28.309  44.609  54.258  1.00  0.00     0.001 A 
HETATM   23  C   UNL     1      29.481  44.427  54.997  1.00  0.00     0.043 A 
HETATM   24  C   UNL     1      28.107  43.806  53.117  1.00  0.00     0.056 A 
HETATM   25  C   UNL     1      30.462  43.488  54.655  1.00  0.00     0.033 A 
HETATM   26  N   UNL     1      29.441  45.320  56.042  1.00  0.00    -0.365 N 
HETATM   27  C   UNL     1      30.239  42.708  53.518  1.00  0.00     0.044 A 
HETATM   28  C   UNL     1      29.081  42.871  52.770  1.00  0.00     0.117 A 
HETATM   29  F   UNL     1      28.888  42.099  51.691  1.00  0.00    -0.206 F 
HETATM   30  H   UNL     1      30.163  45.417  56.743  1.00  0.00     0.165 HD
HETATM   31  C   UNL     1      28.297  46.068  55.981  1.00  0.00     0.096 A 
ENDBRANCH  20  21
ENDBRANCH  19  20
ENDBRANCH   2  19
TORSDOF 6
ENDMDL
MODEL 9
REMARK VINA RESULT:      -8.6      6.967     11.587
REMARK  6 active torsions:
REMARK  status: ('A' for Active; 'I' for Inactive)
REMARK    1  A    between atoms: C_3  and  N_4 
REMARK    2  A    between atoms: N_4  and  C_5 
REMARK    3  A    between atoms: C_12  and  C_13 
REMARK       I    between atoms: C_13  and  N_14 
REMARK    4  A    between atoms: N_14  and  C_15 
REMARK    5  A    between atoms: C_15  and  C_16 
REMARK    6  A    between atoms: C_16  and  C_17 
ROOT
HETATM    1  C   UNL     1      16.023  52.592  48.766  1.00  0.00     0.251 C 
HETATM    2  N   UNL     1      17.380  52.810  48.919  1.00  0.00    -0.357 N 
HETATM    3  O   UNL     1      15.565  51.751  47.998  1.00  0.00    -0.268 OA
HETATM    4  H   UNL     1      17.684  53.679  49.340  1.00  0.00     0.162 HD
ENDROOT
BRANCH   1   5
HETATM    5  C   UNL     1      15.100  53.460  49.551  1.00  0.00     0.034 A 
HETATM    6  C   UNL     1      15.316  53.759  50.905  1.00  0.00     0.047 A 
HETATM    7  C   UNL     1      14.431  54.582  51.614  1.00  0.00     0.050 A 
HETATM    8  C   UNL     1      13.307  55.081  50.932  1.00  0.00     0.030 A 
HETATM    9  C   UNL     1      13.073  54.776  49.591  1.00  0.00     0.003 A 
HETATM   10  C   UNL     1      13.968  53.966  48.901  1.00  0.00     0.017 A 
BRANCH   7  11
HETATM   11  N   UNL     1      14.590  54.923  52.962  1.00  0.00    -0.188 N 
HETATM   12  H   UNL     1      14.572  54.169  53.633  1.00  0.00     0.184 HD
BRANCH  11  13
HETATM   13  C   UNL     1      14.722  56.123  53.652  1.00  0.00     0.726 A 
HETATM   14  N   UNL     1      13.659  56.847  54.031  1.00  0.00    -0.075 NA
HETATM   15  C   UNL     1      13.897  57.999  54.687  1.00  0.00     0.138 A 
HETATM   16  C   UNL     1      15.155  58.453  54.991  1.00  0.00     0.040 A 
HETATM   17  C   UNL     1      16.179  57.648  54.567  1.00  0.00     0.138 A 
HETATM   18  N   UNL     1      15.990  56.492  53.901  1.00  0.00    -0.075 NA
ENDBRANCH  11  13
ENDBRANCH   7  11
ENDBRANCH   1   5
BRANCH   2  19
HETATM   19  C   UNL     1      18.324  52.125  48.053  1.00  0.00     0.127 C 
BRANCH  19  20
HETATM   20  C   UNL     1      19.760  52.158  48.580  1.00  0.00     0.060 C 
BRANCH  20  21
HETATM   21  C   UNL     1      20.315  50.810  48.932  1.00  0.00    -0.029 A 
HETATM   22  C   UNL     1      21.659  50.352  48.733  1.00  0.00     0.001 A 
HETATM   23  C   UNL     1      21.740  49.053  49.243  1.00  0.00     0.043 A 
HETATM   24  C   UNL     1      22.819  50.926  48.176  1.00  0.00     0.056 A 
HETATM   25  C   UNL     1      22.920  48.299  49.226  1.00  0.00     0.033 A 
HETATM   26  N   UNL     1      20.494  48.730  49.726  1.00  0.00    -0.365 N 
HETATM   27  C   UNL     1      24.057  48.891  48.671  1.00  0.00     0.044 A 
HETATM   28  C   UNL     1      23.997  50.180  48.159  1.00  0.00     0.117 A 
HETATM   29  F   UNL     1      25.101  50.718  47.620  1.00  0.00    -0.206 F 
HETATM   30  H   UNL     1      20.256  47.848  50.159  1.00  0.00     0.165 HD
HETATM   31  C   UNL     1      19.634  49.781  49.555  1.00  0.00     0.096 A 
ENDBRANCH  20  21
ENDBRANCH  19  20
ENDBRANCH   2  19
TORSDOF 6
ENDMDL
MODEL 10
REMARK VINA RESULT:      -8.6      4.036      5.836
REMARK  6 active torsions:
REMARK  status: ('A' for Active; 'I' for Inactive)
REMARK    1  A    between atoms: C_3  and  N_4 
REMARK    2  A    between atoms: N_4  and  C_5 
REMARK    3  A    between atoms: C_12  and  C_13 
REMARK       I    between atoms: C_13  and  N_14 
REMARK    4  A    between atoms: N_14  and  C_15 
REMARK    5  A    between atoms: C_15  and  C_16 
REMARK    6  A    between atoms: C_16  and  C_17 
ROOT
HETATM    1  C   UNL     1      27.543  40.978  51.529  1.00  0.00     0.251 C 
HETATM    2  N   UNL     1      27.123  41.871  52.498  1.00  0.00    -0.357 N 
HETATM    3  O   UNL     1      28.610  40.375  51.595  1.00  0.00    -0.268 OA
HETATM    4  H   UNL     1      26.391  42.530  52.262  1.00  0.00     0.162 HD
ENDROOT
BRANCH   1   5
HETATM    5  C   UNL     1      26.658  40.792  50.344  1.00  0.00     0.034 A 
HETATM    6  C   UNL     1      25.478  41.531  50.161  1.00  0.00     0.047 A 
HETATM    7  C   UNL     1      24.670  41.334  49.034  1.00  0.00     0.050 A 
HETATM    8  C   UNL     1      25.065  40.359  48.102  1.00  0.00     0.030 A 
HETATM    9  C   UNL     1      26.227  39.607  48.282  1.00  0.00     0.003 A 
HETATM   10  C   UNL     1      27.022  39.823  49.402  1.00  0.00     0.017 A 
BRANCH   7  11
HETATM   11  N   UNL     1      23.486  42.039  48.789  1.00  0.00    -0.188 N 
HETATM   12  H   UNL     1      22.674  41.500  48.528  1.00  0.00     0.184 HD
BRANCH  11  13
HETATM   13  C   UNL     1      23.146  43.387  48.762  1.00  0.00     0.726 A 
HETATM   14  N   UNL     1      24.058  44.356  48.929  1.00  0.00    -0.075 NA
HETATM   15  C   UNL     1      23.621  45.630  48.892  1.00  0.00     0.138 A 
HETATM   16  C   UNL     1      22.310  45.977  48.685  1.00  0.00     0.040 A 
HETATM   17  C   UNL     1      21.451  44.923  48.522  1.00  0.00     0.138 A 
HETATM   18  N   UNL     1      21.840  43.634  48.558  1.00  0.00    -0.075 NA
ENDBRANCH  11  13
ENDBRANCH   7  11
ENDBRANCH   1   5
BRANCH   2  19
HETATM   19  C   UNL     1      28.017  42.233  53.584  1.00  0.00     0.127 C 
BRANCH  19  20
HETATM   20  C   UNL     1      28.833  43.494  53.301  1.00  0.00     0.060 C 
BRANCH  20  21
HETATM   21  C   UNL     1      28.949  44.425  54.471  1.00  0.00    -0.029 A 
HETATM   22  C   UNL     1      29.847  44.305  55.583  1.00  0.00     0.001 A 
HETATM   23  C   UNL     1      29.639  45.410  56.412  1.00  0.00     0.043 A 
HETATM   24  C   UNL     1      30.826  43.363  55.956  1.00  0.00     0.056 A 
HETATM   25  C   UNL     1      30.360  45.624  57.594  1.00  0.00     0.033 A 
HETATM   26  N   UNL     1      28.650  46.169  55.834  1.00  0.00    -0.365 N 
HETATM   27  C   UNL     1      31.327  44.677  57.940  1.00  0.00     0.044 A 
HETATM   28  C   UNL     1      31.549  43.572  57.131  1.00  0.00     0.117 A 
HETATM   29  F   UNL     1      32.474  42.672  57.494  1.00  0.00    -0.206 F 
HETATM   30  H   UNL     1      28.294  47.036  56.214  1.00  0.00     0.165 HD
HETATM   31  C   UNL     1      28.236  45.594  54.663  1.00  0.00     0.096 A 
ENDBRANCH  20  21
ENDBRANCH  19  20
ENDBRANCH   2  19
TORSDOF 6
ENDMDL
