MODEL 1
REMARK VINA RESULT:      -8.7      0.000      0.000
REMARK  2 active torsions:
REMARK  status: ('A' for Active; 'I' for Inactive)
REMARK    1  A    between atoms: C_5  and  C_7 
REMARK    2  A    between atoms: C_5  and  O_6 
ROOT
HETATM    1  C   UNL     1      31.505  43.484  56.262  1.00  0.00     0.050 C 
HETATM    2  C   UNL     1      30.310  44.251  55.791  1.00  0.00    -0.035 A 
HETATM    3  C   UNL     1      29.322  43.684  55.001  1.00  0.00     0.051 A 
HETATM    4  C   UNL     1      28.220  44.411  54.531  1.00  0.00     0.018 A 
HETATM    5  C   UNL     1      27.314  43.499  53.734  1.00  0.00     0.198 A 
HETATM    6  C   UNL     1      28.120  42.153  53.764  1.00  0.00     0.266 A 
HETATM    7  O   UNL     1      27.829  41.075  53.268  1.00  0.00    -0.269 OA
HETATM    8  N   UNL     1      29.254  42.374  54.546  1.00  0.00    -0.323 N 
HETATM    9  C   UNL     1      28.075  45.752  54.851  1.00  0.00     0.013 A 
HETATM   10  C   UNL     1      29.066  46.354  55.627  1.00  0.00     0.001 A 
HETATM   11  C   UNL     1      30.170  45.615  56.088  1.00  0.00     0.009 A 
HETATM   12  H   UNL     1      29.929  41.645  54.727  1.00  0.00     0.169 HD
ENDROOT
BRANCH   5  13
HETATM   13  C   UNL     1      27.168  44.057  52.342  1.00  0.00     0.018 A 
HETATM   14  C   UNL     1      26.437  45.219  51.892  1.00  0.00     0.002 A 
HETATM   15  C   UNL     1      26.628  45.331  50.512  1.00  0.00     0.043 A 
HETATM   16  C   UNL     1      25.626  46.191  52.520  1.00  0.00     0.014 A 
HETATM   17  C   UNL     1      26.055  46.348  49.738  1.00  0.00     0.030 A 
HETATM   18  N   UNL     1      27.449  44.298  50.130  1.00  0.00    -0.365 N 
HETATM   19  C   UNL     1      25.252  47.286  50.388  1.00  0.00     0.002 A 
HETATM   20  C   UNL     1      25.039  47.212  51.761  1.00  0.00     0.001 A 
HETATM   21  H   UNL     1      27.769  44.139  49.185  1.00  0.00     0.165 HD
HETATM   22  C   UNL     1      27.772  43.530  51.210  1.00  0.00     0.100 A 
ENDBRANCH   5  13
BRANCH   5  23
HETATM   23  O   UNL     1      26.065  43.384  54.415  1.00  0.00    -0.371 OA
HETATM   24  H   UNL     1      25.536  42.743  53.915  1.00  0.00     0.212 HD
ENDBRANCH   5  23
TORSDOF 2
ENDMDL
MODEL 2
REMARK VINA RESULT:      -8.5     12.392     13.702
REMARK  2 active torsions:
REMARK  status: ('A' for Active; 'I' for Inactive)
REMARK    1  A    between atoms: C_5  and  C_7 
REMARK    2  A    between atoms: C_5  and  O_6 
ROOT
HETATM    1  C   UNL     1      36.164  50.952  41.589  1.00  0.00     0.050 C 
HETATM    2  C   UNL     1      34.907  50.995  42.400  1.00  0.00    -0.035 A 
HETATM    3  C   UNL     1      33.819  50.178  42.138  1.00  0.00     0.051 A 
HETATM    4  C   UNL     1      32.630  50.242  42.876  1.00  0.00     0.018 A 
HETATM    5  C   UNL     1      31.660  49.199  42.367  1.00  0.00     0.198 A 
HETATM    6  C   UNL     1      32.464  48.583  41.168  1.00  0.00     0.266 A 
HETATM    7  O   UNL     1      32.137  47.685  40.408  1.00  0.00    -0.269 OA
HETATM    8  N   UNL     1      33.710  49.212  41.147  1.00  0.00    -0.323 N 
HETATM    9  C   UNL     1      32.499  51.144  43.921  1.00  0.00     0.013 A 
HETATM   10  C   UNL     1      33.571  51.995  44.194  1.00  0.00     0.001 A 
HETATM   11  C   UNL     1      34.758  51.925  43.441  1.00  0.00     0.009 A 
HETATM   12  H   UNL     1      34.417  48.974  40.467  1.00  0.00     0.169 HD
ENDROOT
BRANCH   5  13
HETATM   13  C   UNL     1      30.396  49.889  41.924  1.00  0.00     0.018 A 
HETATM   14  C   UNL     1      30.227  51.175  41.286  1.00  0.00     0.002 A 
HETATM   15  C   UNL     1      28.861  51.356  41.055  1.00  0.00     0.043 A 
HETATM   16  C   UNL     1      31.102  52.208  40.882  1.00  0.00     0.014 A 
HETATM   17  C   UNL     1      28.332  52.504  40.453  1.00  0.00     0.030 A 
HETATM   18  N   UNL     1      28.218  50.233  41.514  1.00  0.00    -0.365 N 
HETATM   19  C   UNL     1      29.222  53.510  40.074  1.00  0.00     0.002 A 
HETATM   20  C   UNL     1      30.589  53.367  40.284  1.00  0.00     0.001 A 
HETATM   21  H   UNL     1      27.220  50.081  41.461  1.00  0.00     0.165 HD
HETATM   22  C   UNL     1      29.120  49.355  42.038  1.00  0.00     0.100 A 
ENDBRANCH   5  13
BRANCH   5  23
HETATM   23  O   UNL     1      31.431  48.242  43.400  1.00  0.00    -0.371 OA
HETATM   24  H   UNL     1      31.008  47.478  42.979  1.00  0.00     0.212 HD
ENDBRANCH   5  23
TORSDOF 2
ENDMDL
MODEL 3
REMARK VINA RESULT:      -8.4      2.202      6.262
REMARK  2 active torsions:
REMARK  status: ('A' for Active; 'I' for Inactive)
REMARK    1  A    between atoms: C_5  and  C_7 
REMARK    2  A    between atoms: C_5  and  O_6 
ROOT
HETATM    1  C   UNL     1      22.719  48.050  49.171  1.00  0.00     0.050 C 
HETATM    2  C   UNL     1      24.156  47.721  49.428  1.00  0.00    -0.035 A 
HETATM    3  C   UNL     1      24.559  46.525  50.001  1.00  0.00     0.051 A 
HETATM    4  C   UNL     1      25.901  46.231  50.272  1.00  0.00     0.018 A 
HETATM    5  C   UNL     1      26.008  44.841  50.857  1.00  0.00     0.198 A 
HETATM    6  C   UNL     1      24.498  44.422  50.945  1.00  0.00     0.266 A 
HETATM    7  O   UNL     1      24.016  43.374  51.348  1.00  0.00    -0.269 OA
HETATM    8  N   UNL     1      23.752  45.467  50.399  1.00  0.00    -0.323 N 
HETATM    9  C   UNL     1      26.897  47.147  49.967  1.00  0.00     0.013 A 
HETATM   10  C   UNL     1      26.518  48.369  49.409  1.00  0.00     0.001 A 
HETATM   11  C   UNL     1      25.166  48.654  49.146  1.00  0.00     0.009 A 
HETATM   12  H   UNL     1      22.746  45.427  50.329  1.00  0.00     0.169 HD
ENDROOT
BRANCH   5  13
HETATM   13  C   UNL     1      26.664  44.934  52.211  1.00  0.00     0.018 A 
HETATM   14  C   UNL     1      27.850  44.272  52.703  1.00  0.00     0.002 A 
HETATM   15  C   UNL     1      28.062  44.704  54.015  1.00  0.00     0.043 A 
HETATM   16  C   UNL     1      28.769  43.343  52.165  1.00  0.00     0.014 A 
HETATM   17  C   UNL     1      29.128  44.258  54.807  1.00  0.00     0.030 A 
HETATM   18  N   UNL     1      27.065  45.600  54.315  1.00  0.00    -0.365 N 
HETATM   19  C   UNL     1      30.011  43.334  54.247  1.00  0.00     0.002 A 
HETATM   20  C   UNL     1      29.837  42.881  52.944  1.00  0.00     0.001 A 
HETATM   21  H   UNL     1      26.976  46.087  55.196  1.00  0.00     0.165 HD
HETATM   22  C   UNL     1      26.223  45.741  53.251  1.00  0.00     0.100 A 
ENDBRANCH   5  13
BRANCH   5  23
HETATM   23  O   UNL     1      26.736  44.015  49.949  1.00  0.00    -0.371 OA
HETATM   24  H   UNL     1      27.618  44.409  49.865  1.00  0.00     0.212 HD
ENDBRANCH   5  23
TORSDOF 2
ENDMDL
MODEL 4
REMARK VINA RESULT:      -8.4      2.521      3.942
REMARK  2 active torsions:
REMARK  status: ('A' for Active; 'I' for Inactive)
REMARK    1  A    between atoms: C_5  and  C_7 
REMARK    2  A    between atoms: C_5  and  O_6 
ROOT
HETATM    1  C   UNL     1      28.732  44.158  54.355  1.00  0.00     0.050 C 
HETATM    2  C   UNL     1      27.707  45.151  53.905  1.00  0.00    -0.035 A 
HETATM    3  C   UNL     1      27.196  45.167  52.616  1.00  0.00     0.051 A 
HETATM    4  C   UNL     1      26.262  46.118  52.185  1.00  0.00     0.018 A 
HETATM    5  C   UNL     1      25.879  45.838  50.749  1.00  0.00     0.198 A 
HETATM    6  C   UNL     1      26.806  44.618  50.411  1.00  0.00     0.266 A 
HETATM    7  O   UNL     1      26.894  43.989  49.367  1.00  0.00    -0.269 OA
HETATM    8  N   UNL     1      27.506  44.302  51.576  1.00  0.00    -0.323 N 
HETATM    9  C   UNL     1      25.804  47.097  53.053  1.00  0.00     0.013 A 
HETATM   10  C   UNL     1      26.318  47.119  54.351  1.00  0.00     0.001 A 
HETATM   11  C   UNL     1      27.260  46.162  54.770  1.00  0.00     0.009 A 
HETATM   12  H   UNL     1      28.162  43.535  51.614  1.00  0.00     0.169 HD
ENDROOT
BRANCH   5  13
HETATM   13  C   UNL     1      26.195  47.055  49.918  1.00  0.00     0.018 A 
HETATM   14  C   UNL     1      25.311  48.088  49.430  1.00  0.00     0.002 A 
HETATM   15  C   UNL     1      26.087  49.011  48.725  1.00  0.00     0.043 A 
HETATM   16  C   UNL     1      23.922  48.331  49.515  1.00  0.00     0.014 A 
HETATM   17  C   UNL     1      25.552  50.148  48.106  1.00  0.00     0.030 A 
HETATM   18  N   UNL     1      27.389  48.579  48.786  1.00  0.00    -0.365 N 
HETATM   19  C   UNL     1      24.175  50.354  48.201  1.00  0.00     0.002 A 
HETATM   20  C   UNL     1      23.368  49.459  48.895  1.00  0.00     0.001 A 
HETATM   21  H   UNL     1      28.175  49.063  48.374  1.00  0.00     0.165 HD
HETATM   22  C   UNL     1      27.466  47.412  49.489  1.00  0.00     0.100 A 
ENDBRANCH   5  13
BRANCH   5  23
HETATM   23  O   UNL     1      24.498  45.484  50.703  1.00  0.00    -0.371 OA
HETATM   24  H   UNL     1      24.124  45.931  49.927  1.00  0.00     0.212 HD
ENDBRANCH   5  23
TORSDOF 2
ENDMDL
MODEL 5
REMARK VINA RESULT:      -7.9      8.436     11.057
REMARK  2 active torsions:
REMARK  status: ('A' for Active; 'I' for Inactive)
REMARK    1  A    between atoms: C_5  and  C_7 
REMARK    2  A    between atoms: C_5  and  O_6 
ROOT
HETATM    1  C   UNL     1      22.921  46.775  48.270  1.00  0.00     0.050 C 
HETATM    2  C   UNL     1      22.702  48.239  48.489  1.00  0.00    -0.035 A 
HETATM    3  C   UNL     1      21.554  48.744  49.081  1.00  0.00     0.051 A 
HETATM    4  C   UNL     1      21.335  50.116  49.256  1.00  0.00     0.018 A 
HETATM    5  C   UNL     1      20.015  50.332  49.962  1.00  0.00     0.198 A 
HETATM    6  C   UNL     1      19.484  48.861  50.091  1.00  0.00     0.266 A 
HETATM    7  O   UNL     1      18.446  48.463  50.597  1.00  0.00    -0.269 OA
HETATM    8  N   UNL     1      20.471  48.024  49.568  1.00  0.00    -0.323 N 
HETATM    9  C   UNL     1      22.281  51.038  48.836  1.00  0.00     0.013 A 
HETATM   10  C   UNL     1      23.437  50.560  48.217  1.00  0.00     0.001 A 
HETATM   11  C   UNL     1      23.643  49.179  48.043  1.00  0.00     0.009 A 
HETATM   12  H   UNL     1      20.367  47.020  49.551  1.00  0.00     0.169 HD
ENDROOT
BRANCH   5  13
HETATM   13  C   UNL     1      19.135  51.191  49.090  1.00  0.00     0.018 A 
HETATM   14  C   UNL     1      18.811  51.049  47.689  1.00  0.00     0.002 A 
HETATM   15  C   UNL     1      17.937  52.085  47.350  1.00  0.00     0.043 A 
HETATM   16  C   UNL     1      19.177  50.142  46.670  1.00  0.00     0.014 A 
HETATM   17  C   UNL     1      17.420  52.260  46.060  1.00  0.00     0.030 A 
HETATM   18  N   UNL     1      17.719  52.823  48.487  1.00  0.00    -0.365 N 
HETATM   19  C   UNL     1      17.808  51.351  45.074  1.00  0.00     0.002 A 
HETATM   20  C   UNL     1      18.675  50.305  45.373  1.00  0.00     0.001 A 
HETATM   21  H   UNL     1      17.111  53.628  48.541  1.00  0.00     0.165 HD
HETATM   22  C   UNL     1      18.430  52.304  49.529  1.00  0.00     0.100 A 
ENDBRANCH   5  13
BRANCH   5  23
HETATM   23  O   UNL     1      20.267  50.919  51.237  1.00  0.00    -0.371 OA
HETATM   24  H   UNL     1      20.651  50.221  51.791  1.00  0.00     0.212 HD
ENDBRANCH   5  23
TORSDOF 2
ENDMDL
MODEL 6
REMARK VINA RESULT:      -7.9      1.894      5.984
REMARK  2 active torsions:
REMARK  status: ('A' for Active; 'I' for Inactive)
REMARK    1  A    between atoms: C_5  and  C_7 
REMARK    2  A    between atoms: C_5  and  O_6 
ROOT
HETATM    1  C   UNL     1      24.577  47.859  49.748  1.00  0.00     0.050 C 
HETATM    2  C   UNL     1      24.667  46.580  50.520  1.00  0.00    -0.035 A 
HETATM    3  C   UNL     1      25.356  46.477  51.718  1.00  0.00     0.051 A 
HETATM    4  C   UNL     1      25.469  45.272  52.424  1.00  0.00     0.018 A 
HETATM    5  C   UNL     1      26.244  45.504  53.702  1.00  0.00     0.198 A 
HETATM    6  C   UNL     1      26.620  47.022  53.569  1.00  0.00     0.266 A 
HETATM    7  O   UNL     1      27.250  47.726  54.344  1.00  0.00    -0.269 OA
HETATM    8  N   UNL     1      26.031  47.486  52.392  1.00  0.00    -0.323 N 
HETATM    9  C   UNL     1      24.879  44.115  51.939  1.00  0.00     0.013 A 
HETATM   10  C   UNL     1      24.197  44.185  50.723  1.00  0.00     0.001 A 
HETATM   11  C   UNL     1      24.096  45.399  50.021  1.00  0.00     0.009 A 
HETATM   12  H   UNL     1      26.119  48.446  52.093  1.00  0.00     0.169 HD
ENDROOT
BRANCH   5  13
HETATM   13  C   UNL     1      27.455  44.605  53.703  1.00  0.00     0.018 A 
HETATM   14  C   UNL     1      28.579  44.582  54.611  1.00  0.00     0.002 A 
HETATM   15  C   UNL     1      29.429  43.550  54.204  1.00  0.00     0.043 A 
HETATM   16  C   UNL     1      28.963  45.339  55.740  1.00  0.00     0.014 A 
HETATM   17  C   UNL     1      30.629  43.243  54.858  1.00  0.00     0.030 A 
HETATM   18  N   UNL     1      28.852  42.955  53.109  1.00  0.00    -0.365 N 
HETATM   19  C   UNL     1      30.983  44.016  55.965  1.00  0.00     0.002 A 
HETATM   20  C   UNL     1      30.163  45.051  56.402  1.00  0.00     0.001 A 
HETATM   21  H   UNL     1      29.241  42.165  52.614  1.00  0.00     0.165 HD
HETATM   22  C   UNL     1      27.679  43.578  52.798  1.00  0.00     0.100 A 
ENDBRANCH   5  13
BRANCH   5  23
HETATM   23  O   UNL     1      25.381  45.266  54.812  1.00  0.00    -0.371 OA
HETATM   24  H   UNL     1      25.445  46.047  55.383  1.00  0.00     0.212 HD
ENDBRANCH   5  23
TORSDOF 2
ENDMDL
MODEL 7
REMARK VINA RESULT:      -7.9     12.879     15.075
REMARK  2 active torsions:
REMARK  status: ('A' for Active; 'I' for Inactive)
REMARK    1  A    between atoms: C_5  and  C_7 
REMARK    2  A    between atoms: C_5  and  O_6 
ROOT
HETATM    1  C   UNL     1      27.340  50.512  41.275  1.00  0.00     0.050 C 
HETATM    2  C   UNL     1      28.533  51.272  40.788  1.00  0.00    -0.035 A 
HETATM    3  C   UNL     1      29.762  50.671  40.561  1.00  0.00     0.051 A 
HETATM    4  C   UNL     1      30.887  51.389  40.138  1.00  0.00     0.018 A 
HETATM    5  C   UNL     1      32.051  50.441  39.947  1.00  0.00     0.198 A 
HETATM    6  C   UNL     1      31.422  49.078  40.406  1.00  0.00     0.266 A 
HETATM    7  O   UNL     1      31.938  47.971  40.445  1.00  0.00    -0.269 OA
HETATM    8  N   UNL     1      30.085  49.330  40.716  1.00  0.00    -0.323 N 
HETATM    9  C   UNL     1      30.810  52.756  39.922  1.00  0.00     0.013 A 
HETATM   10  C   UNL     1      29.590  53.391  40.163  1.00  0.00     0.001 A 
HETATM   11  C   UNL     1      28.468  52.660  40.593  1.00  0.00     0.009 A 
HETATM   12  H   UNL     1      29.461  48.599  41.026  1.00  0.00     0.169 HD
ENDROOT
BRANCH   5  13
HETATM   13  C   UNL     1      33.186  50.883  40.834  1.00  0.00     0.018 A 
HETATM   14  C   UNL     1      33.165  51.278  42.223  1.00  0.00     0.002 A 
HETATM   15  C   UNL     1      34.477  51.579  42.598  1.00  0.00     0.043 A 
HETATM   16  C   UNL     1      32.158  51.413  43.205  1.00  0.00     0.014 A 
HETATM   17  C   UNL     1      34.829  52.006  43.884  1.00  0.00     0.030 A 
HETATM   18  N   UNL     1      35.273  51.367  41.499  1.00  0.00    -0.365 N 
HETATM   19  C   UNL     1      33.808  52.138  44.828  1.00  0.00     0.002 A 
HETATM   20  C   UNL     1      32.490  51.846  44.495  1.00  0.00     0.001 A 
HETATM   21  H   UNL     1      36.276  51.490  41.484  1.00  0.00     0.165 HD
HETATM   22  C   UNL     1      34.515  50.958  40.441  1.00  0.00     0.100 A 
ENDBRANCH   5  13
BRANCH   5  23
HETATM   23  O   UNL     1      32.406  50.423  38.566  1.00  0.00    -0.371 OA
HETATM   24  H   UNL     1      32.933  49.620  38.427  1.00  0.00     0.212 HD
ENDBRANCH   5  23
TORSDOF 2
ENDMDL
MODEL 8
REMARK VINA RESULT:      -7.6     12.693     14.235
REMARK  2 active torsions:
REMARK  status: ('A' for Active; 'I' for Inactive)
REMARK    1  A    between atoms: C_5  and  C_7 
REMARK    2  A    between atoms: C_5  and  O_6 
ROOT
HETATM    1  C   UNL     1      31.032  53.837  40.912  1.00  0.00     0.050 C 
HETATM    2  C   UNL     1      30.041  52.772  40.562  1.00  0.00    -0.035 A 
HETATM    3  C   UNL     1      30.074  51.506  41.125  1.00  0.00     0.051 A 
HETATM    4  C   UNL     1      29.166  50.499  40.773  1.00  0.00     0.018 A 
HETATM    5  C   UNL     1      29.446  49.257  41.590  1.00  0.00     0.198 A 
HETATM    6  C   UNL     1      30.709  49.699  42.409  1.00  0.00     0.266 A 
HETATM    7  O   UNL     1      31.346  49.065  43.237  1.00  0.00    -0.269 OA
HETATM    8  N   UNL     1      30.967  51.029  42.075  1.00  0.00    -0.323 N 
HETATM    9  C   UNL     1      28.179  50.740  39.830  1.00  0.00     0.013 A 
HETATM   10  C   UNL     1      28.135  52.000  39.231  1.00  0.00     0.001 A 
HETATM   11  C   UNL     1      29.056  53.001  39.589  1.00  0.00     0.009 A 
HETATM   12  H   UNL     1      31.730  51.545  42.487  1.00  0.00     0.169 HD
ENDROOT
BRANCH   5  13
HETATM   13  C   UNL     1      29.734  48.114  40.651  1.00  0.00     0.018 A 
HETATM   14  C   UNL     1      28.945  46.937  40.368  1.00  0.00     0.002 A 
HETATM   15  C   UNL     1      29.631  46.189  39.408  1.00  0.00     0.043 A 
HETATM   16  C   UNL     1      27.713  46.429  40.836  1.00  0.00     0.014 A 
HETATM   17  C   UNL     1      29.156  44.972  38.902  1.00  0.00     0.030 A 
HETATM   18  N   UNL     1      30.780  46.875  39.101  1.00  0.00    -0.365 N 
HETATM   19  C   UNL     1      27.940  44.494  39.391  1.00  0.00     0.002 A 
HETATM   20  C   UNL     1      27.225  45.210  40.346  1.00  0.00     0.001 A 
HETATM   21  H   UNL     1      31.464  46.574  38.421  1.00  0.00     0.165 HD
HETATM   22  C   UNL     1      30.855  48.020  39.838  1.00  0.00     0.100 A 
ENDBRANCH   5  13
BRANCH   5  23
HETATM   23  O   UNL     1      28.326  49.003  42.437  1.00  0.00    -0.371 OA
HETATM   24  H   UNL     1      28.099  48.067  42.322  1.00  0.00     0.212 HD
ENDBRANCH   5  23
TORSDOF 2
ENDMDL
MODEL 9
REMARK VINA RESULT:      -7.6     13.133     15.239
REMARK  2 active torsions:
REMARK  status: ('A' for Active; 'I' for Inactive)
REMARK    1  A    between atoms: C_5  and  C_7 
REMARK    2  A    between atoms: C_5  and  O_6 
ROOT
HETATM    1  C   UNL     1      26.184  49.570  37.895  1.00  0.00     0.050 C 
HETATM    2  C   UNL     1      27.025  49.497  39.131  1.00  0.00    -0.035 A 
HETATM    3  C   UNL     1      27.798  50.559  39.572  1.00  0.00     0.051 A 
HETATM    4  C   UNL     1      28.612  50.479  40.710  1.00  0.00     0.018 A 
HETATM    5  C   UNL     1      29.291  51.810  40.942  1.00  0.00     0.198 A 
HETATM    6  C   UNL     1      28.790  52.637  39.706  1.00  0.00     0.266 A 
HETATM    7  O   UNL     1      29.038  53.795  39.407  1.00  0.00    -0.269 OA
HETATM    8  N   UNL     1      27.912  51.817  38.995  1.00  0.00    -0.323 N 
HETATM    9  C   UNL     1      28.670  49.309  41.452  1.00  0.00     0.013 A 
HETATM   10  C   UNL     1      27.918  48.217  41.018  1.00  0.00     0.001 A 
HETATM   11  C   UNL     1      27.109  48.308  39.871  1.00  0.00     0.009 A 
HETATM   12  H   UNL     1      27.444  52.132  38.159  1.00  0.00     0.169 HD
ENDROOT
BRANCH   5  13
HETATM   13  C   UNL     1      30.784  51.601  40.933  1.00  0.00     0.018 A 
HETATM   14  C   UNL     1      31.725  51.657  42.027  1.00  0.00     0.002 A 
HETATM   15  C   UNL     1      32.991  51.369  41.511  1.00  0.00     0.043 A 
HETATM   16  C   UNL     1      31.629  51.928  43.410  1.00  0.00     0.014 A 
HETATM   17  C   UNL     1      34.151  51.342  42.297  1.00  0.00     0.030 A 
HETATM   18  N   UNL     1      32.839  51.131  40.168  1.00  0.00    -0.365 N 
HETATM   19  C   UNL     1      34.022  51.623  43.658  1.00  0.00     0.002 A 
HETATM   20  C   UNL     1      32.779  51.912  44.210  1.00  0.00     0.001 A 
HETATM   21  H   UNL     1      33.591  50.881  39.540  1.00  0.00     0.165 HD
HETATM   22  C   UNL     1      31.530  51.272  39.810  1.00  0.00     0.100 A 
ENDBRANCH   5  13
BRANCH   5  23
HETATM   23  O   UNL     1      28.820  52.358  42.172  1.00  0.00    -0.371 OA
HETATM   24  H   UNL     1      28.323  51.652  42.616  1.00  0.00     0.212 HD
ENDBRANCH   5  23
TORSDOF 2
ENDMDL
MODEL 10
REMARK VINA RESULT:      -7.4     13.056     14.842
REMARK  2 active torsions:
REMARK  status: ('A' for Active; 'I' for Inactive)
REMARK    1  A    between atoms: C_5  and  C_7 
REMARK    2  A    between atoms: C_5  and  O_6 
ROOT
HETATM    1  C   UNL     1      32.067  51.893  43.661  1.00  0.00     0.050 C 
HETATM    2  C   UNL     1      31.817  51.689  42.199  1.00  0.00    -0.035 A 
HETATM    3  C   UNL     1      30.590  51.945  41.608  1.00  0.00     0.051 A 
HETATM    4  C   UNL     1      30.345  51.722  40.247  1.00  0.00     0.018 A 
HETATM    5  C   UNL     1      28.929  52.135  39.912  1.00  0.00     0.198 A 
HETATM    6  C   UNL     1      28.384  52.556  41.322  1.00  0.00     0.266 A 
HETATM    7  O   UNL     1      27.278  52.981  41.620  1.00  0.00    -0.269 OA
HETATM    8  N   UNL     1      29.442  52.427  42.223  1.00  0.00    -0.323 N 
HETATM    9  C   UNL     1      31.347  51.230  39.424  1.00  0.00     0.013 A 
HETATM   10  C   UNL     1      32.587  50.943  39.997  1.00  0.00     0.001 A 
HETATM   11  C   UNL     1      32.818  51.166  41.366  1.00  0.00     0.009 A 
HETATM   12  H   UNL     1      29.342  52.655  43.201  1.00  0.00     0.169 HD
ENDROOT
BRANCH   5  13
HETATM   13  C   UNL     1      28.201  50.945  39.340  1.00  0.00     0.018 A 
HETATM   14  C   UNL     1      28.094  49.600  39.856  1.00  0.00     0.002 A 
HETATM   15  C   UNL     1      27.291  48.871  38.975  1.00  0.00     0.043 A 
HETATM   16  C   UNL     1      28.603  48.924  40.988  1.00  0.00     0.014 A 
HETATM   17  C   UNL     1      26.979  47.519  39.162  1.00  0.00     0.030 A 
HETATM   18  N   UNL     1      26.908  49.727  37.971  1.00  0.00    -0.365 N 
HETATM   19  C   UNL     1      27.506  46.879  40.285  1.00  0.00     0.002 A 
HETATM   20  C   UNL     1      28.307  47.570  41.188  1.00  0.00     0.001 A 
HETATM   21  H   UNL     1      26.307  49.474  37.199  1.00  0.00     0.165 HD
HETATM   22  C   UNL     1      27.448  50.963  38.175  1.00  0.00     0.100 A 
ENDBRANCH   5  13
BRANCH   5  23
HETATM   23  O   UNL     1      28.974  53.238  39.008  1.00  0.00    -0.371 OA
HETATM   24  H   UNL     1      29.523  53.918  39.431  1.00  0.00     0.212 HD
ENDBRANCH   5  23
TORSDOF 2
ENDMDL
