MODEL 1
REMARK VINA RESULT:      -9.7      0.000      0.000
REMARK  9 active torsions:
REMARK  status: ('A' for Active; 'I' for Inactive)
REMARK    1  A    between atoms: O_2  and  C_3 
REMARK    2  A    between atoms: C_6  and  C_7 
REMARK    3  A    between atoms: C_13  and  C_14 
REMARK       I    between atoms: C_14  and  N_15 
REMARK    4  A    between atoms: N_15  and  N_16 
REMARK    5  A    between atoms: N_16  and  C_17 
REMARK    6  A    between atoms: C_17  and  N_18 
REMARK    7  A    between atoms: N_18  and  C_19 
REMARK    8  A    between atoms: C_19  and  C_20 
REMARK    9  A    between atoms: C_27  and  C_28 
ROOT
HETATM    1  C   UNL     1      27.416  43.674  52.665  1.00  0.00     0.118 C 
HETATM    2  N   UNL     1      26.796  44.902  52.190  1.00  0.00    -0.365 N 
HETATM    3  C   UNL     1      26.110  44.923  51.022  1.00  0.00     0.138 A 
HETATM    4  N   UNL     1      26.211  43.879  50.137  1.00  0.00    -0.240 N 
HETATM    5  N   UNL     1      25.530  44.064  48.999  1.00  0.00    -0.181 NA
HETATM    6  C   UNL     1      24.953  45.256  49.181  1.00  0.00     0.160 A 
HETATM    7  C   UNL     1      25.261  45.842  50.437  1.00  0.00     0.098 A 
HETATM    8  C   UNL     1      27.015  42.689  50.359  1.00  0.00     0.221 C 
HETATM    9  C   UNL     1      28.058  42.951  51.464  1.00  0.00     0.066 C 
HETATM   10  H   UNL     1      26.695  45.662  52.868  1.00  0.00     0.161 HD
ENDROOT
BRANCH   7  11
HETATM   11  C   UNL     1      24.860  47.124  50.991  1.00  0.00     0.275 C 
HETATM   12  N   UNL     1      23.952  47.890  50.279  1.00  0.00    -0.263 N 
HETATM   13  H   UNL     1      23.706  48.766  50.732  1.00  0.00     0.190 HD
HETATM   14  O   UNL     1      25.282  47.542  52.069  1.00  0.00    -0.266 OA
BRANCH  12  15
HETATM   15  N   UNL     1      22.921  47.306  49.519  1.00  0.00    -0.274 N 
HETATM   16  H   UNL     1      23.074  46.353  49.207  1.00  0.00     0.189 HD
BRANCH  15  17
HETATM   17  C   UNL     1      21.935  48.066  48.943  1.00  0.00     0.186 C 
HETATM   18  S   UNL     1      21.144  47.712  47.514  1.00  0.00    -0.040 SA
BRANCH  17  19
HETATM   19  N   UNL     1      21.604  49.217  49.588  1.00  0.00    -0.360 N 
HETATM   20  H   UNL     1      21.256  49.088  50.532  1.00  0.00     0.162 HD
BRANCH  19  21
HETATM   21  C   UNL     1      21.667  50.588  49.114  1.00  0.00     0.187 C 
BRANCH  21  22
HETATM   22  C   UNL     1      20.322  51.205  49.179  1.00  0.00     0.070 A 
HETATM   23  O   UNL     1      19.459  50.690  50.103  1.00  0.00    -0.325 OA
HETATM   24  C   UNL     1      18.303  51.393  50.000  1.00  0.00     0.142 A 
HETATM   25  C   UNL     1      18.404  52.344  49.013  1.00  0.00     0.027 A 
HETATM   26  C   UNL     1      19.708  52.222  48.477  1.00  0.00     0.036 A 
ENDBRANCH  21  22
ENDBRANCH  19  21
ENDBRANCH  17  19
ENDBRANCH  15  17
ENDBRANCH  12  15
ENDBRANCH   7  11
BRANCH   1  27
HETATM   27  C   UNL     1      28.376  43.978  53.798  1.00  0.00    -0.035 A 
HETATM   28  C   UNL     1      29.414  43.075  54.075  1.00  0.00     0.012 A 
HETATM   29  C   UNL     1      30.338  43.334  55.091  1.00  0.00     0.037 A 
HETATM   30  C   UNL     1      30.250  44.501  55.848  1.00  0.00     0.068 A 
HETATM   31  C   UNL     1      29.197  45.384  55.615  1.00  0.00     0.037 A 
HETATM   32  C   UNL     1      28.263  45.120  54.605  1.00  0.00     0.012 A 
BRANCH  30  33
HETATM   33  O   UNL     1      31.230  44.651  56.790  1.00  0.00    -0.356 OA
HETATM   34  C   UNL     1      31.873  43.459  57.223  1.00  0.00     0.210 C 
ENDBRANCH  30  33
ENDBRANCH   1  27
BRANCH   8  35
HETATM   35  C   UNL     1      26.114  41.520  50.687  1.00  0.00     0.409 C 
HETATM   36  F   UNL     1      26.639  40.687  51.615  1.00  0.00    -0.169 F 
HETATM   37  F   UNL     1      24.894  41.898  51.126  1.00  0.00    -0.169 F 
HETATM   38  F   UNL     1      25.902  40.771  49.573  1.00  0.00    -0.169 F 
ENDBRANCH   8  35
TORSDOF 9
ENDMDL
MODEL 2
REMARK VINA RESULT:      -9.6      1.846      2.240
REMARK  9 active torsions:
REMARK  status: ('A' for Active; 'I' for Inactive)
REMARK    1  A    between atoms: O_2  and  C_3 
REMARK    2  A    between atoms: C_6  and  C_7 
REMARK    3  A    between atoms: C_13  and  C_14 
REMARK       I    between atoms: C_14  and  N_15 
REMARK    4  A    between atoms: N_15  and  N_16 
REMARK    5  A    between atoms: N_16  and  C_17 
REMARK    6  A    between atoms: C_17  and  N_18 
REMARK    7  A    between atoms: N_18  and  C_19 
REMARK    8  A    between atoms: C_19  and  C_20 
REMARK    9  A    between atoms: C_27  and  C_28 
ROOT
HETATM    1  C   UNL     1      27.832  44.009  53.315  1.00  0.00     0.118 C 
HETATM    2  N   UNL     1      27.082  45.021  52.587  1.00  0.00    -0.365 N 
HETATM    3  C   UNL     1      26.648  44.785  51.325  1.00  0.00     0.138 A 
HETATM    4  N   UNL     1      27.129  43.715  50.614  1.00  0.00    -0.240 N 
HETATM    5  N   UNL     1      26.660  43.642  49.361  1.00  0.00    -0.181 NA
HETATM    6  C   UNL     1      25.829  44.687  49.286  1.00  0.00     0.160 A 
HETATM    7  C   UNL     1      25.761  45.436  50.491  1.00  0.00     0.098 A 
HETATM    8  C   UNL     1      28.098  42.759  51.121  1.00  0.00     0.221 C 
HETATM    9  C   UNL     1      28.829  43.344  52.346  1.00  0.00     0.066 C 
HETATM   10  H   UNL     1      26.699  45.796  53.134  1.00  0.00     0.161 HD
ENDROOT
BRANCH   7  11
HETATM   11  C   UNL     1      25.008  46.640  50.797  1.00  0.00     0.275 C 
HETATM   12  N   UNL     1      23.880  46.918  50.044  1.00  0.00    -0.263 N 
HETATM   13  H   UNL     1      23.396  47.766  50.323  1.00  0.00     0.190 HD
HETATM   14  O   UNL     1      25.326  47.407  51.706  1.00  0.00    -0.266 OA
BRANCH  12  15
HETATM   15  N   UNL     1      23.048  45.897  49.547  1.00  0.00    -0.274 N 
HETATM   16  H   UNL     1      23.316  44.945  49.773  1.00  0.00     0.189 HD
BRANCH  15  17
HETATM   17  C   UNL     1      22.141  46.134  48.546  1.00  0.00     0.186 C 
HETATM   18  S   UNL     1      22.042  45.294  47.104  1.00  0.00    -0.040 SA
BRANCH  17  19
HETATM   19  N   UNL     1      21.272  47.161  48.747  1.00  0.00    -0.360 N 
HETATM   20  H   UNL     1      20.761  47.117  49.622  1.00  0.00     0.162 HD
BRANCH  19  21
HETATM   21  C   UNL     1      20.971  48.293  47.889  1.00  0.00     0.187 C 
BRANCH  21  22
HETATM   22  C   UNL     1      22.018  49.330  48.037  1.00  0.00     0.070 A 
HETATM   23  O   UNL     1      23.308  48.924  47.854  1.00  0.00    -0.325 OA
HETATM   24  C   UNL     1      24.095  50.016  48.027  1.00  0.00     0.142 A 
HETATM   25  C   UNL     1      23.331  51.116  48.335  1.00  0.00     0.027 A 
HETATM   26  C   UNL     1      21.987  50.675  48.346  1.00  0.00     0.036 A 
ENDBRANCH  21  22
ENDBRANCH  19  21
ENDBRANCH  17  19
ENDBRANCH  15  17
ENDBRANCH  12  15
ENDBRANCH   7  11
BRANCH   1  27
HETATM   27  C   UNL     1      28.471  44.619  54.547  1.00  0.00    -0.035 A 
HETATM   28  C   UNL     1      29.698  44.112  55.003  1.00  0.00     0.012 A 
HETATM   29  C   UNL     1      30.334  44.667  56.117  1.00  0.00     0.037 A 
HETATM   30  C   UNL     1      29.763  45.742  56.796  1.00  0.00     0.068 A 
HETATM   31  C   UNL     1      28.523  46.226  56.383  1.00  0.00     0.037 A 
HETATM   32  C   UNL     1      27.878  45.662  55.274  1.00  0.00     0.012 A 
BRANCH  30  33
HETATM   33  O   UNL     1      30.497  46.212  57.850  1.00  0.00    -0.356 OA
HETATM   34  C   UNL     1      31.162  45.234  58.639  1.00  0.00     0.210 C 
ENDBRANCH  30  33
ENDBRANCH   1  27
BRANCH   8  35
HETATM   35  C   UNL     1      27.405  41.452  51.438  1.00  0.00     0.409 C 
HETATM   36  F   UNL     1      27.767  40.934  52.634  1.00  0.00    -0.169 F 
HETATM   37  F   UNL     1      26.058  41.550  51.429  1.00  0.00    -0.169 F 
HETATM   38  F   UNL     1      27.724  40.520  50.502  1.00  0.00    -0.169 F 
ENDBRANCH   8  35
TORSDOF 9
ENDMDL
MODEL 3
REMARK VINA RESULT:      -9.3      5.010      8.075
REMARK  9 active torsions:
REMARK  status: ('A' for Active; 'I' for Inactive)
REMARK    1  A    between atoms: O_2  and  C_3 
REMARK    2  A    between atoms: C_6  and  C_7 
REMARK    3  A    between atoms: C_13  and  C_14 
REMARK       I    between atoms: C_14  and  N_15 
REMARK    4  A    between atoms: N_15  and  N_16 
REMARK    5  A    between atoms: N_16  and  C_17 
REMARK    6  A    between atoms: C_17  and  N_18 
REMARK    7  A    between atoms: N_18  and  C_19 
REMARK    8  A    between atoms: C_19  and  C_20 
REMARK    9  A    between atoms: C_27  and  C_28 
ROOT
HETATM    1  C   UNL     1      27.681  44.615  53.192  1.00  0.00     0.118 C 
HETATM    2  N   UNL     1      27.311  43.328  52.622  1.00  0.00    -0.365 N 
HETATM    3  C   UNL     1      26.190  43.202  51.872  1.00  0.00     0.138 A 
HETATM    4  N   UNL     1      25.247  44.198  51.858  1.00  0.00    -0.240 N 
HETATM    5  N   UNL     1      24.164  43.910  51.125  1.00  0.00    -0.181 NA
HETATM    6  C   UNL     1      24.444  42.699  50.632  1.00  0.00     0.160 A 
HETATM    7  C   UNL     1      25.708  42.204  51.047  1.00  0.00     0.098 A 
HETATM    8  C   UNL     1      25.355  45.443  52.599  1.00  0.00     0.221 C 
HETATM    9  C   UNL     1      26.407  45.305  53.718  1.00  0.00     0.066 C 
HETATM   10  H   UNL     1      28.034  42.604  52.606  1.00  0.00     0.161 HD
ENDROOT
BRANCH   7  11
HETATM   11  C   UNL     1      26.353  40.935  50.758  1.00  0.00     0.275 C 
HETATM   12  N   UNL     1      25.726  40.066  49.880  1.00  0.00    -0.263 N 
HETATM   13  H   UNL     1      26.239  39.206  49.712  1.00  0.00     0.190 HD
HETATM   14  O   UNL     1      27.435  40.614  51.248  1.00  0.00    -0.266 OA
BRANCH  12  15
HETATM   15  N   UNL     1      24.976  40.532  48.783  1.00  0.00    -0.274 N 
HETATM   16  H   UNL     1      24.014  40.792  48.970  1.00  0.00     0.189 HD
BRANCH  15  17
HETATM   17  C   UNL     1      25.392  40.329  47.492  1.00  0.00     0.186 C 
HETATM   18  S   UNL     1      24.399  39.963  46.197  1.00  0.00    -0.040 SA
BRANCH  17  19
HETATM   19  N   UNL     1      26.731  40.408  47.267  1.00  0.00    -0.360 N 
HETATM   20  H   UNL     1      27.125  41.335  47.384  1.00  0.00     0.162 HD
BRANCH  19  21
HETATM   21  C   UNL     1      27.661  39.364  46.876  1.00  0.00     0.187 C 
BRANCH  21  22
HETATM   22  C   UNL     1      28.219  38.710  48.082  1.00  0.00     0.070 A 
HETATM   23  O   UNL     1      27.412  37.809  48.715  1.00  0.00    -0.325 OA
HETATM   24  C   UNL     1      28.110  37.330  49.776  1.00  0.00     0.142 A 
HETATM   25  C   UNL     1      29.348  37.921  49.844  1.00  0.00     0.027 A 
HETATM   26  C   UNL     1      29.421  38.817  48.752  1.00  0.00     0.036 A 
ENDBRANCH  21  22
ENDBRANCH  19  21
ENDBRANCH  17  19
ENDBRANCH  15  17
ENDBRANCH  12  15
ENDBRANCH   7  11
BRANCH   1  27
HETATM   27  C   UNL     1      28.768  44.431  54.233  1.00  0.00    -0.035 A 
HETATM   28  C   UNL     1      28.931  45.405  55.230  1.00  0.00     0.012 A 
HETATM   29  C   UNL     1      29.900  45.258  56.225  1.00  0.00     0.037 A 
HETATM   30  C   UNL     1      30.724  44.134  56.251  1.00  0.00     0.068 A 
HETATM   31  C   UNL     1      30.606  43.181  55.240  1.00  0.00     0.037 A 
HETATM   32  C   UNL     1      29.642  43.334  54.235  1.00  0.00     0.012 A 
BRANCH  30  33
HETATM   33  O   UNL     1      31.611  44.094  57.291  1.00  0.00    -0.356 OA
HETATM   34  C   UNL     1      31.299  44.908  58.414  1.00  0.00     0.210 C 
ENDBRANCH  30  33
ENDBRANCH   1  27
BRANCH   8  35
HETATM   35  C   UNL     1      25.676  46.575  51.649  1.00  0.00     0.409 C 
HETATM   36  F   UNL     1      24.574  47.171  51.139  1.00  0.00    -0.169 F 
HETATM   37  F   UNL     1      26.435  47.540  52.211  1.00  0.00    -0.169 F 
HETATM   38  F   UNL     1      26.384  46.104  50.589  1.00  0.00    -0.169 F 
ENDBRANCH   8  35
TORSDOF 9
ENDMDL
MODEL 4
REMARK VINA RESULT:      -9.2      3.607      5.139
REMARK  9 active torsions:
REMARK  status: ('A' for Active; 'I' for Inactive)
REMARK    1  A    between atoms: O_2  and  C_3 
REMARK    2  A    between atoms: C_6  and  C_7 
REMARK    3  A    between atoms: C_13  and  C_14 
REMARK       I    between atoms: C_14  and  N_15 
REMARK    4  A    between atoms: N_15  and  N_16 
REMARK    5  A    between atoms: N_16  and  C_17 
REMARK    6  A    between atoms: C_17  and  N_18 
REMARK    7  A    between atoms: N_18  and  C_19 
REMARK    8  A    between atoms: C_19  and  C_20 
REMARK    9  A    between atoms: C_27  and  C_28 
ROOT
HETATM    1  C   UNL     1      27.951  43.603  52.862  1.00  0.00     0.118 C 
HETATM    2  N   UNL     1      27.053  44.500  52.150  1.00  0.00    -0.365 N 
HETATM    3  C   UNL     1      26.528  45.586  52.768  1.00  0.00     0.138 A 
HETATM    4  N   UNL     1      26.607  45.716  54.131  1.00  0.00    -0.240 N 
HETATM    5  N   UNL     1      25.991  46.804  54.609  1.00  0.00    -0.181 NA
HETATM    6  C   UNL     1      25.530  47.402  53.506  1.00  0.00     0.160 A 
HETATM    7  C   UNL     1      25.848  46.699  52.313  1.00  0.00     0.098 A 
HETATM    8  C   UNL     1      27.247  44.754  55.013  1.00  0.00     0.221 C 
HETATM    9  C   UNL     1      27.412  43.401  54.292  1.00  0.00     0.066 C 
HETATM   10  H   UNL     1      27.029  44.417  51.130  1.00  0.00     0.161 HD
ENDROOT
BRANCH   7  11
HETATM   11  C   UNL     1      25.506  47.000  50.934  1.00  0.00     0.275 C 
HETATM   12  N   UNL     1      24.825  46.042  50.203  1.00  0.00    -0.263 N 
HETATM   13  H   UNL     1      24.605  46.326  49.253  1.00  0.00     0.190 HD
HETATM   14  O   UNL     1      25.783  48.075  50.402  1.00  0.00    -0.266 OA
BRANCH  12  15
HETATM   15  N   UNL     1      23.879  45.186  50.799  1.00  0.00    -0.274 N 
HETATM   16  H   UNL     1      23.876  45.150  51.813  1.00  0.00     0.189 HD
BRANCH  15  17
HETATM   17  C   UNL     1      23.238  44.211  50.077  1.00  0.00     0.186 C 
HETATM   18  S   UNL     1      23.830  42.677  49.778  1.00  0.00    -0.040 SA
BRANCH  17  19
HETATM   19  N   UNL     1      22.033  44.546  49.543  1.00  0.00    -0.360 N 
HETATM   20  H   UNL     1      21.232  44.264  50.097  1.00  0.00     0.162 HD
BRANCH  19  21
HETATM   21  C   UNL     1      21.738  45.233  48.298  1.00  0.00     0.187 C 
BRANCH  21  22
HETATM   22  C   UNL     1      21.546  46.679  48.555  1.00  0.00     0.070 A 
HETATM   23  O   UNL     1      22.668  47.401  48.841  1.00  0.00    -0.325 OA
HETATM   24  C   UNL     1      22.274  48.686  49.034  1.00  0.00     0.142 A 
HETATM   25  C   UNL     1      20.912  48.798  48.891  1.00  0.00     0.027 A 
HETATM   26  C   UNL     1      20.437  47.500  48.586  1.00  0.00     0.036 A 
ENDBRANCH  21  22
ENDBRANCH  19  21
ENDBRANCH  17  19
ENDBRANCH  15  17
ENDBRANCH  12  15
ENDBRANCH   7  11
BRANCH   1  27
HETATM   27  C   UNL     1      28.137  42.319  52.077  1.00  0.00    -0.035 A 
HETATM   28  C   UNL     1      28.898  41.281  52.635  1.00  0.00     0.012 A 
HETATM   29  C   UNL     1      29.067  40.071  51.957  1.00  0.00     0.037 A 
HETATM   30  C   UNL     1      28.477  39.869  50.710  1.00  0.00     0.068 A 
HETATM   31  C   UNL     1      27.758  40.908  50.123  1.00  0.00     0.037 A 
HETATM   32  C   UNL     1      27.597  42.126  50.796  1.00  0.00     0.012 A 
BRANCH  30  33
HETATM   33  O   UNL     1      28.693  38.634  50.165  1.00  0.00    -0.356 OA
HETATM   34  C   UNL     1      29.828  37.924  50.645  1.00  0.00     0.210 C 
ENDBRANCH  30  33
ENDBRANCH   1  27
BRANCH   8  35
HETATM   35  C   UNL     1      28.567  45.309  55.499  1.00  0.00     0.409 C 
HETATM   36  F   UNL     1      29.545  44.377  55.563  1.00  0.00    -0.169 F 
HETATM   37  F   UNL     1      29.026  46.327  54.740  1.00  0.00    -0.169 F 
HETATM   38  F   UNL     1      28.426  45.806  56.756  1.00  0.00    -0.169 F 
ENDBRANCH   8  35
TORSDOF 9
ENDMDL
MODEL 5
REMARK VINA RESULT:      -8.9      3.578      5.689
REMARK  9 active torsions:
REMARK  status: ('A' for Active; 'I' for Inactive)
REMARK    1  A    between atoms: O_2  and  C_3 
REMARK    2  A    between atoms: C_6  and  C_7 
REMARK    3  A    between atoms: C_13  and  C_14 
REMARK       I    between atoms: C_14  and  N_15 
REMARK    4  A    between atoms: N_15  and  N_16 
REMARK    5  A    between atoms: N_16  and  C_17 
REMARK    6  A    between atoms: C_17  and  N_18 
REMARK    7  A    between atoms: N_18  and  C_19 
REMARK    8  A    between atoms: C_19  and  C_20 
REMARK    9  A    between atoms: C_27  and  C_28 
ROOT
HETATM    1  C   UNL     1      27.782  41.680  51.670  1.00  0.00     0.118 C 
HETATM    2  N   UNL     1      26.604  42.530  51.593  1.00  0.00    -0.365 N 
HETATM    3  C   UNL     1      26.358  43.457  52.550  1.00  0.00     0.138 A 
HETATM    4  N   UNL     1      27.047  43.433  53.735  1.00  0.00    -0.240 N 
HETATM    5  N   UNL     1      26.655  44.368  54.610  1.00  0.00    -0.181 NA
HETATM    6  C   UNL     1      25.701  45.027  53.944  1.00  0.00     0.160 A 
HETATM    7  C   UNL     1      25.477  44.518  52.637  1.00  0.00     0.098 A 
HETATM    8  C   UNL     1      28.078  42.465  54.067  1.00  0.00     0.221 C 
HETATM    9  C   UNL     1      27.976  41.241  53.135  1.00  0.00     0.066 C 
HETATM   10  H   UNL     1      26.119  42.567  50.693  1.00  0.00     0.161 HD
ENDROOT
BRANCH   7  11
HETATM   11  C   UNL     1      24.521  44.935  51.626  1.00  0.00     0.275 C 
HETATM   12  N   UNL     1      24.585  46.237  51.159  1.00  0.00    -0.263 N 
HETATM   13  H   UNL     1      23.897  46.454  50.444  1.00  0.00     0.190 HD
HETATM   14  O   UNL     1      23.673  44.173  51.163  1.00  0.00    -0.266 OA
BRANCH  12  15
HETATM   15  N   UNL     1      25.810  46.920  51.030  1.00  0.00    -0.274 N 
HETATM   16  H   UNL     1      26.373  47.002  51.870  1.00  0.00     0.189 HD
BRANCH  15  17
HETATM   17  C   UNL     1      26.076  47.717  49.945  1.00  0.00     0.186 C 
HETATM   18  S   UNL     1      27.595  48.048  49.333  1.00  0.00    -0.040 SA
BRANCH  17  19
HETATM   19  N   UNL     1      25.004  48.302  49.346  1.00  0.00    -0.360 N 
HETATM   20  H   UNL     1      24.155  47.747  49.364  1.00  0.00     0.162 HD
BRANCH  19  21
HETATM   21  C   UNL     1      24.910  49.590  48.683  1.00  0.00     0.187 C 
BRANCH  21  22
HETATM   22  C   UNL     1      23.491  49.910  48.403  1.00  0.00     0.070 A 
HETATM   23  O   UNL     1      22.762  48.945  47.771  1.00  0.00    -0.325 OA
HETATM   24  C   UNL     1      21.505  49.434  47.620  1.00  0.00     0.142 A 
HETATM   25  C   UNL     1      21.419  50.706  48.132  1.00  0.00     0.027 A 
HETATM   26  C   UNL     1      22.703  51.019  48.636  1.00  0.00     0.036 A 
ENDBRANCH  21  22
ENDBRANCH  19  21
ENDBRANCH  17  19
ENDBRANCH  15  17
ENDBRANCH  12  15
ENDBRANCH   7  11
BRANCH   1  27
HETATM   27  C   UNL     1      27.664  40.533  50.685  1.00  0.00    -0.035 A 
HETATM   28  C   UNL     1      26.496  40.410  49.917  1.00  0.00     0.012 A 
HETATM   29  C   UNL     1      26.362  39.386  48.976  1.00  0.00     0.037 A 
HETATM   30  C   UNL     1      27.390  38.466  48.778  1.00  0.00     0.068 A 
HETATM   31  C   UNL     1      28.536  38.547  49.567  1.00  0.00     0.037 A 
HETATM   32  C   UNL     1      28.667  39.567  50.519  1.00  0.00     0.012 A 
BRANCH  30  33
HETATM   33  O   UNL     1      27.147  37.531  47.810  1.00  0.00    -0.356 OA
HETATM   34  C   UNL     1      26.279  36.463  48.170  1.00  0.00     0.210 C 
ENDBRANCH  30  33
ENDBRANCH   1  27
BRANCH   8  35
HETATM   35  C   UNL     1      29.437  43.125  53.998  1.00  0.00     0.409 C 
HETATM   36  F   UNL     1      30.420  42.282  53.606  1.00  0.00    -0.169 F 
HETATM   37  F   UNL     1      29.466  44.193  53.171  1.00  0.00    -0.169 F 
HETATM   38  F   UNL     1      29.792  43.586  55.226  1.00  0.00    -0.169 F 
ENDBRANCH   8  35
TORSDOF 9
ENDMDL
MODEL 6
REMARK VINA RESULT:      -8.8      4.052      5.353
REMARK  9 active torsions:
REMARK  status: ('A' for Active; 'I' for Inactive)
REMARK    1  A    between atoms: O_2  and  C_3 
REMARK    2  A    between atoms: C_6  and  C_7 
REMARK    3  A    between atoms: C_13  and  C_14 
REMARK       I    between atoms: C_14  and  N_15 
REMARK    4  A    between atoms: N_15  and  N_16 
REMARK    5  A    between atoms: N_16  and  C_17 
REMARK    6  A    between atoms: C_17  and  N_18 
REMARK    7  A    between atoms: N_18  and  C_19 
REMARK    8  A    between atoms: C_19  and  C_20 
REMARK    9  A    between atoms: C_27  and  C_28 
ROOT
HETATM    1  C   UNL     1      27.284  44.749  52.841  1.00  0.00     0.118 C 
HETATM    2  N   UNL     1      26.870  43.456  52.319  1.00  0.00    -0.365 N 
HETATM    3  C   UNL     1      25.743  43.340  51.575  1.00  0.00     0.138 A 
HETATM    4  N   UNL     1      24.834  44.366  51.527  1.00  0.00    -0.240 N 
HETATM    5  N   UNL     1      23.740  44.087  50.806  1.00  0.00    -0.181 NA
HETATM    6  C   UNL     1      23.978  42.851  50.357  1.00  0.00     0.160 A 
HETATM    7  C   UNL     1      25.227  42.329  50.788  1.00  0.00     0.098 A 
HETATM    8  C   UNL     1      24.985  45.632  52.222  1.00  0.00     0.221 C 
HETATM    9  C   UNL     1      26.034  45.500  53.344  1.00  0.00     0.066 C 
HETATM   10  H   UNL     1      27.568  42.708  52.329  1.00  0.00     0.161 HD
ENDROOT
BRANCH   7  11
HETATM   11  C   UNL     1      25.828  41.029  50.544  1.00  0.00     0.275 C 
HETATM   12  N   UNL     1      25.725  40.488  49.274  1.00  0.00    -0.263 N 
HETATM   13  H   UNL     1      26.181  39.586  49.171  1.00  0.00     0.190 HD
HETATM   14  O   UNL     1      26.434  40.406  51.414  1.00  0.00    -0.266 OA
BRANCH  12  15
HETATM   15  N   UNL     1      25.740  41.294  48.119  1.00  0.00    -0.274 N 
HETATM   16  H   UNL     1      26.370  42.088  48.129  1.00  0.00     0.189 HD
BRANCH  15  17
HETATM   17  C   UNL     1      24.738  41.227  47.185  1.00  0.00     0.186 C 
HETATM   18  S   UNL     1      24.244  39.843  46.387  1.00  0.00    -0.040 SA
BRANCH  17  19
HETATM   19  N   UNL     1      24.122  42.399  46.871  1.00  0.00    -0.360 N 
HETATM   20  H   UNL     1      24.734  43.207  46.860  1.00  0.00     0.162 HD
BRANCH  19  21
HETATM   21  C   UNL     1      22.725  42.651  46.566  1.00  0.00     0.187 C 
BRANCH  21  22
HETATM   22  C   UNL     1      22.281  43.894  47.238  1.00  0.00     0.070 A 
HETATM   23  O   UNL     1      21.272  43.768  48.149  1.00  0.00    -0.325 OA
HETATM   24  C   UNL     1      21.028  45.008  48.643  1.00  0.00     0.142 A 
HETATM   25  C   UNL     1      21.854  45.933  48.053  1.00  0.00     0.027 A 
HETATM   26  C   UNL     1      22.663  45.217  47.140  1.00  0.00     0.036 A 
ENDBRANCH  21  22
ENDBRANCH  19  21
ENDBRANCH  17  19
ENDBRANCH  15  17
ENDBRANCH  12  15
ENDBRANCH   7  11
BRANCH   1  27
HETATM   27  C   UNL     1      28.366  44.568  53.887  1.00  0.00    -0.035 A 
HETATM   28  C   UNL     1      28.591  45.589  54.823  1.00  0.00     0.012 A 
HETATM   29  C   UNL     1      29.558  45.447  55.821  1.00  0.00     0.037 A 
HETATM   30  C   UNL     1      30.319  44.282  55.911  1.00  0.00     0.068 A 
HETATM   31  C   UNL     1      30.139  43.279  54.960  1.00  0.00     0.037 A 
HETATM   32  C   UNL     1      29.178  43.425  53.951  1.00  0.00     0.012 A 
BRANCH  30  33
HETATM   33  O   UNL     1      31.210  44.254  56.948  1.00  0.00    -0.356 OA
HETATM   34  C   UNL     1      31.933  43.043  57.123  1.00  0.00     0.210 C 
ENDBRANCH  30  33
ENDBRANCH   1  27
BRANCH   8  35
HETATM   35  C   UNL     1      25.340  46.718  51.232  1.00  0.00     0.409 C 
HETATM   36  F   UNL     1      26.149  47.669  51.751  1.00  0.00    -0.169 F 
HETATM   37  F   UNL     1      25.936  46.243  50.116  1.00  0.00    -0.169 F 
HETATM   38  F   UNL     1      24.213  47.355  50.818  1.00  0.00    -0.169 F 
ENDBRANCH   8  35
TORSDOF 9
ENDMDL
MODEL 7
REMARK VINA RESULT:      -8.6      2.182      3.038
REMARK  9 active torsions:
REMARK  status: ('A' for Active; 'I' for Inactive)
REMARK    1  A    between atoms: O_2  and  C_3 
REMARK    2  A    between atoms: C_6  and  C_7 
REMARK    3  A    between atoms: C_13  and  C_14 
REMARK       I    between atoms: C_14  and  N_15 
REMARK    4  A    between atoms: N_15  and  N_16 
REMARK    5  A    between atoms: N_16  and  C_17 
REMARK    6  A    between atoms: C_17  and  N_18 
REMARK    7  A    between atoms: N_18  and  C_19 
REMARK    8  A    between atoms: C_19  and  C_20 
REMARK    9  A    between atoms: C_27  and  C_28 
ROOT
HETATM    1  C   UNL     1      25.059  44.968  51.497  1.00  0.00     0.118 C 
HETATM    2  N   UNL     1      24.482  46.109  50.804  1.00  0.00    -0.365 N 
HETATM    3  C   UNL     1      23.857  45.949  49.613  1.00  0.00     0.138 A 
HETATM    4  N   UNL     1      23.988  44.779  48.910  1.00  0.00    -0.240 N 
HETATM    5  N   UNL     1      23.368  44.786  47.723  1.00  0.00    -0.181 NA
HETATM    6  C   UNL     1      22.799  45.996  47.684  1.00  0.00     0.160 A 
HETATM    7  C   UNL     1      23.051  46.771  48.848  1.00  0.00     0.098 A 
HETATM    8  C   UNL     1      24.763  43.634  49.357  1.00  0.00     0.221 C 
HETATM    9  C   UNL     1      25.752  44.061  50.461  1.00  0.00     0.066 C 
HETATM   10  H   UNL     1      24.357  46.966  51.348  1.00  0.00     0.161 HD
ENDROOT
BRANCH   7  11
HETATM   11  C   UNL     1      22.640  48.126  49.171  1.00  0.00     0.275 C 
HETATM   12  N   UNL     1      21.308  48.465  49.003  1.00  0.00    -0.263 N 
HETATM   13  H   UNL     1      21.090  49.422  49.263  1.00  0.00     0.190 HD
HETATM   14  O   UNL     1      23.424  48.971  49.602  1.00  0.00    -0.266 OA
BRANCH  12  15
HETATM   15  N   UNL     1      20.271  47.539  49.227  1.00  0.00    -0.274 N 
HETATM   16  H   UNL     1      20.417  46.601  48.868  1.00  0.00     0.189 HD
BRANCH  15  17
HETATM   17  C   UNL     1      19.014  47.945  49.594  1.00  0.00     0.186 C 
HETATM   18  S   UNL     1      17.595  47.542  48.808  1.00  0.00    -0.040 SA
BRANCH  17  19
HETATM   19  N   UNL     1      18.934  48.769  50.674  1.00  0.00    -0.360 N 
HETATM   20  H   UNL     1      18.312  48.446  51.406  1.00  0.00     0.162 HD
BRANCH  19  21
HETATM   21  C   UNL     1      19.600  50.037  50.915  1.00  0.00     0.187 C 
BRANCH  21  22
HETATM   22  C   UNL     1      19.077  51.063  49.984  1.00  0.00     0.070 A 
HETATM   23  O   UNL     1      17.755  51.378  50.102  1.00  0.00    -0.325 OA
HETATM   24  C   UNL     1      17.489  52.330  49.172  1.00  0.00     0.142 A 
HETATM   25  C   UNL     1      18.618  52.621  48.446  1.00  0.00     0.027 A 
HETATM   26  C   UNL     1      19.647  51.800  48.965  1.00  0.00     0.036 A 
ENDBRANCH  21  22
ENDBRANCH  19  21
ENDBRANCH  17  19
ENDBRANCH  15  17
ENDBRANCH  12  15
ENDBRANCH   7  11
BRANCH   1  27
HETATM   27  C   UNL     1      25.965  45.441  52.617  1.00  0.00    -0.035 A 
HETATM   28  C   UNL     1      25.847  46.760  53.081  1.00  0.00     0.012 A 
HETATM   29  C   UNL     1      26.642  47.225  54.132  1.00  0.00     0.037 A 
HETATM   30  C   UNL     1      27.568  46.383  54.745  1.00  0.00     0.068 A 
HETATM   31  C   UNL     1      27.730  45.085  54.264  1.00  0.00     0.037 A 
HETATM   32  C   UNL     1      26.942  44.622  53.203  1.00  0.00     0.012 A 
BRANCH  30  33
HETATM   33  O   UNL     1      28.263  46.949  55.779  1.00  0.00    -0.356 OA
HETATM   34  C   UNL     1      29.088  46.072  56.536  1.00  0.00     0.210 C 
ENDBRANCH  30  33
ENDBRANCH   1  27
BRANCH   8  35
HETATM   35  C   UNL     1      23.830  42.537  49.817  1.00  0.00     0.409 C 
HETATM   36  F   UNL     1      23.499  41.670  48.832  1.00  0.00    -0.169 F 
HETATM   37  F   UNL     1      24.327  41.813  50.844  1.00  0.00    -0.169 F 
HETATM   38  F   UNL     1      22.664  43.076  50.262  1.00  0.00    -0.169 F 
ENDBRANCH   8  35
TORSDOF 9
ENDMDL
MODEL 8
REMARK VINA RESULT:      -8.5      6.184      8.555
REMARK  9 active torsions:
REMARK  status: ('A' for Active; 'I' for Inactive)
REMARK    1  A    between atoms: O_2  and  C_3 
REMARK    2  A    between atoms: C_6  and  C_7 
REMARK    3  A    between atoms: C_13  and  C_14 
REMARK       I    between atoms: C_14  and  N_15 
REMARK    4  A    between atoms: N_15  and  N_16 
REMARK    5  A    between atoms: N_16  and  C_17 
REMARK    6  A    between atoms: C_17  and  N_18 
REMARK    7  A    between atoms: N_18  and  C_19 
REMARK    8  A    between atoms: C_19  and  C_20 
REMARK    9  A    between atoms: C_27  and  C_28 
ROOT
HETATM    1  C   UNL     1      21.980  49.619  48.642  1.00  0.00     0.118 C 
HETATM    2  N   UNL     1      21.353  48.314  48.787  1.00  0.00    -0.365 N 
HETATM    3  C   UNL     1      20.029  48.210  49.055  1.00  0.00     0.138 A 
HETATM    4  N   UNL     1      19.313  49.307  49.461  1.00  0.00    -0.240 N 
HETATM    5  N   UNL     1      18.033  49.043  49.751  1.00  0.00    -0.181 NA
HETATM    6  C   UNL     1      17.926  47.736  49.491  1.00  0.00     0.160 A 
HETATM    7  C   UNL     1      19.138  47.154  49.032  1.00  0.00     0.098 A 
HETATM    8  C   UNL     1      19.872  50.638  49.624  1.00  0.00     0.221 C 
HETATM    9  C   UNL     1      21.409  50.561  49.721  1.00  0.00     0.066 C 
HETATM   10  H   UNL     1      21.882  47.506  48.448  1.00  0.00     0.161 HD
ENDROOT
BRANCH   7  11
HETATM   11  C   UNL     1      19.435  45.777  48.678  1.00  0.00     0.275 C 
HETATM   12  N   UNL     1      18.397  44.976  48.233  1.00  0.00    -0.263 N 
HETATM   13  H   UNL     1      18.680  44.031  47.990  1.00  0.00     0.190 HD
HETATM   14  O   UNL     1      20.570  45.307  48.744  1.00  0.00    -0.266 OA
BRANCH  12  15
HETATM   15  N   UNL     1      17.335  45.493  47.467  1.00  0.00    -0.274 N 
HETATM   16  H   UNL     1      16.435  45.562  47.929  1.00  0.00     0.189 HD
BRANCH  15  17
HETATM   17  C   UNL     1      17.413  45.578  46.100  1.00  0.00     0.186 C 
HETATM   18  S   UNL     1      18.823  45.551  45.203  1.00  0.00    -0.040 SA
BRANCH  17  19
HETATM   19  N   UNL     1      16.235  45.725  45.435  1.00  0.00    -0.360 N 
HETATM   20  H   UNL     1      15.683  44.878  45.362  1.00  0.00     0.162 HD
BRANCH  19  21
HETATM   21  C   UNL     1      15.672  46.909  44.811  1.00  0.00     0.187 C 
BRANCH  21  22
HETATM   22  C   UNL     1      15.758  48.057  45.743  1.00  0.00     0.070 A 
HETATM   23  O   UNL     1      14.863  48.074  46.774  1.00  0.00    -0.325 OA
HETATM   24  C   UNL     1      15.117  49.192  47.500  1.00  0.00     0.142 A 
HETATM   25  C   UNL     1      16.152  49.903  46.943  1.00  0.00     0.027 A 
HETATM   26  C   UNL     1      16.566  49.174  45.803  1.00  0.00     0.036 A 
ENDBRANCH  21  22
ENDBRANCH  19  21
ENDBRANCH  17  19
ENDBRANCH  15  17
ENDBRANCH  12  15
ENDBRANCH   7  11
BRANCH   1  27
HETATM   27  C   UNL     1      23.490  49.479  48.672  1.00  0.00    -0.035 A 
HETATM   28  C   UNL     1      24.068  48.485  49.476  1.00  0.00     0.012 A 
HETATM   29  C   UNL     1      25.454  48.304  49.507  1.00  0.00     0.037 A 
HETATM   30  C   UNL     1      26.290  49.106  48.732  1.00  0.00     0.068 A 
HETATM   31  C   UNL     1      25.733  50.127  47.965  1.00  0.00     0.037 A 
HETATM   32  C   UNL     1      24.345  50.318  47.943  1.00  0.00     0.012 A 
BRANCH  30  33
HETATM   33  O   UNL     1      27.622  48.810  48.829  1.00  0.00    -0.356 OA
HETATM   34  C   UNL     1      27.947  47.445  49.062  1.00  0.00     0.210 C 
ENDBRANCH  30  33
ENDBRANCH   1  27
BRANCH   8  35
HETATM   35  C   UNL     1      19.413  51.525  48.488  1.00  0.00     0.409 C 
HETATM   36  F   UNL     1      18.186  52.057  48.689  1.00  0.00    -0.169 F 
HETATM   37  F   UNL     1      20.262  52.545  48.236  1.00  0.00    -0.169 F 
HETATM   38  F   UNL     1      19.336  50.802  47.339  1.00  0.00    -0.169 F 
ENDBRANCH   8  35
TORSDOF 9
ENDMDL
MODEL 9
REMARK VINA RESULT:      -8.5      4.920      8.006
REMARK  9 active torsions:
REMARK  status: ('A' for Active; 'I' for Inactive)
REMARK    1  A    between atoms: O_2  and  C_3 
REMARK    2  A    between atoms: C_6  and  C_7 
REMARK    3  A    between atoms: C_13  and  C_14 
REMARK       I    between atoms: C_14  and  N_15 
REMARK    4  A    between atoms: N_15  and  N_16 
REMARK    5  A    between atoms: N_16  and  C_17 
REMARK    6  A    between atoms: C_17  and  N_18 
REMARK    7  A    between atoms: N_18  and  C_19 
REMARK    8  A    between atoms: C_19  and  C_20 
REMARK    9  A    between atoms: C_27  and  C_28 
ROOT
HETATM    1  C   UNL     1      27.534  44.656  53.007  1.00  0.00     0.118 C 
HETATM    2  N   UNL     1      27.104  43.392  52.427  1.00  0.00    -0.365 N 
HETATM    3  C   UNL     1      25.958  43.317  51.708  1.00  0.00     0.138 A 
HETATM    4  N   UNL     1      25.050  44.345  51.737  1.00  0.00    -0.240 N 
HETATM    5  N   UNL     1      23.938  44.106  51.031  1.00  0.00    -0.181 NA
HETATM    6  C   UNL     1      24.161  42.895  50.512  1.00  0.00     0.160 A 
HETATM    7  C   UNL     1      25.419  42.349  50.883  1.00  0.00     0.098 A 
HETATM    8  C   UNL     1      25.222  45.573  52.495  1.00  0.00     0.221 C 
HETATM    9  C   UNL     1      26.300  45.380  53.581  1.00  0.00     0.066 C 
HETATM   10  H   UNL     1      27.800  42.644  52.380  1.00  0.00     0.161 HD
ENDROOT
BRANCH   7  11
HETATM   11  C   UNL     1      26.011  41.064  50.554  1.00  0.00     0.275 C 
HETATM   12  N   UNL     1      25.830  40.567  49.275  1.00  0.00    -0.263 N 
HETATM   13  H   UNL     1      26.283  39.673  49.111  1.00  0.00     0.190 HD
HETATM   14  O   UNL     1      26.675  40.415  51.362  1.00  0.00    -0.266 OA
BRANCH  12  15
HETATM   15  N   UNL     1      25.766  41.413  48.151  1.00  0.00    -0.274 N 
HETATM   16  H   UNL     1      25.699  42.408  48.337  1.00  0.00     0.189 HD
BRANCH  15  17
HETATM   17  C   UNL     1      25.468  40.927  46.903  1.00  0.00     0.186 C 
HETATM   18  S   UNL     1      24.112  40.034  46.507  1.00  0.00    -0.040 SA
BRANCH  17  19
HETATM   19  N   UNL     1      26.377  41.177  45.923  1.00  0.00    -0.360 N 
HETATM   20  H   UNL     1      25.985  41.566  45.073  1.00  0.00     0.162 HD
BRANCH  19  21
HETATM   21  C   UNL     1      27.812  40.956  45.920  1.00  0.00     0.187 C 
BRANCH  21  22
HETATM   22  C   UNL     1      28.143  39.818  45.031  1.00  0.00     0.070 A 
HETATM   23  O   UNL     1      28.946  40.093  43.962  1.00  0.00    -0.325 OA
HETATM   24  C   UNL     1      29.127  38.927  43.292  1.00  0.00     0.142 A 
HETATM   25  C   UNL     1      28.439  37.908  43.906  1.00  0.00     0.027 A 
HETATM   26  C   UNL     1      27.798  38.482  45.029  1.00  0.00     0.036 A 
ENDBRANCH  21  22
ENDBRANCH  19  21
ENDBRANCH  17  19
ENDBRANCH  15  17
ENDBRANCH  12  15
ENDBRANCH   7  11
BRANCH   1  27
HETATM   27  C   UNL     1      28.643  44.417  54.013  1.00  0.00    -0.035 A 
HETATM   28  C   UNL     1      28.836  45.344  55.049  1.00  0.00     0.012 A 
HETATM   29  C   UNL     1      29.827  45.145  56.014  1.00  0.00     0.037 A 
HETATM   30  C   UNL     1      30.643  44.015  55.969  1.00  0.00     0.068 A 
HETATM   31  C   UNL     1      30.494  43.111  54.920  1.00  0.00     0.037 A 
HETATM   32  C   UNL     1      29.508  43.315  53.945  1.00  0.00     0.012 A 
BRANCH  30  33
HETATM   33  O   UNL     1      31.553  43.922  56.986  1.00  0.00    -0.356 OA
HETATM   34  C   UNL     1      31.279  44.695  58.148  1.00  0.00     0.210 C 
ENDBRANCH  30  33
ENDBRANCH   1  27
BRANCH   8  35
HETATM   35  C   UNL     1      25.555  46.709  51.554  1.00  0.00     0.409 C 
HETATM   36  F   UNL     1      26.261  46.313  50.471  1.00  0.00    -0.169 F 
HETATM   37  F   UNL     1      24.462  47.365  51.108  1.00  0.00    -0.169 F 
HETATM   38  F   UNL     1      26.318  47.633  52.195  1.00  0.00    -0.169 F 
ENDBRANCH   8  35
TORSDOF 9
ENDMDL
MODEL 10
REMARK VINA RESULT:      -8.5      5.161      6.801
REMARK  9 active torsions:
REMARK  status: ('A' for Active; 'I' for Inactive)
REMARK    1  A    between atoms: O_2  and  C_3 
REMARK    2  A    between atoms: C_6  and  C_7 
REMARK    3  A    between atoms: C_13  and  C_14 
REMARK       I    between atoms: C_14  and  N_15 
REMARK    4  A    between atoms: N_15  and  N_16 
REMARK    5  A    between atoms: N_16  and  C_17 
REMARK    6  A    between atoms: C_17  and  N_18 
REMARK    7  A    between atoms: N_18  and  C_19 
REMARK    8  A    between atoms: C_19  and  C_20 
REMARK    9  A    between atoms: C_27  and  C_28 
ROOT
HETATM    1  C   UNL     1      27.520  43.975  52.691  1.00  0.00     0.118 C 
HETATM    2  N   UNL     1      27.762  42.691  52.049  1.00  0.00    -0.365 N 
HETATM    3  C   UNL     1      26.867  42.180  51.170  1.00  0.00     0.138 A 
HETATM    4  N   UNL     1      25.607  42.713  51.069  1.00  0.00    -0.240 N 
HETATM    5  N   UNL     1      24.812  42.068  50.207  1.00  0.00    -0.181 NA
HETATM    6  C   UNL     1      25.605  41.108  49.721  1.00  0.00     0.160 A 
HETATM    7  C   UNL     1      26.915  41.132  50.270  1.00  0.00     0.098 A 
HETATM    8  C   UNL     1      25.128  43.842  51.849  1.00  0.00     0.221 C 
HETATM    9  C   UNL     1      26.031  44.058  53.080  1.00  0.00     0.066 C 
HETATM   10  H   UNL     1      28.714  42.320  52.101  1.00  0.00     0.161 HD
ENDROOT
BRANCH   7  11
HETATM   11  C   UNL     1      28.044  40.251  50.027  1.00  0.00     0.275 C 
HETATM   12  N   UNL     1      28.360  39.937  48.716  1.00  0.00    -0.263 N 
HETATM   13  H   UNL     1      29.169  39.329  48.620  1.00  0.00     0.190 HD
HETATM   14  O   UNL     1      28.734  39.791  50.937  1.00  0.00    -0.266 OA
BRANCH  12  15
HETATM   15  N   UNL     1      28.185  40.860  47.667  1.00  0.00    -0.274 N 
HETATM   16  H   UNL     1      28.336  41.837  47.895  1.00  0.00     0.189 HD
BRANCH  15  17
HETATM   17  C   UNL     1      27.526  40.519  46.513  1.00  0.00     0.186 C 
HETATM   18  S   UNL     1      27.939  39.259  45.496  1.00  0.00    -0.040 SA
BRANCH  17  19
HETATM   19  N   UNL     1      26.468  41.300  46.167  1.00  0.00    -0.360 N 
HETATM   20  H   UNL     1      26.466  42.221  46.590  1.00  0.00     0.162 HD
BRANCH  19  21
HETATM   21  C   UNL     1      25.347  40.996  45.295  1.00  0.00     0.187 C 
BRANCH  21  22
HETATM   22  C   UNL     1      24.102  40.899  46.092  1.00  0.00     0.070 A 
HETATM   23  O   UNL     1      23.247  41.960  46.018  1.00  0.00    -0.325 OA
HETATM   24  C   UNL     1      22.183  41.666  46.807  1.00  0.00     0.142 A 
HETATM   25  C   UNL     1      22.348  40.438  47.401  1.00  0.00     0.027 A 
HETATM   26  C   UNL     1      23.591  39.941  46.944  1.00  0.00     0.036 A 
ENDBRANCH  21  22
ENDBRANCH  19  21
ENDBRANCH  17  19
ENDBRANCH  15  17
ENDBRANCH  12  15
ENDBRANCH   7  11
BRANCH   1  27
HETATM   27  C   UNL     1      28.481  44.169  53.848  1.00  0.00    -0.035 A 
HETATM   28  C   UNL     1      29.428  43.172  54.124  1.00  0.00     0.012 A 
HETATM   29  C   UNL     1      30.351  43.327  55.162  1.00  0.00     0.037 A 
HETATM   30  C   UNL     1      30.350  44.481  55.944  1.00  0.00     0.068 A 
HETATM   31  C   UNL     1      29.385  45.458  55.712  1.00  0.00     0.037 A 
HETATM   32  C   UNL     1      28.452  45.299  54.678  1.00  0.00     0.012 A 
BRANCH  30  33
HETATM   33  O   UNL     1      31.320  44.524  56.907  1.00  0.00    -0.356 OA
HETATM   34  C   UNL     1      31.962  43.291  57.209  1.00  0.00     0.210 C 
ENDBRANCH  30  33
ENDBRANCH   1  27
BRANCH   8  35
HETATM   35  C   UNL     1      25.053  45.071  50.971  1.00  0.00     0.409 C 
HETATM   36  F   UNL     1      25.214  46.225  51.657  1.00  0.00    -0.169 F 
HETATM   37  F   UNL     1      25.959  45.064  49.970  1.00  0.00    -0.169 F 
HETATM   38  F   UNL     1      23.832  45.143  50.378  1.00  0.00    -0.169 F 
ENDBRANCH   8  35
TORSDOF 9
ENDMDL
