MODEL 1
REMARK VINA RESULT:      -9.1      0.000      0.000
REMARK  10 active torsions:
REMARK  status: ('A' for Active; 'I' for Inactive)
REMARK    1  A    between atoms: C_2  and  C_3 
REMARK    2  A    between atoms: C_3  and  O_4 
REMARK    3  A    between atoms: O_4  and  C_5 
REMARK    4  A    between atoms: C_7  and  C_8 
REMARK       I    between atoms: C_8  and  N_9 
REMARK    5  A    between atoms: N_9  and  C_10 
REMARK    6  A    between atoms: C_10  and  N_11 
REMARK    7  A    between atoms: N_11  and  C_12 
REMARK    8  A    between atoms: C_15  and  N_16 
REMARK    9  A    between atoms: N_19  and  C_21 
REMARK   10  A    between atoms: C_21  and  C_22 
ROOT
HETATM    1  C   UNL     1      24.488  44.586  49.437  1.00  0.00     0.034 C 
HETATM    2  C   UNL     1      24.571  43.532  50.327  1.00  0.00     0.032 C 
HETATM    3  C   UNL     1      24.845  43.738  51.688  1.00  0.00     0.031 C 
HETATM    4  C   UNL     1      24.969  45.014  52.250  1.00  0.00     0.030 C 
HETATM    5  C   UNL     1      24.971  46.067  51.324  1.00  0.00     0.031 C 
HETATM    6  C   UNL     1      24.738  45.860  49.950  1.00  0.00     0.032 C 
ENDROOT
BRANCH   1   7
HETATM    7  N   UNL     1      24.144  44.505  48.071  1.00  0.00    -0.333 N 
HETATM    8  H   UNL     1      24.924  44.643  47.435  1.00  0.00     0.168 HD
BRANCH   7   9
HETATM    9  C   UNL     1      22.975  44.536  47.385  1.00  0.00     0.179 C 
HETATM   10  S   UNL     1      22.993  43.979  45.804  1.00  0.00    -0.040 SA
BRANCH   9  11
HETATM   11  N   UNL     1      21.841  45.121  47.835  1.00  0.00    -0.299 N 
HETATM   12  C   UNL     1      21.613  46.484  47.843  1.00  0.00     0.257 C 
HETATM   13  O   UNL     1      22.462  47.327  47.575  1.00  0.00    -0.267 OA
HETATM   14  H   UNL     1      21.529  44.694  48.699  1.00  0.00     0.171 HD
BRANCH  12  15
HETATM   15  C   UNL     1      20.205  46.905  48.139  1.00  0.00     0.035 A 
HETATM   16  C   UNL     1      19.901  48.041  48.903  1.00  0.00     0.053 A 
HETATM   17  C   UNL     1      18.573  48.311  49.240  1.00  0.00     0.069 A 
HETATM   18  C   UNL     1      17.555  47.433  48.878  1.00  0.00     0.037 A 
HETATM   19  C   UNL     1      17.849  46.307  48.114  1.00  0.00     0.004 A 
HETATM   20  C   UNL     1      19.168  46.046  47.740  1.00  0.00     0.017 A 
BRANCH  17  21
HETATM   21  O   UNL     1      18.230  49.384  50.017  1.00  0.00    -0.351 OA
BRANCH  21  22
HETATM   22  C   UNL     1      19.335  50.252  50.305  1.00  0.00     0.175 C 
BRANCH  22  23
HETATM   23  C   UNL     1      19.066  51.703  49.897  1.00  0.00     0.022 C 
HETATM   24  C   UNL     1      19.627  52.041  48.524  1.00  0.00     0.007 C 
ENDBRANCH  22  23
ENDBRANCH  21  22
ENDBRANCH  17  21
ENDBRANCH  12  15
ENDBRANCH   9  11
ENDBRANCH   7   9
ENDBRANCH   1   7
BRANCH   4  25
HETATM   25  N   UNL     1      25.107  45.211  53.636  1.00  0.00    -0.378 N 
HETATM   26  C   UNL     1      25.913  46.371  54.094  1.00  0.00     0.150 C 
HETATM   27  C   UNL     1      27.422  46.065  53.939  1.00  0.00     0.255 C 
HETATM   28  N   UNL     1      27.787  44.795  54.724  1.00  0.00    -0.064 N 
HETATM   29  H   UNL     1      27.634  45.009  55.716  1.00  0.00     0.280 HD
HETATM   30  C   UNL     1      26.864  43.618  54.369  1.00  0.00     0.255 C 
HETATM   31  C   UNL     1      25.376  44.025  54.481  1.00  0.00     0.150 C 
BRANCH  28  32
HETATM   32  C   UNL     1      29.237  44.402  54.562  1.00  0.00     0.273 C 
BRANCH  32  33
HETATM   33  C   UNL     1      30.056  44.475  55.823  1.00  0.00    -0.033 A 
HETATM   34  C   UNL     1      29.843  45.481  56.780  1.00  0.00     0.009 A 
HETATM   35  C   UNL     1      30.610  45.522  57.946  1.00  0.00     0.001 A 
HETATM   36  C   UNL     1      31.580  44.551  58.181  1.00  0.00     0.000 A 
HETATM   37  C   UNL     1      31.786  43.535  57.251  1.00  0.00     0.001 A 
HETATM   38  C   UNL     1      31.030  43.497  56.079  1.00  0.00     0.009 A 
ENDBRANCH  32  33
ENDBRANCH  28  32
ENDBRANCH   4  25
TORSDOF 10
ENDMDL
MODEL 2
REMARK VINA RESULT:      -9.1      2.448      3.006
REMARK  10 active torsions:
REMARK  status: ('A' for Active; 'I' for Inactive)
REMARK    1  A    between atoms: C_2  and  C_3 
REMARK    2  A    between atoms: C_3  and  O_4 
REMARK    3  A    between atoms: O_4  and  C_5 
REMARK    4  A    between atoms: C_7  and  C_8 
REMARK       I    between atoms: C_8  and  N_9 
REMARK    5  A    between atoms: N_9  and  C_10 
REMARK    6  A    between atoms: C_10  and  N_11 
REMARK    7  A    between atoms: N_11  and  C_12 
REMARK    8  A    between atoms: C_15  and  N_16 
REMARK    9  A    between atoms: N_19  and  C_21 
REMARK   10  A    between atoms: C_21  and  C_22 
ROOT
HETATM    1  C   UNL     1      25.926  47.031  50.489  1.00  0.00     0.034 C 
HETATM    2  C   UNL     1      25.576  46.900  51.819  1.00  0.00     0.032 C 
HETATM    3  C   UNL     1      25.664  45.668  52.486  1.00  0.00     0.031 C 
HETATM    4  C   UNL     1      26.185  44.517  51.882  1.00  0.00     0.030 C 
HETATM    5  C   UNL     1      26.452  44.641  50.511  1.00  0.00     0.031 C 
HETATM    6  C   UNL     1      26.324  45.867  49.828  1.00  0.00     0.032 C 
ENDROOT
BRANCH   1   7
HETATM    7  N   UNL     1      25.951  48.228  49.742  1.00  0.00    -0.333 N 
HETATM    8  H   UNL     1      26.746  48.827  49.941  1.00  0.00     0.168 HD
BRANCH   7   9
HETATM    9  C   UNL     1      25.038  48.900  48.998  1.00  0.00     0.179 C 
HETATM   10  S   UNL     1      25.616  50.034  47.907  1.00  0.00    -0.040 SA
BRANCH   9  11
HETATM   11  N   UNL     1      23.700  48.825  49.181  1.00  0.00    -0.299 N 
HETATM   12  C   UNL     1      22.886  49.907  49.457  1.00  0.00     0.257 C 
HETATM   13  O   UNL     1      23.299  51.034  49.707  1.00  0.00    -0.267 OA
HETATM   14  H   UNL     1      23.454  48.028  49.755  1.00  0.00     0.171 HD
BRANCH  12  15
HETATM   15  C   UNL     1      21.412  49.650  49.368  1.00  0.00     0.035 A 
HETATM   16  C   UNL     1      20.458  50.541  49.882  1.00  0.00     0.053 A 
HETATM   17  C   UNL     1      19.107  50.186  49.871  1.00  0.00     0.069 A 
HETATM   18  C   UNL     1      18.704  48.935  49.412  1.00  0.00     0.037 A 
HETATM   19  C   UNL     1      19.645  48.050  48.894  1.00  0.00     0.004 A 
HETATM   20  C   UNL     1      20.994  48.408  48.866  1.00  0.00     0.017 A 
BRANCH  17  21
HETATM   21  O   UNL     1      18.143  51.002  50.397  1.00  0.00    -0.351 OA
BRANCH  21  22
HETATM   22  C   UNL     1      17.936  52.200  49.636  1.00  0.00     0.175 C 
BRANCH  22  23
HETATM   23  C   UNL     1      16.612  52.890  49.973  1.00  0.00     0.022 C 
HETATM   24  C   UNL     1      15.405  52.149  49.418  1.00  0.00     0.007 C 
ENDBRANCH  22  23
ENDBRANCH  21  22
ENDBRANCH  17  21
ENDBRANCH  12  15
ENDBRANCH   9  11
ENDBRANCH   7   9
ENDBRANCH   1   7
BRANCH   4  25
HETATM   25  N   UNL     1      26.395  43.325  52.599  1.00  0.00    -0.378 N 
HETATM   26  C   UNL     1      26.508  43.415  54.076  1.00  0.00     0.150 C 
HETATM   27  C   UNL     1      27.904  43.954  54.471  1.00  0.00     0.255 C 
HETATM   28  N   UNL     1      29.003  43.052  53.887  1.00  0.00    -0.064 N 
HETATM   29  H   UNL     1      28.905  42.138  54.343  1.00  0.00     0.280 HD
HETATM   30  C   UNL     1      28.817  42.826  52.378  1.00  0.00     0.255 C 
HETATM   31  C   UNL     1      27.378  42.357  52.060  1.00  0.00     0.150 C 
BRANCH  28  32
HETATM   32  C   UNL     1      30.396  43.559  54.181  1.00  0.00     0.273 C 
BRANCH  32  33
HETATM   33  C   UNL     1      30.588  44.111  55.569  1.00  0.00    -0.033 A 
HETATM   34  C   UNL     1      30.030  45.341  55.953  1.00  0.00     0.009 A 
HETATM   35  C   UNL     1      30.214  45.827  57.249  1.00  0.00     0.001 A 
HETATM   36  C   UNL     1      30.935  45.083  58.180  1.00  0.00     0.000 A 
HETATM   37  C   UNL     1      31.474  43.851  57.819  1.00  0.00     0.001 A 
HETATM   38  C   UNL     1      31.302  43.367  56.522  1.00  0.00     0.009 A 
ENDBRANCH  32  33
ENDBRANCH  28  32
ENDBRANCH   4  25
TORSDOF 10
ENDMDL
MODEL 3
REMARK VINA RESULT:      -8.9      2.453      3.263
REMARK  10 active torsions:
REMARK  status: ('A' for Active; 'I' for Inactive)
REMARK    1  A    between atoms: C_2  and  C_3 
REMARK    2  A    between atoms: C_3  and  O_4 
REMARK    3  A    between atoms: O_4  and  C_5 
REMARK    4  A    between atoms: C_7  and  C_8 
REMARK       I    between atoms: C_8  and  N_9 
REMARK    5  A    between atoms: N_9  and  C_10 
REMARK    6  A    between atoms: C_10  and  N_11 
REMARK    7  A    between atoms: N_11  and  C_12 
REMARK    8  A    between atoms: C_15  and  N_16 
REMARK    9  A    between atoms: N_19  and  C_21 
REMARK   10  A    between atoms: C_21  and  C_22 
ROOT
HETATM    1  C   UNL     1      24.642  46.942  49.817  1.00  0.00     0.034 C 
HETATM    2  C   UNL     1      25.148  47.342  51.039  1.00  0.00     0.032 C 
HETATM    3  C   UNL     1      25.339  46.432  52.090  1.00  0.00     0.031 C 
HETATM    4  C   UNL     1      25.113  45.057  51.951  1.00  0.00     0.030 C 
HETATM    5  C   UNL     1      24.518  44.678  50.739  1.00  0.00     0.031 C 
HETATM    6  C   UNL     1      24.285  45.597  49.696  1.00  0.00     0.032 C 
ENDROOT
BRANCH   1   7
HETATM    7  N   UNL     1      24.481  47.749  48.671  1.00  0.00    -0.333 N 
HETATM    8  H   UNL     1      24.633  47.262  47.793  1.00  0.00     0.168 HD
BRANCH   7   9
HETATM    9  C   UNL     1      24.416  49.086  48.455  1.00  0.00     0.179 C 
HETATM   10  S   UNL     1      25.865  49.924  48.361  1.00  0.00    -0.040 SA
BRANCH   9  11
HETATM   11  N   UNL     1      23.270  49.805  48.461  1.00  0.00    -0.299 N 
HETATM   12  C   UNL     1      22.069  49.367  47.936  1.00  0.00     0.257 C 
HETATM   13  O   UNL     1      21.936  48.339  47.282  1.00  0.00    -0.267 OA
HETATM   14  H   UNL     1      23.445  50.772  48.215  1.00  0.00     0.171 HD
BRANCH  12  15
HETATM   15  C   UNL     1      20.871  50.203  48.273  1.00  0.00     0.035 A 
HETATM   16  C   UNL     1      19.913  50.570  47.316  1.00  0.00     0.053 A 
HETATM   17  C   UNL     1      18.884  51.446  47.670  1.00  0.00     0.069 A 
HETATM   18  C   UNL     1      18.835  52.006  48.944  1.00  0.00     0.037 A 
HETATM   19  C   UNL     1      19.778  51.641  49.900  1.00  0.00     0.004 A 
HETATM   20  C   UNL     1      20.789  50.738  49.568  1.00  0.00     0.017 A 
BRANCH  17  21
HETATM   21  O   UNL     1      17.950  51.865  46.763  1.00  0.00    -0.351 OA
BRANCH  21  22
HETATM   22  C   UNL     1      17.314  50.787  46.064  1.00  0.00     0.175 C 
BRANCH  22  23
HETATM   23  C   UNL     1      15.831  50.650  46.418  1.00  0.00     0.022 C 
HETATM   24  C   UNL     1      15.608  50.209  47.857  1.00  0.00     0.007 C 
ENDBRANCH  22  23
ENDBRANCH  21  22
ENDBRANCH  17  21
ENDBRANCH  12  15
ENDBRANCH   9  11
ENDBRANCH   7   9
ENDBRANCH   1   7
BRANCH   4  25
HETATM   25  N   UNL     1      25.437  44.139  52.966  1.00  0.00    -0.378 N 
HETATM   26  C   UNL     1      25.228  44.559  54.374  1.00  0.00     0.150 C 
HETATM   27  C   UNL     1      26.359  45.518  54.816  1.00  0.00     0.255 C 
HETATM   28  N   UNL     1      27.726  44.839  54.640  1.00  0.00    -0.064 N 
HETATM   29  H   UNL     1      27.746  44.047  55.291  1.00  0.00     0.280 HD
HETATM   30  C   UNL     1      27.902  44.265  53.225  1.00  0.00     0.255 C 
HETATM   31  C   UNL     1      26.700  43.376  52.833  1.00  0.00     0.150 C 
BRANCH  28  32
HETATM   32  C   UNL     1      28.882  45.747  54.994  1.00  0.00     0.273 C 
BRANCH  32  33
HETATM   33  C   UNL     1      29.857  45.173  55.986  1.00  0.00    -0.033 A 
HETATM   34  C   UNL     1      30.024  45.737  57.261  1.00  0.00     0.009 A 
HETATM   35  C   UNL     1      30.928  45.180  58.168  1.00  0.00     0.001 A 
HETATM   36  C   UNL     1      31.656  44.044  57.823  1.00  0.00     0.000 A 
HETATM   37  C   UNL     1      31.482  43.461  56.571  1.00  0.00     0.001 A 
HETATM   38  C   UNL     1      30.588  44.021  55.657  1.00  0.00     0.009 A 
ENDBRANCH  32  33
ENDBRANCH  28  32
ENDBRANCH   4  25
TORSDOF 10
ENDMDL
MODEL 4
REMARK VINA RESULT:      -8.7      2.483      3.487
REMARK  10 active torsions:
REMARK  status: ('A' for Active; 'I' for Inactive)
REMARK    1  A    between atoms: C_2  and  C_3 
REMARK    2  A    between atoms: C_3  and  O_4 
REMARK    3  A    between atoms: O_4  and  C_5 
REMARK    4  A    between atoms: C_7  and  C_8 
REMARK       I    between atoms: C_8  and  N_9 
REMARK    5  A    between atoms: N_9  and  C_10 
REMARK    6  A    between atoms: C_10  and  N_11 
REMARK    7  A    between atoms: N_11  and  C_12 
REMARK    8  A    between atoms: C_15  and  N_16 
REMARK    9  A    between atoms: N_19  and  C_21 
REMARK   10  A    between atoms: C_21  and  C_22 
ROOT
HETATM    1  C   UNL     1      25.961  47.216  50.466  1.00  0.00     0.034 C 
HETATM    2  C   UNL     1      25.401  47.058  51.720  1.00  0.00     0.032 C 
HETATM    3  C   UNL     1      25.415  45.819  52.380  1.00  0.00     0.031 C 
HETATM    4  C   UNL     1      26.061  44.691  51.861  1.00  0.00     0.030 C 
HETATM    5  C   UNL     1      26.546  44.841  50.554  1.00  0.00     0.031 C 
HETATM    6  C   UNL     1      26.496  46.072  49.870  1.00  0.00     0.032 C 
ENDROOT
BRANCH   1   7
HETATM    7  N   UNL     1      26.074  48.423  49.744  1.00  0.00    -0.333 N 
HETATM    8  H   UNL     1      26.800  49.045  50.083  1.00  0.00     0.168 HD
BRANCH   7   9
HETATM    9  C   UNL     1      25.281  49.074  48.857  1.00  0.00     0.179 C 
HETATM   10  S   UNL     1      26.023  50.140  47.797  1.00  0.00    -0.040 SA
BRANCH   9  11
HETATM   11  N   UNL     1      23.929  49.035  48.869  1.00  0.00    -0.299 N 
HETATM   12  C   UNL     1      23.119  50.109  49.187  1.00  0.00     0.257 C 
HETATM   13  O   UNL     1      23.529  51.176  49.630  1.00  0.00    -0.267 OA
HETATM   14  H   UNL     1      23.593  48.183  49.302  1.00  0.00     0.171 HD
BRANCH  12  15
HETATM   15  C   UNL     1      21.660  49.930  48.893  1.00  0.00     0.035 A 
HETATM   16  C   UNL     1      21.147  48.769  48.295  1.00  0.00     0.053 A 
HETATM   17  C   UNL     1      19.796  48.714  47.942  1.00  0.00     0.069 A 
HETATM   18  C   UNL     1      18.969  49.820  48.120  1.00  0.00     0.037 A 
HETATM   19  C   UNL     1      19.471  50.972  48.718  1.00  0.00     0.004 A 
HETATM   20  C   UNL     1      20.810  51.025  49.110  1.00  0.00     0.017 A 
BRANCH  17  21
HETATM   21  O   UNL     1      19.258  47.621  47.320  1.00  0.00    -0.351 OA
BRANCH  21  22
HETATM   22  C   UNL     1      18.986  46.535  48.217  1.00  0.00     0.175 C 
BRANCH  22  23
HETATM   23  C   UNL     1      17.518  46.103  48.190  1.00  0.00     0.022 C 
HETATM   24  C   UNL     1      16.593  47.125  48.833  1.00  0.00     0.007 C 
ENDBRANCH  22  23
ENDBRANCH  21  22
ENDBRANCH  17  21
ENDBRANCH  12  15
ENDBRANCH   9  11
ENDBRANCH   7   9
ENDBRANCH   1   7
BRANCH   4  25
HETATM   25  N   UNL     1      26.185  43.496  52.592  1.00  0.00    -0.378 N 
HETATM   26  C   UNL     1      26.335  43.597  54.065  1.00  0.00     0.150 C 
HETATM   27  C   UNL     1      27.778  44.022  54.425  1.00  0.00     0.255 C 
HETATM   28  N   UNL     1      28.786  43.023  53.835  1.00  0.00    -0.064 N 
HETATM   29  H   UNL     1      28.621  42.127  54.307  1.00  0.00     0.280 HD
HETATM   30  C   UNL     1      28.551  42.793  52.333  1.00  0.00     0.255 C 
HETATM   31  C   UNL     1      27.072  42.441  52.050  1.00  0.00     0.150 C 
BRANCH  28  32
HETATM   32  C   UNL     1      30.222  43.416  54.094  1.00  0.00     0.273 C 
BRANCH  32  33
HETATM   33  C   UNL     1      30.488  43.967  55.470  1.00  0.00    -0.033 A 
HETATM   34  C   UNL     1      29.993  45.220  55.867  1.00  0.00     0.009 A 
HETATM   35  C   UNL     1      30.244  45.706  57.151  1.00  0.00     0.001 A 
HETATM   36  C   UNL     1      30.972  44.940  58.059  1.00  0.00     0.000 A 
HETATM   37  C   UNL     1      31.448  43.686  57.686  1.00  0.00     0.001 A 
HETATM   38  C   UNL     1      31.209  43.202  56.400  1.00  0.00     0.009 A 
ENDBRANCH  32  33
ENDBRANCH  28  32
ENDBRANCH   4  25
TORSDOF 10
ENDMDL
MODEL 5
REMARK VINA RESULT:      -8.7      2.153      3.513
REMARK  10 active torsions:
REMARK  status: ('A' for Active; 'I' for Inactive)
REMARK    1  A    between atoms: C_2  and  C_3 
REMARK    2  A    between atoms: C_3  and  O_4 
REMARK    3  A    between atoms: O_4  and  C_5 
REMARK    4  A    between atoms: C_7  and  C_8 
REMARK       I    between atoms: C_8  and  N_9 
REMARK    5  A    between atoms: N_9  and  C_10 
REMARK    6  A    between atoms: C_10  and  N_11 
REMARK    7  A    between atoms: N_11  and  C_12 
REMARK    8  A    between atoms: C_15  and  N_16 
REMARK    9  A    between atoms: N_19  and  C_21 
REMARK   10  A    between atoms: C_21  and  C_22 
ROOT
HETATM    1  C   UNL     1      22.247  44.547  49.245  1.00  0.00     0.034 C 
HETATM    2  C   UNL     1      22.753  43.261  49.222  1.00  0.00     0.032 C 
HETATM    3  C   UNL     1      24.134  43.014  49.210  1.00  0.00     0.031 C 
HETATM    4  C   UNL     1      25.087  44.035  49.304  1.00  0.00     0.030 C 
HETATM    5  C   UNL     1      24.564  45.335  49.238  1.00  0.00     0.031 C 
HETATM    6  C   UNL     1      23.178  45.587  49.207  1.00  0.00     0.032 C 
ENDROOT
BRANCH   1   7
HETATM    7  N   UNL     1      20.887  44.912  49.336  1.00  0.00    -0.333 N 
HETATM    8  H   UNL     1      20.345  44.342  49.978  1.00  0.00     0.168 HD
BRANCH   7   9
HETATM    9  C   UNL     1      20.061  45.684  48.588  1.00  0.00     0.179 C 
HETATM   10  S   UNL     1      19.565  45.072  47.108  1.00  0.00    -0.040 SA
BRANCH   9  11
HETATM   11  N   UNL     1      19.735  46.963  48.884  1.00  0.00    -0.299 N 
HETATM   12  C   UNL     1      20.305  48.073  48.290  1.00  0.00     0.257 C 
HETATM   13  O   UNL     1      21.268  48.032  47.532  1.00  0.00    -0.267 OA
HETATM   14  H   UNL     1      19.639  47.093  49.883  1.00  0.00     0.171 HD
BRANCH  12  15
HETATM   15  C   UNL     1      19.626  49.380  48.571  1.00  0.00     0.035 A 
HETATM   16  C   UNL     1      18.232  49.503  48.655  1.00  0.00     0.053 A 
HETATM   17  C   UNL     1      17.659  50.769  48.803  1.00  0.00     0.069 A 
HETATM   18  C   UNL     1      18.453  51.912  48.806  1.00  0.00     0.037 A 
HETATM   19  C   UNL     1      19.838  51.796  48.730  1.00  0.00     0.004 A 
HETATM   20  C   UNL     1      20.423  50.534  48.619  1.00  0.00     0.017 A 
BRANCH  17  21
HETATM   21  O   UNL     1      16.303  50.946  48.849  1.00  0.00    -0.351 OA
BRANCH  21  22
HETATM   22  C   UNL     1      15.902  52.309  48.654  1.00  0.00     0.175 C 
BRANCH  22  23
HETATM   23  C   UNL     1      14.991  52.821  49.772  1.00  0.00     0.022 C 
HETATM   24  C   UNL     1      15.558  54.041  50.481  1.00  0.00     0.007 C 
ENDBRANCH  22  23
ENDBRANCH  21  22
ENDBRANCH  17  21
ENDBRANCH  12  15
ENDBRANCH   9  11
ENDBRANCH   7   9
ENDBRANCH   1   7
BRANCH   4  25
HETATM   25  N   UNL     1      26.462  43.768  49.428  1.00  0.00    -0.378 N 
HETATM   26  C   UNL     1      26.866  42.418  49.895  1.00  0.00     0.150 C 
HETATM   27  C   UNL     1      26.657  42.300  51.424  1.00  0.00     0.255 C 
HETATM   28  N   UNL     1      27.450  43.396  52.153  1.00  0.00    -0.064 N 
HETATM   29  H   UNL     1      28.443  43.204  51.979  1.00  0.00     0.280 HD
HETATM   30  C   UNL     1      27.154  44.792  51.581  1.00  0.00     0.255 C 
HETATM   31  C   UNL     1      27.318  44.809  50.044  1.00  0.00     0.150 C 
BRANCH  28  32
HETATM   32  C   UNL     1      27.237  43.378  53.649  1.00  0.00     0.273 C 
BRANCH  32  33
HETATM   33  C   UNL     1      28.448  43.746  54.464  1.00  0.00    -0.033 A 
HETATM   34  C   UNL     1      29.559  42.891  54.556  1.00  0.00     0.009 A 
HETATM   35  C   UNL     1      30.674  43.258  55.311  1.00  0.00     0.001 A 
HETATM   36  C   UNL     1      30.705  44.490  55.962  1.00  0.00     0.000 A 
HETATM   37  C   UNL     1      29.620  45.357  55.859  1.00  0.00     0.001 A 
HETATM   38  C   UNL     1      28.499  44.988  55.115  1.00  0.00     0.009 A 
ENDBRANCH  32  33
ENDBRANCH  28  32
ENDBRANCH   4  25
TORSDOF 10
ENDMDL
MODEL 6
REMARK VINA RESULT:      -8.6      1.181      2.500
REMARK  10 active torsions:
REMARK  status: ('A' for Active; 'I' for Inactive)
REMARK    1  A    between atoms: C_2  and  C_3 
REMARK    2  A    between atoms: C_3  and  O_4 
REMARK    3  A    between atoms: O_4  and  C_5 
REMARK    4  A    between atoms: C_7  and  C_8 
REMARK       I    between atoms: C_8  and  N_9 
REMARK    5  A    between atoms: N_9  and  C_10 
REMARK    6  A    between atoms: C_10  and  N_11 
REMARK    7  A    between atoms: N_11  and  C_12 
REMARK    8  A    between atoms: C_15  and  N_16 
REMARK    9  A    between atoms: N_19  and  C_21 
REMARK   10  A    between atoms: C_21  and  C_22 
ROOT
HETATM    1  C   UNL     1      24.217  45.443  49.773  1.00  0.00     0.034 C 
HETATM    2  C   UNL     1      24.197  44.276  50.513  1.00  0.00     0.032 C 
HETATM    3  C   UNL     1      24.557  44.259  51.870  1.00  0.00     0.031 C 
HETATM    4  C   UNL     1      24.878  45.420  52.582  1.00  0.00     0.030 C 
HETATM    5  C   UNL     1      24.980  46.581  51.802  1.00  0.00     0.031 C 
HETATM    6  C   UNL     1      24.660  46.594  50.429  1.00  0.00     0.032 C 
ENDROOT
BRANCH   1   7
HETATM    7  N   UNL     1      23.804  45.593  48.432  1.00  0.00    -0.333 N 
HETATM    8  H   UNL     1      24.566  45.621  47.762  1.00  0.00     0.168 HD
BRANCH   7   9
HETATM    9  C   UNL     1      22.645  45.961  47.833  1.00  0.00     0.179 C 
HETATM   10  S   UNL     1      22.235  45.188  46.404  1.00  0.00    -0.040 SA
BRANCH   9  11
HETATM   11  N   UNL     1      21.880  47.006  48.228  1.00  0.00    -0.299 N 
HETATM   12  C   UNL     1      22.264  48.331  48.145  1.00  0.00     0.257 C 
HETATM   13  O   UNL     1      23.390  48.706  47.839  1.00  0.00    -0.267 OA
HETATM   14  H   UNL     1      21.426  46.812  49.111  1.00  0.00     0.171 HD
BRANCH  12  15
HETATM   15  C   UNL     1      21.180  49.337  48.392  1.00  0.00     0.035 A 
HETATM   16  C   UNL     1      19.822  48.989  48.429  1.00  0.00     0.053 A 
HETATM   17  C   UNL     1      18.856  49.991  48.547  1.00  0.00     0.069 A 
HETATM   18  C   UNL     1      19.224  51.334  48.566  1.00  0.00     0.037 A 
HETATM   19  C   UNL     1      20.570  51.685  48.537  1.00  0.00     0.004 A 
HETATM   20  C   UNL     1      21.546  50.690  48.456  1.00  0.00     0.017 A 
BRANCH  17  21
HETATM   21  O   UNL     1      17.518  49.707  48.547  1.00  0.00    -0.351 OA
BRANCH  21  22
HETATM   22  C   UNL     1      17.063  49.123  47.318  1.00  0.00     0.175 C 
BRANCH  22  23
HETATM   23  C   UNL     1      16.205  47.874  47.542  1.00  0.00     0.022 C 
HETATM   24  C   UNL     1      16.630  47.081  48.768  1.00  0.00     0.007 C 
ENDBRANCH  22  23
ENDBRANCH  21  22
ENDBRANCH  17  21
ENDBRANCH  12  15
ENDBRANCH   9  11
ENDBRANCH   7   9
ENDBRANCH   1   7
BRANCH   4  25
HETATM   25  N   UNL     1      25.103  45.408  53.971  1.00  0.00    -0.378 N 
HETATM   26  C   UNL     1      25.945  46.488  54.545  1.00  0.00     0.150 C 
HETATM   27  C   UNL     1      27.439  46.210  54.253  1.00  0.00     0.255 C 
HETATM   28  N   UNL     1      27.842  44.838  54.815  1.00  0.00    -0.064 N 
HETATM   29  H   UNL     1      27.753  44.902  55.835  1.00  0.00     0.280 HD
HETATM   30  C   UNL     1      26.890  43.726  54.347  1.00  0.00     0.255 C 
HETATM   31  C   UNL     1      25.415  44.109  54.611  1.00  0.00     0.150 C 
BRANCH  28  32
HETATM   32  C   UNL     1      29.276  44.475  54.505  1.00  0.00     0.273 C 
BRANCH  32  33
HETATM   33  C   UNL     1      30.167  44.335  55.711  1.00  0.00    -0.033 A 
HETATM   34  C   UNL     1      31.018  43.230  55.870  1.00  0.00     0.009 A 
HETATM   35  C   UNL     1      31.842  43.127  56.992  1.00  0.00     0.001 A 
HETATM   36  C   UNL     1      31.843  44.134  57.955  1.00  0.00     0.000 A 
HETATM   37  C   UNL     1      31.021  45.247  57.797  1.00  0.00     0.001 A 
HETATM   38  C   UNL     1      30.187  45.348  56.683  1.00  0.00     0.009 A 
ENDBRANCH  32  33
ENDBRANCH  28  32
ENDBRANCH   4  25
TORSDOF 10
ENDMDL
MODEL 7
REMARK VINA RESULT:      -8.6      2.355      3.821
REMARK  10 active torsions:
REMARK  status: ('A' for Active; 'I' for Inactive)
REMARK    1  A    between atoms: C_2  and  C_3 
REMARK    2  A    between atoms: C_3  and  O_4 
REMARK    3  A    between atoms: O_4  and  C_5 
REMARK    4  A    between atoms: C_7  and  C_8 
REMARK       I    between atoms: C_8  and  N_9 
REMARK    5  A    between atoms: N_9  and  C_10 
REMARK    6  A    between atoms: C_10  and  N_11 
REMARK    7  A    between atoms: N_11  and  C_12 
REMARK    8  A    between atoms: C_15  and  N_16 
REMARK    9  A    between atoms: N_19  and  C_21 
REMARK   10  A    between atoms: C_21  and  C_22 
ROOT
HETATM    1  C   UNL     1      22.214  44.409  49.137  1.00  0.00     0.034 C 
HETATM    2  C   UNL     1      22.733  43.137  49.287  1.00  0.00     0.032 C 
HETATM    3  C   UNL     1      24.117  42.905  49.311  1.00  0.00     0.031 C 
HETATM    4  C   UNL     1      25.059  43.940  49.270  1.00  0.00     0.030 C 
HETATM    5  C   UNL     1      24.523  45.214  49.030  1.00  0.00     0.031 C 
HETATM    6  C   UNL     1      23.135  45.445  48.962  1.00  0.00     0.032 C 
ENDROOT
BRANCH   1   7
HETATM    7  N   UNL     1      20.850  44.769  49.176  1.00  0.00    -0.333 N 
HETATM    8  H   UNL     1      20.297  44.235  49.839  1.00  0.00     0.168 HD
BRANCH   7   9
HETATM    9  C   UNL     1      20.036  45.487  48.363  1.00  0.00     0.179 C 
HETATM   10  S   UNL     1      18.960  44.635  47.401  1.00  0.00    -0.040 SA
BRANCH   9  11
HETATM   11  N   UNL     1      20.137  46.822  48.168  1.00  0.00    -0.299 N 
HETATM   12  C   UNL     1      19.554  47.776  48.980  1.00  0.00     0.257 C 
HETATM   13  O   UNL     1      18.766  47.525  49.885  1.00  0.00    -0.267 OA
HETATM   14  H   UNL     1      20.025  47.057  47.190  1.00  0.00     0.171 HD
BRANCH  12  15
HETATM   15  C   UNL     1      19.998  49.189  48.742  1.00  0.00     0.035 A 
HETATM   16  C   UNL     1      21.348  49.568  48.752  1.00  0.00     0.053 A 
HETATM   17  C   UNL     1      21.686  50.919  48.639  1.00  0.00     0.069 A 
HETATM   18  C   UNL     1      20.696  51.896  48.578  1.00  0.00     0.037 A 
HETATM   19  C   UNL     1      19.355  51.526  48.561  1.00  0.00     0.004 A 
HETATM   20  C   UNL     1      19.006  50.176  48.636  1.00  0.00     0.017 A 
BRANCH  17  21
HETATM   21  O   UNL     1      22.986  51.343  48.685  1.00  0.00    -0.351 OA
BRANCH  21  22
HETATM   22  C   UNL     1      23.925  50.274  48.864  1.00  0.00     0.175 C 
BRANCH  22  23
HETATM   23  C   UNL     1      24.951  50.195  47.731  1.00  0.00     0.022 C 
HETATM   24  C   UNL     1      26.356  49.894  48.230  1.00  0.00     0.007 C 
ENDBRANCH  22  23
ENDBRANCH  21  22
ENDBRANCH  17  21
ENDBRANCH  12  15
ENDBRANCH   9  11
ENDBRANCH   7   9
ENDBRANCH   1   7
BRANCH   4  25
HETATM   25  N   UNL     1      26.436  43.706  49.432  1.00  0.00    -0.378 N 
HETATM   26  C   UNL     1      26.856  42.401  50.001  1.00  0.00     0.150 C 
HETATM   27  C   UNL     1      26.626  42.390  51.532  1.00  0.00     0.255 C 
HETATM   28  N   UNL     1      27.390  43.550  52.189  1.00  0.00    -0.064 N 
HETATM   29  H   UNL     1      28.388  43.363  52.044  1.00  0.00     0.280 HD
HETATM   30  C   UNL     1      27.079  44.896  51.514  1.00  0.00     0.255 C 
HETATM   31  C   UNL     1      27.266  44.804  49.982  1.00  0.00     0.150 C 
BRANCH  28  32
HETATM   32  C   UNL     1      27.156  43.637  53.680  1.00  0.00     0.273 C 
BRANCH  32  33
HETATM   33  C   UNL     1      28.375  43.981  54.492  1.00  0.00    -0.033 A 
HETATM   34  C   UNL     1      28.448  45.168  55.240  1.00  0.00     0.009 A 
HETATM   35  C   UNL     1      29.586  45.461  55.993  1.00  0.00     0.001 A 
HETATM   36  C   UNL     1      30.653  44.566  56.028  1.00  0.00     0.000 A 
HETATM   37  C   UNL     1      30.583  43.374  55.310  1.00  0.00     0.001 A 
HETATM   38  C   UNL     1      29.453  43.083  54.547  1.00  0.00     0.009 A 
ENDBRANCH  32  33
ENDBRANCH  28  32
ENDBRANCH   4  25
TORSDOF 10
ENDMDL
MODEL 8
REMARK VINA RESULT:      -8.3      2.264      3.621
REMARK  10 active torsions:
REMARK  status: ('A' for Active; 'I' for Inactive)
REMARK    1  A    between atoms: C_2  and  C_3 
REMARK    2  A    between atoms: C_3  and  O_4 
REMARK    3  A    between atoms: O_4  and  C_5 
REMARK    4  A    between atoms: C_7  and  C_8 
REMARK       I    between atoms: C_8  and  N_9 
REMARK    5  A    between atoms: N_9  and  C_10 
REMARK    6  A    between atoms: C_10  and  N_11 
REMARK    7  A    between atoms: N_11  and  C_12 
REMARK    8  A    between atoms: C_15  and  N_16 
REMARK    9  A    between atoms: N_19  and  C_21 
REMARK   10  A    between atoms: C_21  and  C_22 
ROOT
HETATM    1  C   UNL     1      22.240  44.578  48.859  1.00  0.00     0.034 C 
HETATM    2  C   UNL     1      23.123  45.578  49.219  1.00  0.00     0.032 C 
HETATM    3  C   UNL     1      24.479  45.310  49.463  1.00  0.00     0.031 C 
HETATM    4  C   UNL     1      25.045  44.043  49.279  1.00  0.00     0.030 C 
HETATM    5  C   UNL     1      24.124  43.022  49.000  1.00  0.00     0.031 C 
HETATM    6  C   UNL     1      22.754  43.281  48.797  1.00  0.00     0.032 C 
ENDROOT
BRANCH   1   7
HETATM    7  N   UNL     1      20.881  44.742  48.517  1.00  0.00    -0.333 N 
HETATM    8  H   UNL     1      20.298  43.938  48.729  1.00  0.00     0.168 HD
BRANCH   7   9
HETATM    9  C   UNL     1      20.198  45.620  47.742  1.00  0.00     0.179 C 
HETATM   10  S   UNL     1      19.771  45.118  46.201  1.00  0.00    -0.040 SA
BRANCH   9  11
HETATM   11  N   UNL     1      19.973  46.913  48.070  1.00  0.00    -0.299 N 
HETATM   12  C   UNL     1      20.755  47.973  47.652  1.00  0.00     0.257 C 
HETATM   13  O   UNL     1      21.819  47.853  47.055  1.00  0.00    -0.267 OA
HETATM   14  H   UNL     1      19.728  47.004  49.048  1.00  0.00     0.171 HD
BRANCH  12  15
HETATM   15  C   UNL     1      20.190  49.338  47.911  1.00  0.00     0.035 A 
HETATM   16  C   UNL     1      18.977  49.770  47.357  1.00  0.00     0.053 A 
HETATM   17  C   UNL     1      18.565  51.092  47.543  1.00  0.00     0.069 A 
HETATM   18  C   UNL     1      19.375  52.000  48.220  1.00  0.00     0.037 A 
HETATM   19  C   UNL     1      20.577  51.575  48.779  1.00  0.00     0.004 A 
HETATM   20  C   UNL     1      20.981  50.247  48.631  1.00  0.00     0.017 A 
BRANCH  17  21
HETATM   21  O   UNL     1      17.411  51.573  46.988  1.00  0.00    -0.351 OA
BRANCH  21  22
HETATM   22  C   UNL     1      17.027  50.883  45.791  1.00  0.00     0.175 C 
BRANCH  22  23
HETATM   23  C   UNL     1      17.530  51.577  44.523  1.00  0.00     0.022 C 
HETATM   24  C   UNL     1      18.526  50.731  43.745  1.00  0.00     0.007 C 
ENDBRANCH  22  23
ENDBRANCH  21  22
ENDBRANCH  17  21
ENDBRANCH  12  15
ENDBRANCH   9  11
ENDBRANCH   7   9
ENDBRANCH   1   7
BRANCH   4  25
HETATM   25  N   UNL     1      26.428  43.817  49.393  1.00  0.00    -0.378 N 
HETATM   26  C   UNL     1      26.877  42.476  49.844  1.00  0.00     0.150 C 
HETATM   27  C   UNL     1      26.680  42.335  51.372  1.00  0.00     0.255 C 
HETATM   28  N   UNL     1      27.443  43.448  52.108  1.00  0.00    -0.064 N 
HETATM   29  H   UNL     1      28.440  43.288  51.927  1.00  0.00     0.280 HD
HETATM   30  C   UNL     1      27.100  44.840  51.553  1.00  0.00     0.255 C 
HETATM   31  C   UNL     1      27.255  44.878  50.015  1.00  0.00     0.150 C 
BRANCH  28  32
HETATM   32  C   UNL     1      27.239  43.407  53.605  1.00  0.00     0.273 C 
BRANCH  32  33
HETATM   33  C   UNL     1      28.446  43.791  54.418  1.00  0.00    -0.033 A 
HETATM   34  C   UNL     1      28.495  44.997  55.136  1.00  0.00     0.009 A 
HETATM   35  C   UNL     1      29.623  45.326  55.890  1.00  0.00     0.001 A 
HETATM   36  C   UNL     1      30.703  44.448  55.955  1.00  0.00     0.000 A 
HETATM   37  C   UNL     1      30.657  43.238  55.267  1.00  0.00     0.001 A 
HETATM   38  C   UNL     1      29.537  42.911  54.503  1.00  0.00     0.009 A 
ENDBRANCH  32  33
ENDBRANCH  28  32
ENDBRANCH   4  25
TORSDOF 10
ENDMDL
MODEL 9
REMARK VINA RESULT:      -8.2      1.997      3.269
REMARK  10 active torsions:
REMARK  status: ('A' for Active; 'I' for Inactive)
REMARK    1  A    between atoms: C_2  and  C_3 
REMARK    2  A    between atoms: C_3  and  O_4 
REMARK    3  A    between atoms: O_4  and  C_5 
REMARK    4  A    between atoms: C_7  and  C_8 
REMARK       I    between atoms: C_8  and  N_9 
REMARK    5  A    between atoms: N_9  and  C_10 
REMARK    6  A    between atoms: C_10  and  N_11 
REMARK    7  A    between atoms: N_11  and  C_12 
REMARK    8  A    between atoms: C_15  and  N_16 
REMARK    9  A    between atoms: N_19  and  C_21 
REMARK   10  A    between atoms: C_21  and  C_22 
ROOT
HETATM    1  C   UNL     1      21.883  45.357  48.675  1.00  0.00     0.034 C 
HETATM    2  C   UNL     1      22.261  46.686  48.730  1.00  0.00     0.032 C 
HETATM    3  C   UNL     1      23.542  47.069  49.159  1.00  0.00     0.031 C 
HETATM    4  C   UNL     1      24.541  46.143  49.479  1.00  0.00     0.030 C 
HETATM    5  C   UNL     1      24.119  44.806  49.504  1.00  0.00     0.031 C 
HETATM    6  C   UNL     1      22.821  44.420  49.115  1.00  0.00     0.032 C 
ENDROOT
BRANCH   1   7
HETATM    7  N   UNL     1      20.658  44.854  48.190  1.00  0.00    -0.333 N 
HETATM    8  H   UNL     1      20.395  43.952  48.576  1.00  0.00     0.168 HD
BRANCH   7   9
HETATM    9  C   UNL     1      19.856  45.160  47.140  1.00  0.00     0.179 C 
HETATM   10  S   UNL     1      20.004  44.224  45.758  1.00  0.00    -0.040 SA
BRANCH   9  11
HETATM   11  N   UNL     1      19.061  46.254  47.081  1.00  0.00    -0.299 N 
HETATM   12  C   UNL     1      17.858  46.382  47.748  1.00  0.00     0.257 C 
HETATM   13  O   UNL     1      17.304  45.473  48.355  1.00  0.00    -0.267 OA
HETATM   14  H   UNL     1      18.993  46.603  46.133  1.00  0.00     0.171 HD
BRANCH  12  15
HETATM   15  C   UNL     1      17.264  47.759  47.755  1.00  0.00     0.035 A 
HETATM   16  C   UNL     1      17.970  48.883  48.208  1.00  0.00     0.053 A 
HETATM   17  C   UNL     1      17.319  50.116  48.298  1.00  0.00     0.069 A 
HETATM   18  C   UNL     1      15.964  50.228  47.999  1.00  0.00     0.037 A 
HETATM   19  C   UNL     1      15.260  49.118  47.542  1.00  0.00     0.004 A 
HETATM   20  C   UNL     1      15.909  47.889  47.413  1.00  0.00     0.017 A 
BRANCH  17  21
HETATM   21  O   UNL     1      17.952  51.233  48.772  1.00  0.00    -0.351 OA
BRANCH  21  22
HETATM   22  C   UNL     1      19.210  51.487  48.133  1.00  0.00     0.175 C 
BRANCH  22  23
HETATM   23  C   UNL     1      20.388  51.433  49.109  1.00  0.00     0.022 C 
HETATM   24  C   UNL     1      21.697  51.061  48.430  1.00  0.00     0.007 C 
ENDBRANCH  22  23
ENDBRANCH  21  22
ENDBRANCH  17  21
ENDBRANCH  12  15
ENDBRANCH   9  11
ENDBRANCH   7   9
ENDBRANCH   1   7
BRANCH   4  25
HETATM   25  N   UNL     1      25.859  46.536  49.775  1.00  0.00    -0.378 N 
HETATM   26  C   UNL     1      26.919  45.499  49.728  1.00  0.00     0.150 C 
HETATM   27  C   UNL     1      26.850  44.610  50.992  1.00  0.00     0.255 C 
HETATM   28  N   UNL     1      26.981  45.476  52.256  1.00  0.00    -0.064 N 
HETATM   29  H   UNL     1      27.923  45.881  52.237  1.00  0.00     0.280 HD
HETATM   30  C   UNL     1      25.986  46.647  52.252  1.00  0.00     0.255 C 
HETATM   31  C   UNL     1      26.069  47.442  50.929  1.00  0.00     0.150 C 
BRANCH  28  32
HETATM   32  C   UNL     1      26.856  44.674  53.531  1.00  0.00     0.273 C 
BRANCH  32  33
HETATM   33  C   UNL     1      28.146  44.472  54.280  1.00  0.00    -0.033 A 
HETATM   34  C   UNL     1      28.570  45.373  55.269  1.00  0.00     0.009 A 
HETATM   35  C   UNL     1      29.767  45.158  55.957  1.00  0.00     0.001 A 
HETATM   36  C   UNL     1      30.540  44.033  55.680  1.00  0.00     0.000 A 
HETATM   37  C   UNL     1      30.119  43.119  54.718  1.00  0.00     0.001 A 
HETATM   38  C   UNL     1      28.930  43.336  54.021  1.00  0.00     0.009 A 
ENDBRANCH  32  33
ENDBRANCH  28  32
ENDBRANCH   4  25
TORSDOF 10
ENDMDL
MODEL 10
REMARK VINA RESULT:      -8.1      2.882      4.115
REMARK  10 active torsions:
REMARK  status: ('A' for Active; 'I' for Inactive)
REMARK    1  A    between atoms: C_2  and  C_3 
REMARK    2  A    between atoms: C_3  and  O_4 
REMARK    3  A    between atoms: O_4  and  C_5 
REMARK    4  A    between atoms: C_7  and  C_8 
REMARK       I    between atoms: C_8  and  N_9 
REMARK    5  A    between atoms: N_9  and  C_10 
REMARK    6  A    between atoms: C_10  and  N_11 
REMARK    7  A    between atoms: N_11  and  C_12 
REMARK    8  A    between atoms: C_15  and  N_16 
REMARK    9  A    between atoms: N_19  and  C_21 
REMARK   10  A    between atoms: C_21  and  C_22 
ROOT
HETATM    1  C   UNL     1      23.214  47.358  49.268  1.00  0.00     0.034 C 
HETATM    2  C   UNL     1      22.924  46.109  48.753  1.00  0.00     0.032 C 
HETATM    3  C   UNL     1      23.824  45.039  48.867  1.00  0.00     0.031 C 
HETATM    4  C   UNL     1      25.028  45.135  49.575  1.00  0.00     0.030 C 
HETATM    5  C   UNL     1      25.351  46.427  50.015  1.00  0.00     0.031 C 
HETATM    6  C   UNL     1      24.467  47.515  49.864  1.00  0.00     0.032 C 
ENDROOT
BRANCH   1   7
HETATM    7  N   UNL     1      22.359  48.481  49.280  1.00  0.00    -0.333 N 
HETATM    8  H   UNL     1      21.626  48.439  49.981  1.00  0.00     0.168 HD
BRANCH   7   9
HETATM    9  C   UNL     1      22.117  49.497  48.415  1.00  0.00     0.179 C 
HETATM   10  S   UNL     1      23.407  50.487  48.007  1.00  0.00    -0.040 SA
BRANCH   9  11
HETATM   11  N   UNL     1      20.886  49.854  47.982  1.00  0.00    -0.299 N 
HETATM   12  C   UNL     1      20.109  50.840  48.560  1.00  0.00     0.257 C 
HETATM   13  O   UNL     1      20.383  51.407  49.612  1.00  0.00    -0.267 OA
HETATM   14  H   UNL     1      20.330  49.039  47.752  1.00  0.00     0.171 HD
BRANCH  12  15
HETATM   15  C   UNL     1      18.899  51.254  47.777  1.00  0.00     0.035 A 
HETATM   16  C   UNL     1      17.790  51.872  48.373  1.00  0.00     0.053 A 
HETATM   17  C   UNL     1      16.648  52.126  47.609  1.00  0.00     0.069 A 
HETATM   18  C   UNL     1      16.578  51.718  46.280  1.00  0.00     0.037 A 
HETATM   19  C   UNL     1      17.678  51.111  45.681  1.00  0.00     0.004 A 
HETATM   20  C   UNL     1      18.837  50.886  46.424  1.00  0.00     0.017 A 
BRANCH  17  21
HETATM   21  O   UNL     1      15.526  52.688  48.154  1.00  0.00    -0.351 OA
BRANCH  21  22
HETATM   22  C   UNL     1      15.220  52.189  49.463  1.00  0.00     0.175 C 
BRANCH  22  23
HETATM   23  C   UNL     1      15.042  53.308  50.493  1.00  0.00     0.022 C 
HETATM   24  C   UNL     1      13.595  53.757  50.628  1.00  0.00     0.007 C 
ENDBRANCH  22  23
ENDBRANCH  21  22
ENDBRANCH  17  21
ENDBRANCH  12  15
ENDBRANCH   9  11
ENDBRANCH   7   9
ENDBRANCH   1   7
BRANCH   4  25
HETATM   25  N   UNL     1      25.856  44.020  49.798  1.00  0.00    -0.378 N 
HETATM   26  C   UNL     1      25.306  42.897  50.596  1.00  0.00     0.150 C 
HETATM   27  C   UNL     1      25.310  43.260  52.100  1.00  0.00     0.255 C 
HETATM   28  N   UNL     1      26.735  43.614  52.555  1.00  0.00    -0.064 N 
HETATM   29  H   UNL     1      27.293  42.758  52.461  1.00  0.00     0.280 HD
HETATM   30  C   UNL     1      27.379  44.675  51.647  1.00  0.00     0.255 C 
HETATM   31  C   UNL     1      27.272  44.270  50.158  1.00  0.00     0.150 C 
BRANCH  28  32
HETATM   32  C   UNL     1      26.800  44.044  54.003  1.00  0.00     0.273 C 
BRANCH  32  33
HETATM   33  C   UNL     1      28.187  44.098  54.584  1.00  0.00    -0.033 A 
HETATM   34  C   UNL     1      28.616  45.188  55.360  1.00  0.00     0.009 A 
HETATM   35  C   UNL     1      29.904  45.211  55.897  1.00  0.00     0.001 A 
HETATM   36  C   UNL     1      30.770  44.140  55.686  1.00  0.00     0.000 A 
HETATM   37  C   UNL     1      30.349  43.043  54.939  1.00  0.00     0.001 A 
HETATM   38  C   UNL     1      29.066  43.021  54.391  1.00  0.00     0.009 A 
ENDBRANCH  32  33
ENDBRANCH  28  32
ENDBRANCH   4  25
TORSDOF 10
ENDMDL
