MODEL 1
REMARK VINA RESULT:      -8.0      0.000      0.000
REMARK  5 active torsions:
REMARK  status: ('A' for Active; 'I' for Inactive)
REMARK    1  A    between atoms: C_2  and  O_3 
REMARK    2  A    between atoms: O_3  and  C_4 
REMARK    3  A    between atoms: C_6  and  C_7 
REMARK    4  A    between atoms: C_11  and  N_12 
REMARK       I    between atoms: N_12  and  C_13 
REMARK       I    between atoms: C_13  and  N_14 
REMARK    5  A    between atoms: N_14  and  C_15 
ROOT
HETATM    1  N   UNL     1      26.005  44.508  53.142  1.00  0.00    -0.308 N 
HETATM    2  C   UNL     1      26.834  44.311  54.223  1.00  0.00     0.325 C 
HETATM    3  N   UNL     1      28.100  44.818  54.126  1.00  0.00    -0.305 N 
HETATM    4  O   UNL     1      26.400  43.628  55.147  1.00  0.00    -0.247 OA
HETATM    5  H   UNL     1      25.239  43.839  53.164  1.00  0.00     0.170 HD
HETATM    6  H   UNL     1      28.304  45.423  53.351  1.00  0.00     0.171 HD
ENDROOT
BRANCH   1   7
HETATM    7  C   UNL     1      26.178  45.290  51.984  1.00  0.00     0.051 C 
HETATM    8  C   UNL     1      26.589  44.686  50.782  1.00  0.00     0.077 C 
HETATM    9  C   UNL     1      26.885  45.504  49.674  1.00  0.00     0.055 C 
HETATM   10  C   UNL     1      26.733  46.887  49.751  1.00  0.00     0.069 C 
HETATM   11  C   UNL     1      26.189  47.461  50.892  1.00  0.00     0.039 C 
HETATM   12  C   UNL     1      25.911  46.667  52.003  1.00  0.00     0.033 C 
BRANCH   8  13
HETATM   13  C   UNL     1      26.832  43.204  50.669  1.00  0.00     0.419 C 
HETATM   14  F   UNL     1      25.754  42.452  51.027  1.00  0.00    -0.166 F 
HETATM   15  F   UNL     1      27.143  42.827  49.399  1.00  0.00    -0.166 F 
HETATM   16  F   UNL     1      27.861  42.768  51.451  1.00  0.00    -0.166 F 
ENDBRANCH   8  13
BRANCH  10  17
HETATM   17  O   UNL     1      27.059  47.739  48.735  1.00  0.00    -0.351 OA
BRANCH  17  18
HETATM   18  C   UNL     1      27.587  48.990  49.191  1.00  0.00     0.171 C 
HETATM   19  C   UNL     1      26.871  50.101  48.445  1.00  0.00     0.034 C 
ENDBRANCH  17  18
ENDBRANCH  10  17
ENDBRANCH   1   7
BRANCH   3  20
HETATM   20  C   UNL     1      29.167  44.596  54.977  1.00  0.00     0.086 A 
HETATM   21  C   UNL     1      29.561  45.149  56.230  1.00  0.00     0.079 A 
HETATM   22  C   UNL     1      28.892  46.156  57.090  1.00  0.00     0.075 C 
HETATM   23  N   UNL     1      30.693  44.582  56.680  1.00  0.00    -0.177 NA
HETATM   24  N   UNL     1      31.008  43.684  55.743  1.00  0.00    -0.280 N 
HETATM   25  H   UNL     1      31.847  43.131  55.880  1.00  0.00     0.189 HD
HETATM   26  C   UNL     1      30.120  43.631  54.707  1.00  0.00     0.052 A 
HETATM   27  C   UNL     1      30.305  42.696  53.571  1.00  0.00     0.072 C 
ENDBRANCH   3  20
TORSDOF 5
ENDMDL
MODEL 2
REMARK VINA RESULT:      -8.0      3.141      6.868
REMARK  5 active torsions:
REMARK  status: ('A' for Active; 'I' for Inactive)
REMARK    1  A    between atoms: C_2  and  O_3 
REMARK    2  A    between atoms: O_3  and  C_4 
REMARK    3  A    between atoms: C_6  and  C_7 
REMARK    4  A    between atoms: C_11  and  N_12 
REMARK       I    between atoms: N_12  and  C_13 
REMARK       I    between atoms: C_13  and  N_14 
REMARK    5  A    between atoms: N_14  and  C_15 
ROOT
HETATM    1  N   UNL     1      25.107  45.722  51.611  1.00  0.00    -0.308 N 
HETATM    2  C   UNL     1      24.937  46.388  50.418  1.00  0.00     0.325 C 
HETATM    3  N   UNL     1      25.531  47.615  50.310  1.00  0.00    -0.305 N 
HETATM    4  O   UNL     1      24.201  45.868  49.584  1.00  0.00    -0.247 OA
HETATM    5  H   UNL     1      24.387  45.012  51.719  1.00  0.00     0.170 HD
HETATM    6  H   UNL     1      26.170  47.891  51.034  1.00  0.00     0.171 HD
ENDROOT
BRANCH   1   7
HETATM    7  C   UNL     1      25.930  46.014  52.715  1.00  0.00     0.051 C 
HETATM    8  C   UNL     1      27.062  45.221  52.978  1.00  0.00     0.077 C 
HETATM    9  C   UNL     1      27.794  45.448  54.161  1.00  0.00     0.055 C 
HETATM   10  C   UNL     1      27.430  46.469  55.036  1.00  0.00     0.069 C 
HETATM   11  C   UNL     1      26.402  47.339  54.697  1.00  0.00     0.039 C 
HETATM   12  C   UNL     1      25.657  47.113  53.541  1.00  0.00     0.033 C 
BRANCH   8  13
HETATM   13  C   UNL     1      27.456  44.063  52.098  1.00  0.00     0.419 C 
HETATM   14  F   UNL     1      27.674  44.422  50.802  1.00  0.00    -0.166 F 
HETATM   15  F   UNL     1      28.604  43.465  52.516  1.00  0.00    -0.166 F 
HETATM   16  F   UNL     1      26.514  43.078  52.055  1.00  0.00    -0.166 F 
ENDBRANCH   8  13
BRANCH  10  17
HETATM   17  O   UNL     1      28.060  46.702  56.225  1.00  0.00    -0.351 OA
BRANCH  17  18
HETATM   18  C   UNL     1      29.290  45.982  56.366  1.00  0.00     0.171 C 
HETATM   19  C   UNL     1      29.646  45.946  57.842  1.00  0.00     0.034 C 
ENDBRANCH  17  18
ENDBRANCH  10  17
ENDBRANCH   1   7
BRANCH   3  20
HETATM   20  C   UNL     1      25.359  48.552  49.308  1.00  0.00     0.086 A 
HETATM   21  C   UNL     1      24.218  49.081  48.637  1.00  0.00     0.079 A 
HETATM   22  C   UNL     1      22.773  48.818  48.844  1.00  0.00     0.075 C 
HETATM   23  N   UNL     1      24.572  50.004  47.728  1.00  0.00    -0.177 NA
HETATM   24  N   UNL     1      25.902  50.069  47.822  1.00  0.00    -0.280 N 
HETATM   25  H   UNL     1      26.389  50.715  47.210  1.00  0.00     0.189 HD
HETATM   26  C   UNL     1      26.431  49.238  48.767  1.00  0.00     0.052 A 
HETATM   27  C   UNL     1      27.892  49.169  49.013  1.00  0.00     0.072 C 
ENDBRANCH   3  20
TORSDOF 5
ENDMDL
MODEL 3
REMARK VINA RESULT:      -7.4      4.159      6.953
REMARK  5 active torsions:
REMARK  status: ('A' for Active; 'I' for Inactive)
REMARK    1  A    between atoms: C_2  and  O_3 
REMARK    2  A    between atoms: O_3  and  C_4 
REMARK    3  A    between atoms: C_6  and  C_7 
REMARK    4  A    between atoms: C_11  and  N_12 
REMARK       I    between atoms: N_12  and  C_13 
REMARK       I    between atoms: C_13  and  N_14 
REMARK    5  A    between atoms: N_14  and  C_15 
ROOT
HETATM    1  N   UNL     1      26.769  41.694  52.140  1.00  0.00    -0.308 N 
HETATM    2  C   UNL     1      26.893  40.678  51.218  1.00  0.00     0.325 C 
HETATM    3  N   UNL     1      28.165  40.275  50.918  1.00  0.00    -0.305 N 
HETATM    4  O   UNL     1      25.864  40.277  50.682  1.00  0.00    -0.247 OA
HETATM    5  H   UNL     1      25.857  42.135  52.050  1.00  0.00     0.170 HD
HETATM    6  H   UNL     1      28.915  40.629  51.483  1.00  0.00     0.171 HD
ENDROOT
BRANCH   1   7
HETATM    7  C   UNL     1      27.731  42.306  52.965  1.00  0.00     0.051 C 
HETATM    8  C   UNL     1      27.707  43.699  53.160  1.00  0.00     0.077 C 
HETATM    9  C   UNL     1      28.757  44.306  53.879  1.00  0.00     0.055 C 
HETATM   10  C   UNL     1      29.780  43.535  54.426  1.00  0.00     0.069 C 
HETATM   11  C   UNL     1      29.720  42.151  54.354  1.00  0.00     0.039 C 
HETATM   12  C   UNL     1      28.699  41.538  53.628  1.00  0.00     0.033 C 
BRANCH   8  13
HETATM   13  C   UNL     1      26.660  44.581  52.532  1.00  0.00     0.419 C 
HETATM   14  F   UNL     1      25.386  44.206  52.837  1.00  0.00    -0.166 F 
HETATM   15  F   UNL     1      26.770  45.878  52.931  1.00  0.00    -0.166 F 
HETATM   16  F   UNL     1      26.722  44.602  51.170  1.00  0.00    -0.166 F 
ENDBRANCH   8  13
BRANCH  10  17
HETATM   17  O   UNL     1      30.855  44.066  55.081  1.00  0.00    -0.351 OA
BRANCH  17  18
HETATM   18  C   UNL     1      30.675  44.141  56.500  1.00  0.00     0.171 C 
HETATM   19  C   UNL     1      31.778  43.329  57.156  1.00  0.00     0.034 C 
ENDBRANCH  17  18
ENDBRANCH  10  17
ENDBRANCH   1   7
BRANCH   3  20
HETATM   20  C   UNL     1      28.564  39.421  49.905  1.00  0.00     0.086 A 
HETATM   21  C   UNL     1      28.408  39.431  48.488  1.00  0.00     0.079 A 
HETATM   22  C   UNL     1      27.777  40.435  47.597  1.00  0.00     0.075 C 
HETATM   23  N   UNL     1      29.000  38.365  47.926  1.00  0.00    -0.177 NA
HETATM   24  N   UNL     1      29.529  37.698  48.955  1.00  0.00    -0.280 N 
HETATM   25  H   UNL     1      30.031  36.840  48.755  1.00  0.00     0.189 HD
HETATM   26  C   UNL     1      29.319  38.293  50.165  1.00  0.00     0.052 A 
HETATM   27  C   UNL     1      29.828  37.697  51.424  1.00  0.00     0.072 C 
ENDBRANCH   3  20
TORSDOF 5
ENDMDL
MODEL 4
REMARK VINA RESULT:      -7.1      3.692      6.238
REMARK  5 active torsions:
REMARK  status: ('A' for Active; 'I' for Inactive)
REMARK    1  A    between atoms: C_2  and  O_3 
REMARK    2  A    between atoms: O_3  and  C_4 
REMARK    3  A    between atoms: C_6  and  C_7 
REMARK    4  A    between atoms: C_11  and  N_12 
REMARK       I    between atoms: N_12  and  C_13 
REMARK       I    between atoms: C_13  and  N_14 
REMARK    5  A    between atoms: N_14  and  C_15 
ROOT
HETATM    1  N   UNL     1      27.604  42.222  53.488  1.00  0.00    -0.308 N 
HETATM    2  C   UNL     1      27.505  41.661  52.234  1.00  0.00     0.325 C 
HETATM    3  N   UNL     1      27.285  42.520  51.193  1.00  0.00    -0.305 N 
HETATM    4  O   UNL     1      27.539  40.436  52.162  1.00  0.00    -0.247 OA
HETATM    5  H   UNL     1      27.434  41.515  54.199  1.00  0.00     0.170 HD
HETATM    6  H   UNL     1      27.357  43.505  51.376  1.00  0.00     0.171 HD
ENDROOT
BRANCH   1   7
HETATM    7  C   UNL     1      27.673  43.570  53.886  1.00  0.00     0.051 C 
HETATM    8  C   UNL     1      28.873  44.091  54.401  1.00  0.00     0.077 C 
HETATM    9  C   UNL     1      28.882  45.402  54.917  1.00  0.00     0.055 C 
HETATM   10  C   UNL     1      27.733  46.188  54.880  1.00  0.00     0.069 C 
HETATM   11  C   UNL     1      26.594  45.719  54.239  1.00  0.00     0.039 C 
HETATM   12  C   UNL     1      26.564  44.417  53.743  1.00  0.00     0.033 C 
BRANCH   8  13
HETATM   13  C   UNL     1      30.124  43.259  54.525  1.00  0.00     0.419 C 
HETATM   14  F   UNL     1      31.164  43.932  55.092  1.00  0.00    -0.166 F 
HETATM   15  F   UNL     1      29.933  42.153  55.294  1.00  0.00    -0.166 F 
HETATM   16  F   UNL     1      30.588  42.806  53.325  1.00  0.00    -0.166 F 
ENDBRANCH   8  13
BRANCH  10  17
HETATM   17  O   UNL     1      27.659  47.442  55.417  1.00  0.00    -0.351 OA
BRANCH  17  18
HETATM   18  C   UNL     1      26.427  48.111  55.126  1.00  0.00     0.171 C 
HETATM   19  C   UNL     1      26.025  48.909  56.354  1.00  0.00     0.034 C 
ENDBRANCH  17  18
ENDBRANCH  10  17
ENDBRANCH   1   7
BRANCH   3  20
HETATM   20  C   UNL     1      26.966  42.200  49.886  1.00  0.00     0.086 A 
HETATM   21  C   UNL     1      27.502  41.284  48.935  1.00  0.00     0.079 A 
HETATM   22  C   UNL     1      28.599  40.294  49.066  1.00  0.00     0.075 C 
HETATM   23  N   UNL     1      26.822  41.329  47.778  1.00  0.00    -0.177 NA
HETATM   24  N   UNL     1      25.872  42.243  47.987  1.00  0.00    -0.280 N 
HETATM   25  H   UNL     1      25.231  42.443  47.226  1.00  0.00     0.189 HD
HETATM   26  C   UNL     1      25.893  42.786  49.240  1.00  0.00     0.052 A 
HETATM   27  C   UNL     1      24.916  43.821  49.656  1.00  0.00     0.072 C 
ENDBRANCH   3  20
TORSDOF 5
ENDMDL
MODEL 5
REMARK VINA RESULT:      -7.0      4.700      8.272
REMARK  5 active torsions:
REMARK  status: ('A' for Active; 'I' for Inactive)
REMARK    1  A    between atoms: C_2  and  O_3 
REMARK    2  A    between atoms: O_3  and  C_4 
REMARK    3  A    between atoms: C_6  and  C_7 
REMARK    4  A    between atoms: C_11  and  N_12 
REMARK       I    between atoms: N_12  and  C_13 
REMARK       I    between atoms: C_13  and  N_14 
REMARK    5  A    between atoms: N_14  and  C_15 
ROOT
HETATM    1  N   UNL     1      23.535  46.307  48.904  1.00  0.00    -0.308 N 
HETATM    2  C   UNL     1      22.703  47.321  48.486  1.00  0.00     0.325 C 
HETATM    3  N   UNL     1      22.354  48.254  49.423  1.00  0.00    -0.305 N 
HETATM    4  O   UNL     1      22.278  47.261  47.335  1.00  0.00    -0.247 OA
HETATM    5  H   UNL     1      23.469  45.518  48.266  1.00  0.00     0.170 HD
HETATM    6  H   UNL     1      22.832  48.233  50.306  1.00  0.00     0.171 HD
ENDROOT
BRANCH   1   7
HETATM    7  C   UNL     1      24.233  46.133  50.114  1.00  0.00     0.051 C 
HETATM    8  C   UNL     1      24.204  44.890  50.771  1.00  0.00     0.077 C 
HETATM    9  C   UNL     1      24.796  44.777  52.045  1.00  0.00     0.055 C 
HETATM   10  C   UNL     1      25.440  45.867  52.628  1.00  0.00     0.069 C 
HETATM   11  C   UNL     1      25.590  47.047  51.912  1.00  0.00     0.039 C 
HETATM   12  C   UNL     1      24.991  47.179  50.660  1.00  0.00     0.033 C 
BRANCH   8  13
HETATM   13  C   UNL     1      23.464  43.703  50.213  1.00  0.00     0.419 C 
HETATM   14  F   UNL     1      23.814  43.404  48.931  1.00  0.00    -0.166 F 
HETATM   15  F   UNL     1      23.689  42.569  50.932  1.00  0.00    -0.166 F 
HETATM   16  F   UNL     1      22.111  43.872  50.196  1.00  0.00    -0.166 F 
ENDBRANCH   8  13
BRANCH  10  17
HETATM   17  O   UNL     1      25.980  45.841  53.882  1.00  0.00    -0.351 OA
BRANCH  17  18
HETATM   18  C   UNL     1      26.599  44.590  54.207  1.00  0.00     0.171 C 
HETATM   19  C   UNL     1      28.095  44.822  54.319  1.00  0.00     0.034 C 
ENDBRANCH  17  18
ENDBRANCH  10  17
ENDBRANCH   1   7
BRANCH   3  20
HETATM   20  C   UNL     1      21.398  49.247  49.312  1.00  0.00     0.086 A 
HETATM   21  C   UNL     1      19.993  49.295  49.549  1.00  0.00     0.079 A 
HETATM   22  C   UNL     1      19.069  48.256  50.064  1.00  0.00     0.075 C 
HETATM   23  N   UNL     1      19.500  50.521  49.307  1.00  0.00    -0.177 NA
HETATM   24  N   UNL     1      20.563  51.238  48.934  1.00  0.00    -0.280 N 
HETATM   25  H   UNL     1      20.417  52.214  48.697  1.00  0.00     0.189 HD
HETATM   26  C   UNL     1      21.733  50.535  48.938  1.00  0.00     0.052 A 
HETATM   27  C   UNL     1      23.019  51.163  48.550  1.00  0.00     0.072 C 
ENDBRANCH   3  20
TORSDOF 5
ENDMDL
MODEL 6
REMARK VINA RESULT:      -7.0      2.861      6.677
REMARK  5 active torsions:
REMARK  status: ('A' for Active; 'I' for Inactive)
REMARK    1  A    between atoms: C_2  and  O_3 
REMARK    2  A    between atoms: O_3  and  C_4 
REMARK    3  A    between atoms: C_6  and  C_7 
REMARK    4  A    between atoms: C_11  and  N_12 
REMARK       I    between atoms: N_12  and  C_13 
REMARK       I    between atoms: C_13  and  N_14 
REMARK    5  A    between atoms: N_14  and  C_15 
ROOT
HETATM    1  N   UNL     1      26.494  43.018  52.678  1.00  0.00    -0.308 N 
HETATM    2  C   UNL     1      25.734  43.339  51.576  1.00  0.00     0.325 C 
HETATM    3  N   UNL     1      25.534  44.670  51.335  1.00  0.00    -0.305 N 
HETATM    4  O   UNL     1      25.231  42.410  50.950  1.00  0.00    -0.247 OA
HETATM    5  H   UNL     1      26.314  42.057  52.957  1.00  0.00     0.170 HD
HETATM    6  H   UNL     1      26.065  45.329  51.875  1.00  0.00     0.171 HD
ENDROOT
BRANCH   1   7
HETATM    7  C   UNL     1      27.250  43.835  53.540  1.00  0.00     0.051 C 
HETATM    8  C   UNL     1      28.605  43.542  53.780  1.00  0.00     0.077 C 
HETATM    9  C   UNL     1      29.304  44.291  54.747  1.00  0.00     0.055 C 
HETATM   10  C   UNL     1      28.679  45.336  55.424  1.00  0.00     0.069 C 
HETATM   11  C   UNL     1      27.389  45.712  55.078  1.00  0.00     0.039 C 
HETATM   12  C   UNL     1      26.678  44.967  54.139  1.00  0.00     0.033 C 
BRANCH   8  13
HETATM   13  C   UNL     1      29.305  42.381  53.122  1.00  0.00     0.419 C 
HETATM   14  F   UNL     1      30.657  42.408  53.283  1.00  0.00    -0.166 F 
HETATM   15  F   UNL     1      28.895  41.183  53.620  1.00  0.00    -0.166 F 
HETATM   16  F   UNL     1      29.094  42.320  51.777  1.00  0.00    -0.166 F 
ENDBRANCH   8  13
BRANCH  10  17
HETATM   17  O   UNL     1      29.282  46.059  56.413  1.00  0.00    -0.351 OA
BRANCH  17  18
HETATM   18  C   UNL     1      30.482  45.454  56.908  1.00  0.00     0.171 C 
HETATM   19  C   UNL     1      30.395  45.409  58.424  1.00  0.00     0.034 C 
ENDBRANCH  17  18
ENDBRANCH  10  17
ENDBRANCH   1   7
BRANCH   3  20
HETATM   20  C   UNL     1      24.669  45.243  50.420  1.00  0.00     0.086 A 
HETATM   21  C   UNL     1      23.442  44.825  49.827  1.00  0.00     0.079 A 
HETATM   22  C   UNL     1      22.634  43.600  50.050  1.00  0.00     0.075 C 
HETATM   23  N   UNL     1      22.962  45.758  48.990  1.00  0.00    -0.177 NA
HETATM   24  N   UNL     1      23.854  46.750  49.053  1.00  0.00    -0.280 N 
HETATM   25  H   UNL     1      23.687  47.574  48.486  1.00  0.00     0.189 HD
HETATM   26  C   UNL     1      24.889  46.509  49.910  1.00  0.00     0.052 A 
HETATM   27  C   UNL     1      25.979  47.494  50.111  1.00  0.00     0.072 C 
ENDBRANCH   3  20
TORSDOF 5
ENDMDL
MODEL 7
REMARK VINA RESULT:      -6.9     12.362     14.003
REMARK  5 active torsions:
REMARK  status: ('A' for Active; 'I' for Inactive)
REMARK    1  A    between atoms: C_2  and  O_3 
REMARK    2  A    between atoms: O_3  and  C_4 
REMARK    3  A    between atoms: C_6  and  C_7 
REMARK    4  A    between atoms: C_11  and  N_12 
REMARK       I    between atoms: N_12  and  C_13 
REMARK       I    between atoms: C_13  and  N_14 
REMARK    5  A    between atoms: N_14  and  C_15 
ROOT
HETATM    1  N   UNL     1      31.094  51.978  39.716  1.00  0.00    -0.308 N 
HETATM    2  C   UNL     1      32.328  52.182  40.292  1.00  0.00     0.325 C 
HETATM    3  N   UNL     1      32.659  51.365  41.338  1.00  0.00    -0.305 N 
HETATM    4  O   UNL     1      32.993  53.127  39.877  1.00  0.00    -0.247 OA
HETATM    5  H   UNL     1      30.810  52.808  39.200  1.00  0.00     0.170 HD
HETATM    6  H   UNL     1      32.061  50.582  41.528  1.00  0.00     0.171 HD
ENDROOT
BRANCH   1   7
HETATM    7  C   UNL     1      30.147  50.956  39.915  1.00  0.00     0.051 C 
HETATM    8  C   UNL     1      28.986  51.209  40.667  1.00  0.00     0.077 C 
HETATM    9  C   UNL     1      28.120  50.138  40.966  1.00  0.00     0.055 C 
HETATM   10  C   UNL     1      28.383  48.857  40.487  1.00  0.00     0.069 C 
HETATM   11  C   UNL     1      29.451  48.645  39.626  1.00  0.00     0.039 C 
HETATM   12  C   UNL     1      30.328  49.690  39.339  1.00  0.00     0.033 C 
BRANCH   8  13
HETATM   13  C   UNL     1      28.692  52.561  41.263  1.00  0.00     0.419 C 
HETATM   14  F   UNL     1      27.401  52.699  41.677  1.00  0.00    -0.166 F 
HETATM   15  F   UNL     1      29.462  52.823  42.354  1.00  0.00    -0.166 F 
HETATM   16  F   UNL     1      28.912  53.589  40.394  1.00  0.00    -0.166 F 
ENDBRANCH   8  13
BRANCH  10  17
HETATM   17  O   UNL     1      27.618  47.767  40.790  1.00  0.00    -0.351 OA
BRANCH  17  18
HETATM   18  C   UNL     1      26.215  47.989  40.603  1.00  0.00     0.171 C 
HETATM   19  C   UNL     1      25.867  47.613  39.173  1.00  0.00     0.034 C 
ENDBRANCH  17  18
ENDBRANCH  10  17
ENDBRANCH   1   7
BRANCH   3  20
HETATM   20  C   UNL     1      33.739  51.485  42.195  1.00  0.00     0.086 A 
HETATM   21  C   UNL     1      35.152  51.455  42.011  1.00  0.00     0.079 A 
HETATM   22  C   UNL     1      35.958  51.328  40.772  1.00  0.00     0.075 C 
HETATM   23  N   UNL     1      35.798  51.636  43.174  1.00  0.00    -0.177 NA
HETATM   24  N   UNL     1      34.824  51.787  44.074  1.00  0.00    -0.280 N 
HETATM   25  H   UNL     1      35.092  51.938  45.041  1.00  0.00     0.189 HD
HETATM   26  C   UNL     1      33.567  51.728  43.545  1.00  0.00     0.052 A 
HETATM   27  C   UNL     1      32.358  51.871  44.391  1.00  0.00     0.072 C 
ENDBRANCH   3  20
TORSDOF 5
ENDMDL
MODEL 8
REMARK VINA RESULT:      -6.8      1.665      2.578
REMARK  5 active torsions:
REMARK  status: ('A' for Active; 'I' for Inactive)
REMARK    1  A    between atoms: C_2  and  O_3 
REMARK    2  A    between atoms: O_3  and  C_4 
REMARK    3  A    between atoms: C_6  and  C_7 
REMARK    4  A    between atoms: C_11  and  N_12 
REMARK       I    between atoms: N_12  and  C_13 
REMARK       I    between atoms: C_13  and  N_14 
REMARK    5  A    between atoms: N_14  and  C_15 
ROOT
HETATM    1  N   UNL     1      25.903  43.630  53.036  1.00  0.00    -0.308 N 
HETATM    2  C   UNL     1      26.909  43.451  53.959  1.00  0.00     0.325 C 
HETATM    3  N   UNL     1      27.779  44.493  54.126  1.00  0.00    -0.305 N 
HETATM    4  O   UNL     1      26.993  42.349  54.493  1.00  0.00    -0.247 OA
HETATM    5  H   UNL     1      25.531  42.728  52.748  1.00  0.00     0.170 HD
HETATM    6  H   UNL     1      27.554  45.367  53.687  1.00  0.00     0.171 HD
ENDROOT
BRANCH   1   7
HETATM    7  C   UNL     1      25.505  44.776  52.323  1.00  0.00     0.051 C 
HETATM    8  C   UNL     1      24.948  44.648  51.038  1.00  0.00     0.077 C 
HETATM    9  C   UNL     1      24.682  45.813  50.290  1.00  0.00     0.055 C 
HETATM   10  C   UNL     1      24.925  47.074  50.830  1.00  0.00     0.069 C 
HETATM   11  C   UNL     1      25.337  47.195  52.149  1.00  0.00     0.039 C 
HETATM   12  C   UNL     1      25.625  46.052  52.894  1.00  0.00     0.033 C 
BRANCH   8  13
HETATM   13  C   UNL     1      24.729  43.308  50.386  1.00  0.00     0.419 C 
HETATM   14  F   UNL     1      25.871  42.575  50.264  1.00  0.00    -0.166 F 
HETATM   15  F   UNL     1      23.861  42.528  51.087  1.00  0.00    -0.166 F 
HETATM   16  F   UNL     1      24.215  43.401  49.127  1.00  0.00    -0.166 F 
ENDBRANCH   8  13
BRANCH  10  17
HETATM   17  O   UNL     1      24.746  48.237  50.137  1.00  0.00    -0.351 OA
BRANCH  17  18
HETATM   18  C   UNL     1      23.630  48.196  49.239  1.00  0.00     0.171 C 
HETATM   19  C   UNL     1      23.715  49.409  48.329  1.00  0.00     0.034 C 
ENDBRANCH  17  18
ENDBRANCH  10  17
ENDBRANCH   1   7
BRANCH   3  20
HETATM   20  C   UNL     1      28.965  44.497  54.839  1.00  0.00     0.086 A 
HETATM   21  C   UNL     1      30.161  43.725  54.769  1.00  0.00     0.079 A 
HETATM   22  C   UNL     1      30.555  42.646  53.830  1.00  0.00     0.075 C 
HETATM   23  N   UNL     1      31.055  44.128  55.686  1.00  0.00    -0.177 NA
HETATM   24  N   UNL     1      30.451  45.137  56.318  1.00  0.00    -0.280 N 
HETATM   25  H   UNL     1      30.956  45.597  57.067  1.00  0.00     0.189 HD
HETATM   26  C   UNL     1      29.203  45.419  55.840  1.00  0.00     0.052 A 
HETATM   27  C   UNL     1      28.376  46.506  56.420  1.00  0.00     0.072 C 
ENDBRANCH   3  20
TORSDOF 5
ENDMDL
MODEL 9
REMARK VINA RESULT:      -6.8     11.780     14.104
REMARK  5 active torsions:
REMARK  status: ('A' for Active; 'I' for Inactive)
REMARK    1  A    between atoms: C_2  and  O_3 
REMARK    2  A    between atoms: O_3  and  C_4 
REMARK    3  A    between atoms: C_6  and  C_7 
REMARK    4  A    between atoms: C_11  and  N_12 
REMARK       I    between atoms: N_12  and  C_13 
REMARK       I    between atoms: C_13  and  N_14 
REMARK    5  A    between atoms: N_14  and  C_15 
ROOT
HETATM    1  N   UNL     1      31.167  49.258  42.965  1.00  0.00    -0.308 N 
HETATM    2  C   UNL     1      30.178  49.183  42.010  1.00  0.00     0.325 C 
HETATM    3  N   UNL     1      30.053  50.254  41.170  1.00  0.00    -0.305 N 
HETATM    4  O   UNL     1      29.438  48.203  42.044  1.00  0.00    -0.247 OA
HETATM    5  H   UNL     1      30.974  48.604  43.719  1.00  0.00     0.170 HD
HETATM    6  H   UNL     1      30.770  50.956  41.196  1.00  0.00     0.171 HD
ENDROOT
BRANCH   1   7
HETATM    7  C   UNL     1      32.201  50.197  43.141  1.00  0.00     0.051 C 
HETATM    8  C   UNL     1      33.355  50.133  42.340  1.00  0.00     0.077 C 
HETATM    9  C   UNL     1      34.432  50.996  42.623  1.00  0.00     0.055 C 
HETATM   10  C   UNL     1      34.341  51.930  43.652  1.00  0.00     0.069 C 
HETATM   11  C   UNL     1      33.147  52.086  44.343  1.00  0.00     0.039 C 
HETATM   12  C   UNL     1      32.081  51.225  44.088  1.00  0.00     0.033 C 
BRANCH   8  13
HETATM   13  C   UNL     1      33.527  49.096  41.260  1.00  0.00     0.419 C 
HETATM   14  F   UNL     1      32.752  49.327  40.163  1.00  0.00    -0.166 F 
HETATM   15  F   UNL     1      34.808  49.035  40.802  1.00  0.00    -0.166 F 
HETATM   16  F   UNL     1      33.217  47.834  41.672  1.00  0.00    -0.166 F 
ENDBRANCH   8  13
BRANCH  10  17
HETATM   17  O   UNL     1      35.369  52.753  44.016  1.00  0.00    -0.351 OA
BRANCH  17  18
HETATM   18  C   UNL     1      36.633  52.355  43.473  1.00  0.00     0.171 C 
HETATM   19  C   UNL     1      37.270  53.572  42.825  1.00  0.00     0.034 C 
ENDBRANCH  17  18
ENDBRANCH  10  17
ENDBRANCH   1   7
BRANCH   3  20
HETATM   20  C   UNL     1      29.037  50.505  40.266  1.00  0.00     0.086 A 
HETATM   21  C   UNL     1      28.551  49.822  39.113  1.00  0.00     0.079 A 
HETATM   22  C   UNL     1      28.969  48.531  38.513  1.00  0.00     0.075 C 
HETATM   23  N   UNL     1      27.510  50.469  38.566  1.00  0.00    -0.177 NA
HETATM   24  N   UNL     1      27.330  51.533  39.353  1.00  0.00    -0.280 N 
HETATM   25  H   UNL     1      26.581  52.175  39.117  1.00  0.00     0.189 HD
HETATM   26  C   UNL     1      28.202  51.598  40.401  1.00  0.00     0.052 A 
HETATM   27  C   UNL     1      28.158  52.710  41.381  1.00  0.00     0.072 C 
ENDBRANCH   3  20
TORSDOF 5
ENDMDL
MODEL 10
REMARK VINA RESULT:      -6.7     12.218     13.704
REMARK  5 active torsions:
REMARK  status: ('A' for Active; 'I' for Inactive)
REMARK    1  A    between atoms: C_2  and  O_3 
REMARK    2  A    between atoms: O_3  and  C_4 
REMARK    3  A    between atoms: C_6  and  C_7 
REMARK    4  A    between atoms: C_11  and  N_12 
REMARK       I    between atoms: N_12  and  C_13 
REMARK       I    between atoms: C_13  and  N_14 
REMARK    5  A    between atoms: N_14  and  C_15 
ROOT
HETATM    1  N   UNL     1      30.935  50.870  39.558  1.00  0.00    -0.308 N 
HETATM    2  C   UNL     1      32.000  51.423  40.233  1.00  0.00     0.325 C 
HETATM    3  N   UNL     1      32.500  50.706  41.284  1.00  0.00    -0.305 N 
HETATM    4  O   UNL     1      32.359  52.547  39.891  1.00  0.00    -0.247 OA
HETATM    5  H   UNL     1      30.440  51.591  39.039  1.00  0.00     0.170 HD
HETATM    6  H   UNL     1      32.168  49.767  41.411  1.00  0.00     0.171 HD
ENDROOT
BRANCH   1   7
HETATM    7  C   UNL     1      30.348  49.595  39.660  1.00  0.00     0.051 C 
HETATM    8  C   UNL     1      29.196  49.411  40.447  1.00  0.00     0.077 C 
HETATM    9  C   UNL     1      28.704  48.105  40.643  1.00  0.00     0.055 C 
HETATM   10  C   UNL     1      29.321  47.016  40.033  1.00  0.00     0.069 C 
HETATM   11  C   UNL     1      30.367  47.220  39.143  1.00  0.00     0.039 C 
HETATM   12  C   UNL     1      30.877  48.504  38.956  1.00  0.00     0.033 C 
BRANCH   8  13
HETATM   13  C   UNL     1      28.534  50.548  41.181  1.00  0.00     0.419 C 
HETATM   14  F   UNL     1      28.108  51.546  40.357  1.00  0.00    -0.166 F 
HETATM   15  F   UNL     1      27.434  50.145  41.874  1.00  0.00    -0.166 F 
HETATM   16  F   UNL     1      29.352  51.147  42.093  1.00  0.00    -0.166 F 
ENDBRANCH   8  13
BRANCH  10  17
HETATM   17  O   UNL     1      28.931  45.722  40.230  1.00  0.00    -0.351 OA
BRANCH  17  18
HETATM   18  C   UNL     1      28.671  45.016  39.011  1.00  0.00     0.171 C 
HETATM   19  C   UNL     1      28.471  43.550  39.351  1.00  0.00     0.034 C 
ENDBRANCH  17  18
ENDBRANCH  10  17
ENDBRANCH   1   7
BRANCH   3  20
HETATM   20  C   UNL     1      33.426  51.119  42.225  1.00  0.00     0.086 A 
HETATM   21  C   UNL     1      33.323  51.714  43.516  1.00  0.00     0.079 A 
HETATM   22  C   UNL     1      32.127  52.054  44.325  1.00  0.00     0.075 C 
HETATM   23  N   UNL     1      34.534  51.919  44.057  1.00  0.00    -0.177 NA
HETATM   24  N   UNL     1      35.389  51.457  43.140  1.00  0.00    -0.280 N 
HETATM   25  H   UNL     1      36.381  51.516  43.344  1.00  0.00     0.189 HD
HETATM   26  C   UNL     1      34.783  50.945  42.029  1.00  0.00     0.052 A 
HETATM   27  C   UNL     1      35.569  50.390  40.900  1.00  0.00     0.072 C 
ENDBRANCH   3  20
TORSDOF 5
ENDMDL
