MODEL 1
REMARK VINA RESULT:     -10.3      0.000      0.000
REMARK  3 active torsions:
REMARK  status: ('A' for Active; 'I' for Inactive)
REMARK    1  A    between atoms: C_3  and  C_4 
REMARK       I    between atoms: C_4  and  N_5 
REMARK    2  A    between atoms: N_5  and  N_6 
REMARK       I    between atoms: N_6  and  C_7 
REMARK    3  A    between atoms: C_7  and  C_8 
ROOT
HETATM    1  N   UNL     1      26.759  45.589  51.777  1.00  0.00    -0.263 N 
HETATM    2  C   UNL     1      26.780  45.425  53.143  1.00  0.00     0.272 C 
HETATM    3  O   UNL     1      26.020  46.062  53.876  1.00  0.00    -0.266 OA
HETATM    4  H   UNL     1      27.368  45.087  51.133  1.00  0.00     0.190 HD
ENDROOT
BRANCH   1   5
HETATM    5  N   UNL     1      25.858  46.498  51.212  1.00  0.00    -0.261 N 
HETATM    6  C   UNL     1      26.101  47.005  49.950  1.00  0.00     0.294 C 
HETATM    7  O   UNL     1      27.094  46.672  49.304  1.00  0.00    -0.264 OA
HETATM    8  H   UNL     1      25.040  46.766  51.757  1.00  0.00     0.190 HD
BRANCH   6   9
HETATM    9  C   UNL     1      25.095  47.939  49.482  1.00  0.00     0.152 A 
HETATM   10  C   UNL     1      25.193  49.171  48.842  1.00  0.00    -0.009 A 
HETATM   11  C   UNL     1      26.423  49.903  48.444  1.00  0.00     0.052 C 
HETATM   12  C   UNL     1      23.851  49.614  48.628  1.00  0.00     0.007 A 
HETATM   13  C   UNL     1      23.028  48.627  49.153  1.00  0.00     0.087 A 
HETATM   14  C   UNL     1      23.248  50.744  48.044  1.00  0.00     0.015 A 
HETATM   15  O   UNL     1      23.774  47.618  49.669  1.00  0.00    -0.304 OA
HETATM   16  C   UNL     1      21.636  48.679  49.143  1.00  0.00     0.038 A 
HETATM   17  C   UNL     1      21.057  49.811  48.558  1.00  0.00     0.003 A 
HETATM   18  C   UNL     1      21.849  50.827  48.018  1.00  0.00     0.001 A 
ENDBRANCH   6   9
ENDBRANCH   1   5
BRANCH   2  19
HETATM   19  C   UNL     1      27.745  44.460  53.677  1.00  0.00     0.064 A 
HETATM   20  C   UNL     1      28.814  44.589  54.636  1.00  0.00     0.046 A 
HETATM   21  C   UNL     1      29.417  43.331  54.768  1.00  0.00     0.046 A 
HETATM   22  C   UNL     1      29.352  45.635  55.418  1.00  0.00     0.130 A 
HETATM   23  C   UNL     1      30.500  43.087  55.623  1.00  0.00     0.030 A 
HETATM   24  N   UNL     1      28.750  42.469  53.931  1.00  0.00    -0.364 N 
HETATM   25  C   UNL     1      30.998  44.152  56.377  1.00  0.00     0.005 A 
HETATM   26  C   UNL     1      30.430  45.417  56.277  1.00  0.00     0.043 A 
HETATM   27  H   UNL     1      28.971  41.488  53.820  1.00  0.00     0.165 HD
HETATM   28  C   UNL     1      27.752  43.131  53.277  1.00  0.00     0.106 A 
HETATM   29  F   UNL     1      28.836  46.870  55.354  1.00  0.00    -0.205 F 
ENDBRANCH   2  19
TORSDOF 3
ENDMDL
MODEL 2
REMARK VINA RESULT:     -10.0      0.877      1.572
REMARK  3 active torsions:
REMARK  status: ('A' for Active; 'I' for Inactive)
REMARK    1  A    between atoms: C_3  and  C_4 
REMARK       I    between atoms: C_4  and  N_5 
REMARK    2  A    between atoms: N_5  and  N_6 
REMARK       I    between atoms: N_6  and  C_7 
REMARK    3  A    between atoms: C_7  and  C_8 
ROOT
HETATM    1  N   UNL     1      26.488  45.325  51.757  1.00  0.00    -0.263 N 
HETATM    2  C   UNL     1      26.623  45.252  53.125  1.00  0.00     0.272 C 
HETATM    3  O   UNL     1      25.870  45.874  53.877  1.00  0.00    -0.266 OA
HETATM    4  H   UNL     1      27.087  44.831  51.098  1.00  0.00     0.190 HD
ENDROOT
BRANCH   1   5
HETATM    5  N   UNL     1      25.476  46.123  51.213  1.00  0.00    -0.261 N 
HETATM    6  C   UNL     1      25.662  46.713  49.978  1.00  0.00     0.294 C 
HETATM    7  O   UNL     1      26.701  46.551  49.338  1.00  0.00    -0.264 OA
HETATM    8  H   UNL     1      24.621  46.249  51.752  1.00  0.00     0.190 HD
BRANCH   6   9
HETATM    9  C   UNL     1      24.540  47.516  49.529  1.00  0.00     0.152 A 
HETATM   10  C   UNL     1      23.295  47.171  49.013  1.00  0.00    -0.009 A 
HETATM   11  C   UNL     1      22.747  45.813  48.767  1.00  0.00     0.052 C 
HETATM   12  C   UNL     1      22.617  48.404  48.758  1.00  0.00     0.007 A 
HETATM   13  C   UNL     1      23.493  49.413  49.131  1.00  0.00     0.087 A 
HETATM   14  C   UNL     1      21.355  48.769  48.252  1.00  0.00     0.015 A 
HETATM   15  O   UNL     1      24.653  48.882  49.595  1.00  0.00    -0.304 OA
HETATM   16  C   UNL     1      23.209  50.773  49.039  1.00  0.00     0.038 A 
HETATM   17  C   UNL     1      21.949  51.115  48.534  1.00  0.00     0.003 A 
HETATM   18  C   UNL     1      21.037  50.131  48.146  1.00  0.00     0.001 A 
ENDBRANCH   6   9
ENDBRANCH   1   5
BRANCH   2  19
HETATM   19  C   UNL     1      27.702  44.402  53.637  1.00  0.00     0.064 A 
HETATM   20  C   UNL     1      28.753  44.643  54.593  1.00  0.00     0.046 A 
HETATM   21  C   UNL     1      29.505  43.465  54.699  1.00  0.00     0.046 A 
HETATM   22  C   UNL     1      29.165  45.731  55.393  1.00  0.00     0.130 A 
HETATM   23  C   UNL     1      30.615  43.339  55.546  1.00  0.00     0.030 A 
HETATM   24  N   UNL     1      28.942  42.544  53.849  1.00  0.00    -0.364 N 
HETATM   25  C   UNL     1      30.985  44.443  56.318  1.00  0.00     0.005 A 
HETATM   26  C   UNL     1      30.266  45.631  56.244  1.00  0.00     0.043 A 
HETATM   27  H   UNL     1      29.280  41.599  53.719  1.00  0.00     0.165 HD
HETATM   28  C   UNL     1      27.868  43.091  53.211  1.00  0.00     0.106 A 
HETATM   29  F   UNL     1      28.502  46.895  55.354  1.00  0.00    -0.205 F 
ENDBRANCH   2  19
TORSDOF 3
ENDMDL
MODEL 3
REMARK VINA RESULT:     -10.0      2.515      9.268
REMARK  3 active torsions:
REMARK  status: ('A' for Active; 'I' for Inactive)
REMARK    1  A    between atoms: C_3  and  C_4 
REMARK       I    between atoms: C_4  and  N_5 
REMARK    2  A    between atoms: N_5  and  N_6 
REMARK       I    between atoms: N_6  and  C_7 
REMARK    3  A    between atoms: C_7  and  C_8 
ROOT
HETATM    1  N   UNL     1      24.269  46.632  50.883  1.00  0.00    -0.263 N 
HETATM    2  C   UNL     1      24.283  47.669  49.977  1.00  0.00     0.272 C 
HETATM    3  O   UNL     1      25.244  48.437  49.899  1.00  0.00    -0.266 OA
HETATM    4  H   UNL     1      23.497  45.975  50.984  1.00  0.00     0.190 HD
ENDROOT
BRANCH   1   5
HETATM    5  N   UNL     1      25.367  46.450  51.730  1.00  0.00    -0.261 N 
HETATM    6  C   UNL     1      25.412  45.347  52.561  1.00  0.00     0.294 C 
HETATM    7  O   UNL     1      24.506  44.513  52.573  1.00  0.00    -0.264 OA
HETATM    8  H   UNL     1      26.109  47.147  51.712  1.00  0.00     0.190 HD
BRANCH   6   9
HETATM    9  C   UNL     1      26.599  45.278  53.391  1.00  0.00     0.152 A 
HETATM   10  C   UNL     1      27.133  46.157  54.330  1.00  0.00    -0.009 A 
HETATM   11  C   UNL     1      26.601  47.476  54.758  1.00  0.00     0.052 C 
HETATM   12  C   UNL     1      28.321  45.534  54.824  1.00  0.00     0.007 A 
HETATM   13  C   UNL     1      28.433  44.324  54.153  1.00  0.00     0.087 A 
HETATM   14  C   UNL     1      29.311  45.868  55.767  1.00  0.00     0.015 A 
HETATM   15  O   UNL     1      27.398  44.168  53.288  1.00  0.00    -0.304 OA
HETATM   16  C   UNL     1      29.466  43.411  54.350  1.00  0.00     0.038 A 
HETATM   17  C   UNL     1      30.439  43.761  55.292  1.00  0.00     0.003 A 
HETATM   18  C   UNL     1      30.364  44.970  55.990  1.00  0.00     0.001 A 
ENDBRANCH   6   9
ENDBRANCH   1   5
BRANCH   2  19
HETATM   19  C   UNL     1      23.106  47.810  49.117  1.00  0.00     0.064 A 
HETATM   20  C   UNL     1      22.283  48.945  48.781  1.00  0.00     0.046 A 
HETATM   21  C   UNL     1      21.284  48.498  47.906  1.00  0.00     0.046 A 
HETATM   22  C   UNL     1      22.262  50.316  49.119  1.00  0.00     0.130 A 
HETATM   23  C   UNL     1      20.298  49.341  47.374  1.00  0.00     0.030 A 
HETATM   24  N   UNL     1      21.484  47.153  47.712  1.00  0.00    -0.364 N 
HETATM   25  C   UNL     1      20.318  50.690  47.736  1.00  0.00     0.005 A 
HETATM   26  C   UNL     1      21.292  51.176  48.602  1.00  0.00     0.043 A 
HETATM   27  H   UNL     1      20.909  46.564  47.123  1.00  0.00     0.165 HD
HETATM   28  C   UNL     1      22.566  46.733  48.428  1.00  0.00     0.106 A 
HETATM   29  F   UNL     1      23.181  50.828  49.949  1.00  0.00    -0.205 F 
ENDBRANCH   2  19
TORSDOF 3
ENDMDL
MODEL 4
REMARK VINA RESULT:      -9.7      2.483      3.736
REMARK  3 active torsions:
REMARK  status: ('A' for Active; 'I' for Inactive)
REMARK    1  A    between atoms: C_3  and  C_4 
REMARK       I    between atoms: C_4  and  N_5 
REMARK    2  A    between atoms: N_5  and  N_6 
REMARK       I    between atoms: N_6  and  C_7 
REMARK    3  A    between atoms: C_7  and  C_8 
ROOT
HETATM    1  N   UNL     1      24.157  46.747  50.071  1.00  0.00    -0.263 N 
HETATM    2  C   UNL     1      25.089  46.776  51.083  1.00  0.00     0.272 C 
HETATM    3  O   UNL     1      25.097  47.681  51.920  1.00  0.00    -0.266 OA
HETATM    4  H   UNL     1      24.113  46.022  49.357  1.00  0.00     0.190 HD
ENDROOT
BRANCH   1   5
HETATM    5  N   UNL     1      23.202  47.767  49.993  1.00  0.00    -0.261 N 
HETATM    6  C   UNL     1      22.467  47.926  48.834  1.00  0.00     0.294 C 
HETATM    7  O   UNL     1      22.629  47.187  47.863  1.00  0.00    -0.264 OA
HETATM    8  H   UNL     1      23.078  48.373  50.803  1.00  0.00     0.190 HD
BRANCH   6   9
HETATM    9  C   UNL     1      21.515  49.020  48.881  1.00  0.00     0.152 A 
HETATM   10  C   UNL     1      21.563  50.318  48.381  1.00  0.00    -0.009 A 
HETATM   11  C   UNL     1      22.662  50.971  47.624  1.00  0.00     0.052 C 
HETATM   12  C   UNL     1      20.319  50.926  48.738  1.00  0.00     0.007 A 
HETATM   13  C   UNL     1      19.601  49.961  49.431  1.00  0.00     0.087 A 
HETATM   14  C   UNL     1      19.727  52.188  48.545  1.00  0.00     0.015 A 
HETATM   15  O   UNL     1      20.320  48.813  49.520  1.00  0.00    -0.304 OA
HETATM   16  C   UNL     1      18.326  50.158  49.955  1.00  0.00     0.038 A 
HETATM   17  C   UNL     1      17.755  51.419  49.753  1.00  0.00     0.003 A 
HETATM   18  C   UNL     1      18.443  52.419  49.060  1.00  0.00     0.001 A 
ENDBRANCH   6   9
ENDBRANCH   1   5
BRANCH   2  19
HETATM   19  C   UNL     1      26.064  45.683  51.113  1.00  0.00     0.064 A 
HETATM   20  C   UNL     1      26.618  44.909  52.196  1.00  0.00     0.046 A 
HETATM   21  C   UNL     1      27.515  43.987  51.641  1.00  0.00     0.046 A 
HETATM   22  C   UNL     1      26.468  44.880  53.600  1.00  0.00     0.130 A 
HETATM   23  C   UNL     1      28.242  43.067  52.409  1.00  0.00     0.030 A 
HETATM   24  N   UNL     1      27.511  44.183  50.281  1.00  0.00    -0.364 N 
HETATM   25  C   UNL     1      28.059  43.075  53.794  1.00  0.00     0.005 A 
HETATM   26  C   UNL     1      27.179  43.974  54.387  1.00  0.00     0.043 A 
HETATM   27  H   UNL     1      28.068  43.655  49.622  1.00  0.00     0.165 HD
HETATM   28  C   UNL     1      26.651  45.190  49.956  1.00  0.00     0.106 A 
HETATM   29  F   UNL     1      25.630  45.727  54.214  1.00  0.00    -0.205 F 
ENDBRANCH   2  19
TORSDOF 3
ENDMDL
MODEL 5
REMARK VINA RESULT:      -9.7      2.119      9.135
REMARK  3 active torsions:
REMARK  status: ('A' for Active; 'I' for Inactive)
REMARK    1  A    between atoms: C_3  and  C_4 
REMARK       I    between atoms: C_4  and  N_5 
REMARK    2  A    between atoms: N_5  and  N_6 
REMARK       I    between atoms: N_6  and  C_7 
REMARK    3  A    between atoms: C_7  and  C_8 
ROOT
HETATM    1  N   UNL     1      25.008  46.671  51.317  1.00  0.00    -0.263 N 
HETATM    2  C   UNL     1      24.877  46.354  49.983  1.00  0.00     0.272 C 
HETATM    3  O   UNL     1      25.704  45.642  49.411  1.00  0.00    -0.266 OA
HETATM    4  H   UNL     1      24.351  47.256  51.830  1.00  0.00     0.190 HD
ENDROOT
BRANCH   1   5
HETATM    5  N   UNL     1      26.103  46.174  52.032  1.00  0.00    -0.261 N 
HETATM    6  C   UNL     1      25.925  45.120  52.907  1.00  0.00     0.294 C 
HETATM    7  O   UNL     1      24.821  44.600  53.071  1.00  0.00    -0.264 OA
HETATM    8  H   UNL     1      27.010  46.613  51.887  1.00  0.00     0.190 HD
BRANCH   6   9
HETATM    9  C   UNL     1      27.136  44.703  53.587  1.00  0.00     0.152 A 
HETATM   10  C   UNL     1      27.910  43.551  53.489  1.00  0.00    -0.009 A 
HETATM   11  C   UNL     1      27.693  42.371  52.614  1.00  0.00     0.052 C 
HETATM   12  C   UNL     1      28.989  43.719  54.413  1.00  0.00     0.007 A 
HETATM   13  C   UNL     1      28.798  44.956  55.011  1.00  0.00     0.087 A 
HETATM   14  C   UNL     1      30.105  42.955  54.802  1.00  0.00     0.015 A 
HETATM   15  O   UNL     1      27.682  45.551  54.517  1.00  0.00    -0.304 OA
HETATM   16  C   UNL     1      29.641  45.498  55.979  1.00  0.00     0.038 A 
HETATM   17  C   UNL     1      30.744  44.723  56.351  1.00  0.00     0.003 A 
HETATM   18  C   UNL     1      30.973  43.472  55.774  1.00  0.00     0.001 A 
ENDBRANCH   6   9
ENDBRANCH   1   5
BRANCH   2  19
HETATM   19  C   UNL     1      23.711  46.903  49.286  1.00  0.00     0.064 A 
HETATM   20  C   UNL     1      23.421  48.219  48.773  1.00  0.00     0.046 A 
HETATM   21  C   UNL     1      22.145  48.174  48.196  1.00  0.00     0.046 A 
HETATM   22  C   UNL     1      24.093  49.460  48.728  1.00  0.00     0.130 A 
HETATM   23  C   UNL     1      21.536  49.286  47.595  1.00  0.00     0.030 A 
HETATM   24  N   UNL     1      21.673  46.893  48.345  1.00  0.00    -0.364 N 
HETATM   25  C   UNL     1      22.241  50.492  47.575  1.00  0.00     0.005 A 
HETATM   26  C   UNL     1      23.510  50.580  48.136  1.00  0.00     0.043 A 
HETATM   27  H   UNL     1      20.771  46.569  48.021  1.00  0.00     0.165 HD
HETATM   28  C   UNL     1      22.598  46.127  48.993  1.00  0.00     0.106 A 
HETATM   29  F   UNL     1      25.318  49.591  49.256  1.00  0.00    -0.205 F 
ENDBRANCH   2  19
TORSDOF 3
ENDMDL
MODEL 6
REMARK VINA RESULT:      -9.6      1.751      2.514
REMARK  3 active torsions:
REMARK  status: ('A' for Active; 'I' for Inactive)
REMARK    1  A    between atoms: C_3  and  C_4 
REMARK       I    between atoms: C_4  and  N_5 
REMARK    2  A    between atoms: N_5  and  N_6 
REMARK       I    between atoms: N_6  and  C_7 
REMARK    3  A    between atoms: C_7  and  C_8 
ROOT
HETATM    1  N   UNL     1      26.513  46.204  52.526  1.00  0.00    -0.263 N 
HETATM    2  C   UNL     1      26.438  46.362  53.891  1.00  0.00     0.272 C 
HETATM    3  O   UNL     1      25.421  46.804  54.429  1.00  0.00    -0.266 OA
HETATM    4  H   UNL     1      27.332  45.845  52.037  1.00  0.00     0.190 HD
ENDROOT
BRANCH   1   5
HETATM    5  N   UNL     1      25.412  46.554  51.737  1.00  0.00    -0.261 N 
HETATM    6  C   UNL     1      25.579  47.436  50.686  1.00  0.00     0.294 C 
HETATM    7  O   UNL     1      26.680  47.922  50.423  1.00  0.00    -0.264 OA
HETATM    8  H   UNL     1      24.508  46.146  51.965  1.00  0.00     0.190 HD
BRANCH   6   9
HETATM    9  C   UNL     1      24.362  47.719  49.950  1.00  0.00     0.152 A 
HETATM   10  C   UNL     1      23.512  46.906  49.206  1.00  0.00    -0.009 A 
HETATM   11  C   UNL     1      23.630  45.447  48.950  1.00  0.00     0.052 C 
HETATM   12  C   UNL     1      22.471  47.758  48.722  1.00  0.00     0.007 A 
HETATM   13  C   UNL     1      22.758  49.029  49.200  1.00  0.00     0.087 A 
HETATM   14  C   UNL     1      21.319  47.585  47.933  1.00  0.00     0.015 A 
HETATM   15  O   UNL     1      23.897  49.010  49.938  1.00  0.00    -0.304 OA
HETATM   16  C   UNL     1      21.978  50.156  48.949  1.00  0.00     0.038 A 
HETATM   17  C   UNL     1      20.836  49.963  48.162  1.00  0.00     0.003 A 
HETATM   18  C   UNL     1      20.511  48.699  47.662  1.00  0.00     0.001 A 
ENDBRANCH   6   9
ENDBRANCH   1   5
BRANCH   2  19
HETATM   19  C   UNL     1      27.622  45.979  54.665  1.00  0.00     0.064 A 
HETATM   20  C   UNL     1      28.540  44.874  54.548  1.00  0.00     0.046 A 
HETATM   21  C   UNL     1      29.494  45.008  55.566  1.00  0.00     0.046 A 
HETATM   22  C   UNL     1      28.678  43.759  53.693  1.00  0.00     0.130 A 
HETATM   23  C   UNL     1      30.546  44.101  55.753  1.00  0.00     0.030 A 
HETATM   24  N   UNL     1      29.179  46.142  56.274  1.00  0.00    -0.364 N 
HETATM   25  C   UNL     1      30.643  43.013  54.881  1.00  0.00     0.005 A 
HETATM   26  C   UNL     1      29.717  42.842  53.858  1.00  0.00     0.043 A 
HETATM   27  H   UNL     1      29.700  46.488  57.069  1.00  0.00     0.165 HD
HETATM   28  C   UNL     1      28.066  46.729  55.746  1.00  0.00     0.106 A 
HETATM   29  F   UNL     1      27.809  43.554  52.693  1.00  0.00    -0.205 F 
ENDBRANCH   2  19
TORSDOF 3
ENDMDL
MODEL 7
REMARK VINA RESULT:      -9.3      5.841      7.878
REMARK  3 active torsions:
REMARK  status: ('A' for Active; 'I' for Inactive)
REMARK    1  A    between atoms: C_3  and  C_4 
REMARK       I    between atoms: C_4  and  N_5 
REMARK    2  A    between atoms: N_5  and  N_6 
REMARK       I    between atoms: N_6  and  C_7 
REMARK    3  A    between atoms: C_7  and  C_8 
ROOT
HETATM    1  N   UNL     1      27.982  43.066  52.768  1.00  0.00    -0.263 N 
HETATM    2  C   UNL     1      29.139  43.627  53.258  1.00  0.00     0.272 C 
HETATM    3  O   UNL     1      30.230  43.413  52.724  1.00  0.00    -0.266 OA
HETATM    4  H   UNL     1      27.060  43.213  53.176  1.00  0.00     0.190 HD
ENDROOT
BRANCH   1   5
HETATM    5  N   UNL     1      28.048  42.235  51.644  1.00  0.00    -0.261 N 
HETATM    6  C   UNL     1      28.381  40.904  51.799  1.00  0.00     0.294 C 
HETATM    7  O   UNL     1      28.620  40.425  52.908  1.00  0.00    -0.264 OA
HETATM    8  H   UNL     1      27.849  42.643  50.732  1.00  0.00     0.190 HD
BRANCH   6   9
HETATM    9  C   UNL     1      28.419  40.153  50.558  1.00  0.00     0.152 A 
HETATM   10  C   UNL     1      29.029  38.951  50.215  1.00  0.00    -0.009 A 
HETATM   11  C   UNL     1      29.854  38.062  51.073  1.00  0.00     0.052 C 
HETATM   12  C   UNL     1      28.704  38.719  48.842  1.00  0.00     0.007 A 
HETATM   13  C   UNL     1      27.922  39.794  48.442  1.00  0.00     0.087 A 
HETATM   14  C   UNL     1      28.987  37.713  47.899  1.00  0.00     0.015 A 
HETATM   15  O   UNL     1      27.750  40.660  49.473  1.00  0.00    -0.304 OA
HETATM   16  C   UNL     1      27.396  39.948  47.162  1.00  0.00     0.038 A 
HETATM   17  C   UNL     1      27.689  38.937  46.240  1.00  0.00     0.003 A 
HETATM   18  C   UNL     1      28.472  37.837  46.601  1.00  0.00     0.001 A 
ENDBRANCH   6   9
ENDBRANCH   1   5
BRANCH   2  19
HETATM   19  C   UNL     1      29.008  44.487  54.437  1.00  0.00     0.064 A 
HETATM   20  C   UNL     1      29.750  44.557  55.671  1.00  0.00     0.046 A 
HETATM   21  C   UNL     1      29.182  45.576  56.447  1.00  0.00     0.046 A 
HETATM   22  C   UNL     1      30.848  43.870  56.233  1.00  0.00     0.130 A 
HETATM   23  C   UNL     1      29.655  45.924  57.720  1.00  0.00     0.030 A 
HETATM   24  N   UNL     1      28.142  46.109  55.724  1.00  0.00    -0.364 N 
HETATM   25  C   UNL     1      30.744  45.216  58.235  1.00  0.00     0.005 A 
HETATM   26  C   UNL     1      31.338  44.197  57.498  1.00  0.00     0.043 A 
HETATM   27  H   UNL     1      27.549  46.865  56.040  1.00  0.00     0.165 HD
HETATM   28  C   UNL     1      28.029  45.467  54.525  1.00  0.00     0.106 A 
HETATM   29  F   UNL     1      31.451  42.881  55.559  1.00  0.00    -0.205 F 
ENDBRANCH   2  19
TORSDOF 3
ENDMDL
MODEL 8
REMARK VINA RESULT:      -9.1      2.569      9.242
REMARK  3 active torsions:
REMARK  status: ('A' for Active; 'I' for Inactive)
REMARK    1  A    between atoms: C_3  and  C_4 
REMARK       I    between atoms: C_4  and  N_5 
REMARK    2  A    between atoms: N_5  and  N_6 
REMARK       I    between atoms: N_6  and  C_7 
REMARK    3  A    between atoms: C_7  and  C_8 
ROOT
HETATM    1  N   UNL     1      24.836  46.430  51.281  1.00  0.00    -0.263 N 
HETATM    2  C   UNL     1      25.022  47.212  50.163  1.00  0.00     0.272 C 
HETATM    3  O   UNL     1      26.149  47.568  49.812  1.00  0.00    -0.266 OA
HETATM    4  H   UNL     1      23.925  46.114  51.610  1.00  0.00     0.190 HD
ENDROOT
BRANCH   1   5
HETATM    5  N   UNL     1      25.948  46.036  52.032  1.00  0.00    -0.261 N 
HETATM    6  C   UNL     1      25.862  44.925  52.848  1.00  0.00     0.294 C 
HETATM    7  O   UNL     1      24.824  44.267  52.930  1.00  0.00    -0.264 OA
HETATM    8  H   UNL     1      26.800  46.589  51.955  1.00  0.00     0.190 HD
BRANCH   6   9
HETATM    9  C   UNL     1      27.081  44.625  53.574  1.00  0.00     0.152 A 
HETATM   10  C   UNL     1      27.894  43.496  53.603  1.00  0.00    -0.009 A 
HETATM   11  C   UNL     1      27.723  42.223  52.859  1.00  0.00     0.052 C 
HETATM   12  C   UNL     1      28.960  43.799  54.507  1.00  0.00     0.007 A 
HETATM   13  C   UNL     1      28.723  45.086  54.969  1.00  0.00     0.087 A 
HETATM   14  C   UNL     1      30.098  43.120  54.980  1.00  0.00     0.015 A 
HETATM   15  O   UNL     1      27.591  45.586  54.410  1.00  0.00    -0.304 OA
HETATM   16  C   UNL     1      29.540  45.758  55.875  1.00  0.00     0.038 A 
HETATM   17  C   UNL     1      30.666  45.065  56.333  1.00  0.00     0.003 A 
HETATM   18  C   UNL     1      30.942  43.767  55.894  1.00  0.00     0.001 A 
ENDBRANCH   6   9
ENDBRANCH   1   5
BRANCH   2  19
HETATM   19  C   UNL     1      23.820  47.595  49.418  1.00  0.00     0.064 A 
HETATM   20  C   UNL     1      22.825  46.819  48.721  1.00  0.00     0.046 A 
HETATM   21  C   UNL     1      21.891  47.715  48.185  1.00  0.00     0.046 A 
HETATM   22  C   UNL     1      22.600  45.446  48.475  1.00  0.00     0.130 A 
HETATM   23  C   UNL     1      20.777  47.305  47.438  1.00  0.00     0.030 A 
HETATM   24  N   UNL     1      22.291  48.981  48.536  1.00  0.00    -0.364 N 
HETATM   25  C   UNL     1      20.596  45.937  47.221  1.00  0.00     0.005 A 
HETATM   26  C   UNL     1      21.499  45.013  47.735  1.00  0.00     0.043 A 
HETATM   27  H   UNL     1      21.803  49.831  48.284  1.00  0.00     0.165 HD
HETATM   28  C   UNL     1      23.439  48.922  49.271  1.00  0.00     0.106 A 
HETATM   29  F   UNL     1      23.444  44.521  48.952  1.00  0.00    -0.205 F 
ENDBRANCH   2  19
TORSDOF 3
ENDMDL
MODEL 9
REMARK VINA RESULT:      -8.7      3.756      8.981
REMARK  3 active torsions:
REMARK  status: ('A' for Active; 'I' for Inactive)
REMARK    1  A    between atoms: C_3  and  C_4 
REMARK       I    between atoms: C_4  and  N_5 
REMARK    2  A    between atoms: N_5  and  N_6 
REMARK       I    between atoms: N_6  and  C_7 
REMARK    3  A    between atoms: C_7  and  C_8 
ROOT
HETATM    1  N   UNL     1      26.034  45.072  50.869  1.00  0.00    -0.263 N 
HETATM    2  C   UNL     1      24.695  44.785  51.007  1.00  0.00     0.272 C 
HETATM    3  O   UNL     1      24.194  44.590  52.116  1.00  0.00    -0.266 OA
HETATM    4  H   UNL     1      26.492  45.239  49.974  1.00  0.00     0.190 HD
ENDROOT
BRANCH   1   5
HETATM    5  N   UNL     1      26.839  45.141  52.011  1.00  0.00    -0.261 N 
HETATM    6  C   UNL     1      27.605  44.049  52.372  1.00  0.00     0.294 C 
HETATM    7  O   UNL     1      27.600  43.012  51.708  1.00  0.00    -0.264 OA
HETATM    8  H   UNL     1      26.835  46.004  52.551  1.00  0.00     0.190 HD
BRANCH   6   9
HETATM    9  C   UNL     1      28.391  44.247  53.575  1.00  0.00     0.152 A 
HETATM   10  C   UNL     1      29.557  43.643  54.036  1.00  0.00    -0.009 A 
HETATM   11  C   UNL     1      30.356  42.574  53.385  1.00  0.00     0.052 C 
HETATM   12  C   UNL     1      29.856  44.265  55.288  1.00  0.00     0.007 A 
HETATM   13  C   UNL     1      28.854  45.199  55.507  1.00  0.00     0.087 A 
HETATM   14  C   UNL     1      30.870  44.134  56.256  1.00  0.00     0.015 A 
HETATM   15  O   UNL     1      27.969  45.190  54.477  1.00  0.00    -0.304 OA
HETATM   16  C   UNL     1      28.780  46.022  56.628  1.00  0.00     0.038 A 
HETATM   17  C   UNL     1      29.796  45.877  57.578  1.00  0.00     0.003 A 
HETATM   18  C   UNL     1      30.825  44.949  57.397  1.00  0.00     0.001 A 
ENDBRANCH   6   9
ENDBRANCH   1   5
BRANCH   2  19
HETATM   19  C   UNL     1      23.902  44.726  49.777  1.00  0.00     0.064 A 
HETATM   20  C   UNL     1      23.462  43.622  48.961  1.00  0.00     0.046 A 
HETATM   21  C   UNL     1      22.727  44.153  47.893  1.00  0.00     0.046 A 
HETATM   22  C   UNL     1      23.599  42.217  48.998  1.00  0.00     0.130 A 
HETATM   23  C   UNL     1      22.145  43.360  46.894  1.00  0.00     0.030 A 
HETATM   24  N   UNL     1      22.716  45.519  48.044  1.00  0.00    -0.364 N 
HETATM   25  C   UNL     1      22.308  41.975  46.974  1.00  0.00     0.005 A 
HETATM   26  C   UNL     1      23.029  41.405  48.017  1.00  0.00     0.043 A 
HETATM   27  H   UNL     1      22.257  46.164  47.415  1.00  0.00     0.165 HD
HETATM   28  C   UNL     1      23.412  45.871  49.163  1.00  0.00     0.106 A 
HETATM   29  F   UNL     1      24.286  41.625  49.986  1.00  0.00    -0.205 F 
ENDBRANCH   2  19
TORSDOF 3
ENDMDL
MODEL 10
REMARK VINA RESULT:      -8.7     12.043     13.751
REMARK  3 active torsions:
REMARK  status: ('A' for Active; 'I' for Inactive)
REMARK    1  A    between atoms: C_3  and  C_4 
REMARK       I    between atoms: C_4  and  N_5 
REMARK    2  A    between atoms: N_5  and  N_6 
REMARK       I    between atoms: N_6  and  C_7 
REMARK    3  A    between atoms: C_7  and  C_8 
ROOT
HETATM    1  N   UNL     1      35.703  51.852  44.276  1.00  0.00    -0.263 N 
HETATM    2  C   UNL     1      36.708  52.679  43.825  1.00  0.00     0.272 C 
HETATM    3  O   UNL     1      36.496  53.526  42.955  1.00  0.00    -0.266 OA
HETATM    4  H   UNL     1      35.831  51.138  44.990  1.00  0.00     0.190 HD
ENDROOT
BRANCH   1   5
HETATM    5  N   UNL     1      34.420  51.978  43.733  1.00  0.00    -0.261 N 
HETATM    6  C   UNL     1      34.030  51.144  42.703  1.00  0.00     0.294 C 
HETATM    7  O   UNL     1      34.787  50.286  42.250  1.00  0.00    -0.264 OA
HETATM    8  H   UNL     1      33.804  52.693  44.117  1.00  0.00     0.190 HD
BRANCH   6   9
HETATM    9  C   UNL     1      32.680  51.379  42.228  1.00  0.00     0.152 A 
HETATM   10  C   UNL     1      31.526  50.602  42.278  1.00  0.00    -0.009 A 
HETATM   11  C   UNL     1      31.358  49.246  42.861  1.00  0.00     0.052 C 
HETATM   12  C   UNL     1      30.501  51.374  41.647  1.00  0.00     0.007 A 
HETATM   13  C   UNL     1      31.098  52.564  41.255  1.00  0.00     0.087 A 
HETATM   14  C   UNL     1      29.134  51.190  41.370  1.00  0.00     0.015 A 
HETATM   15  O   UNL     1      32.411  52.570  41.602  1.00  0.00    -0.304 OA
HETATM   16  C   UNL     1      30.432  53.597  40.599  1.00  0.00     0.038 A 
HETATM   17  C   UNL     1      29.073  53.394  40.333  1.00  0.00     0.003 A 
HETATM   18  C   UNL     1      28.434  52.211  40.712  1.00  0.00     0.001 A 
ENDBRANCH   6   9
ENDBRANCH   1   5
BRANCH   2  19
HETATM   19  C   UNL     1      38.030  52.500  44.429  1.00  0.00     0.064 A 
HETATM   20  C   UNL     1      38.725  53.216  45.470  1.00  0.00     0.046 A 
HETATM   21  C   UNL     1      39.973  52.604  45.643  1.00  0.00     0.046 A 
HETATM   22  C   UNL     1      38.443  54.325  46.297  1.00  0.00     0.130 A 
HETATM   23  C   UNL     1      40.919  53.044  46.580  1.00  0.00     0.030 A 
HETATM   24  N   UNL     1      40.043  51.561  44.752  1.00  0.00    -0.364 N 
HETATM   25  C   UNL     1      40.594  54.145  47.377  1.00  0.00     0.005 A 
HETATM   26  C   UNL     1      39.366  54.782  47.238  1.00  0.00     0.043 A 
HETATM   27  H   UNL     1      40.836  50.939  44.653  1.00  0.00     0.165 HD
HETATM   28  C   UNL     1      38.892  51.489  44.024  1.00  0.00     0.106 A 
HETATM   29  F   UNL     1      37.272  54.969  46.198  1.00  0.00    -0.205 F 
ENDBRANCH   2  19
TORSDOF 3
ENDMDL
