MODEL 1
REMARK VINA RESULT:      -9.5      0.000      0.000
REMARK  6 active torsions:
REMARK  status: ('A' for Active; 'I' for Inactive)
REMARK    1  A    between atoms: C_8  and  N_9 
REMARK       I    between atoms: N_9  and  C_10 
REMARK       I    between atoms: C_10  and  N_11 
REMARK    2  A    between atoms: N_11  and  C_12 
REMARK    3  A    between atoms: C_15  and  O_16 
REMARK    4  A    between atoms: O_16  and  C_17 
REMARK    5  A    between atoms: C_17  and  C_18 
REMARK    6  A    between atoms: C_18  and  C_19 
ROOT
HETATM    1  C   UNL     1      25.527  45.039  51.736  1.00  0.00     0.054 A 
HETATM    2  C   UNL     1      25.634  43.749  51.225  1.00  0.00     0.149 A 
HETATM    3  N   UNL     1      26.590  42.861  51.595  1.00  0.00    -0.235 NA
HETATM    4  C   UNL     1      27.479  43.270  52.520  1.00  0.00     0.164 A 
HETATM    5  C   UNL     1      27.435  44.515  53.124  1.00  0.00     0.060 A 
HETATM    6  C   UNL     1      26.449  45.414  52.716  1.00  0.00     0.035 A 
ENDROOT
BRANCH   1   7
HETATM    7  N   UNL     1      24.603  46.003  51.284  1.00  0.00    -0.307 N 
HETATM    8  C   UNL     1      24.689  46.727  50.104  1.00  0.00     0.325 C 
HETATM    9  N   UNL     1      23.835  47.812  50.145  1.00  0.00    -0.305 N 
HETATM   10  O   UNL     1      25.450  46.458  49.186  1.00  0.00    -0.247 OA
HETATM   11  H   UNL     1      23.593  48.145  51.065  1.00  0.00     0.171 HD
HETATM   12  H   UNL     1      23.740  46.092  51.799  1.00  0.00     0.170 HD
BRANCH   9  13
HETATM   13  C   UNL     1      23.626  48.711  49.110  1.00  0.00     0.086 A 
HETATM   14  C   UNL     1      22.377  48.916  48.555  1.00  0.00     0.052 A 
HETATM   15  C   UNL     1      21.042  48.349  48.855  1.00  0.00     0.072 C 
HETATM   16  N   UNL     1      22.552  49.864  47.588  1.00  0.00    -0.280 N 
HETATM   17  H   UNL     1      21.852  50.282  46.984  1.00  0.00     0.189 HD
HETATM   18  N   UNL     1      23.819  50.263  47.445  1.00  0.00    -0.177 NA
HETATM   19  C   UNL     1      24.494  49.566  48.371  1.00  0.00     0.079 A 
HETATM   20  C   UNL     1      25.967  49.743  48.451  1.00  0.00     0.075 C 
ENDBRANCH   9  13
ENDBRANCH   1   7
BRANCH   4  21
HETATM   21  O   UNL     1      28.510  42.429  52.891  1.00  0.00    -0.334 OA
BRANCH  21  22
HETATM   22  C   UNL     1      28.860  42.601  54.272  1.00  0.00     0.182 C 
BRANCH  22  23
HETATM   23  C   UNL     1      30.290  43.130  54.358  1.00  0.00     0.065 C 
BRANCH  23  24
HETATM   24  C   UNL     1      30.514  43.885  55.645  1.00  0.00    -0.056 A 
HETATM   25  C   UNL     1      31.387  43.380  56.618  1.00  0.00     0.007 A 
HETATM   26  C   UNL     1      31.547  44.040  57.836  1.00  0.00     0.001 A 
HETATM   27  C   UNL     1      30.835  45.210  58.094  1.00  0.00     0.000 A 
HETATM   28  C   UNL     1      29.964  45.721  57.133  1.00  0.00     0.001 A 
HETATM   29  C   UNL     1      29.802  45.062  55.913  1.00  0.00     0.007 A 
ENDBRANCH  23  24
ENDBRANCH  22  23
ENDBRANCH  21  22
ENDBRANCH   4  21
TORSDOF 6
ENDMDL
MODEL 2
REMARK VINA RESULT:      -9.0      1.628      2.071
REMARK  6 active torsions:
REMARK  status: ('A' for Active; 'I' for Inactive)
REMARK    1  A    between atoms: C_8  and  N_9 
REMARK       I    between atoms: N_9  and  C_10 
REMARK       I    between atoms: C_10  and  N_11 
REMARK    2  A    between atoms: N_11  and  C_12 
REMARK    3  A    between atoms: C_15  and  O_16 
REMARK    4  A    between atoms: O_16  and  C_17 
REMARK    5  A    between atoms: C_17  and  C_18 
REMARK    6  A    between atoms: C_18  and  C_19 
ROOT
HETATM    1  C   UNL     1      24.873  45.420  50.013  1.00  0.00     0.054 A 
HETATM    2  C   UNL     1      24.592  44.552  51.064  1.00  0.00     0.149 A 
HETATM    3  N   UNL     1      25.515  43.759  51.662  1.00  0.00    -0.235 NA
HETATM    4  C   UNL     1      26.777  43.834  51.199  1.00  0.00     0.164 A 
HETATM    5  C   UNL     1      27.171  44.695  50.190  1.00  0.00     0.060 A 
HETATM    6  C   UNL     1      26.200  45.492  49.583  1.00  0.00     0.035 A 
ENDROOT
BRANCH   1   7
HETATM    7  N   UNL     1      23.903  46.171  49.317  1.00  0.00    -0.307 N 
HETATM    8  C   UNL     1      23.559  47.491  49.565  1.00  0.00     0.325 C 
HETATM    9  N   UNL     1      22.356  47.795  48.958  1.00  0.00    -0.305 N 
HETATM   10  O   UNL     1      24.216  48.254  50.259  1.00  0.00    -0.247 OA
HETATM   11  H   UNL     1      21.744  47.013  48.784  1.00  0.00     0.171 HD
HETATM   12  H   UNL     1      23.506  45.755  48.488  1.00  0.00     0.170 HD
BRANCH   9  13
HETATM   13  C   UNL     1      21.750  49.042  48.953  1.00  0.00     0.086 A 
HETATM   14  C   UNL     1      20.441  49.224  49.357  1.00  0.00     0.052 A 
HETATM   15  C   UNL     1      19.414  48.292  49.877  1.00  0.00     0.072 C 
HETATM   16  N   UNL     1      20.196  50.562  49.229  1.00  0.00    -0.280 N 
HETATM   17  H   UNL     1      19.347  51.069  49.453  1.00  0.00     0.189 HD
HETATM   18  N   UNL     1      21.228  51.256  48.741  1.00  0.00    -0.177 NA
HETATM   19  C   UNL     1      22.192  50.339  48.564  1.00  0.00     0.079 A 
HETATM   20  C   UNL     1      23.484  50.780  47.979  1.00  0.00     0.075 C 
ENDBRANCH   9  13
ENDBRANCH   1   7
BRANCH   4  21
HETATM   21  O   UNL     1      27.747  43.006  51.731  1.00  0.00    -0.334 OA
BRANCH  21  22
HETATM   22  C   UNL     1      27.564  42.817  53.141  1.00  0.00     0.182 C 
BRANCH  22  23
HETATM   23  C   UNL     1      28.899  42.412  53.764  1.00  0.00     0.065 C 
BRANCH  23  24
HETATM   24  C   UNL     1      29.444  43.509  54.643  1.00  0.00    -0.056 A 
HETATM   25  C   UNL     1      30.597  43.293  55.410  1.00  0.00     0.007 A 
HETATM   26  C   UNL     1      31.068  44.282  56.274  1.00  0.00     0.001 A 
HETATM   27  C   UNL     1      30.389  45.494  56.382  1.00  0.00     0.000 A 
HETATM   28  C   UNL     1      29.241  45.719  55.625  1.00  0.00     0.001 A 
HETATM   29  C   UNL     1      28.769  44.731  54.759  1.00  0.00     0.007 A 
ENDBRANCH  23  24
ENDBRANCH  22  23
ENDBRANCH  21  22
ENDBRANCH   4  21
TORSDOF 6
ENDMDL
MODEL 3
REMARK VINA RESULT:      -8.9      2.794     10.202
REMARK  6 active torsions:
REMARK  status: ('A' for Active; 'I' for Inactive)
REMARK    1  A    between atoms: C_8  and  N_9 
REMARK       I    between atoms: N_9  and  C_10 
REMARK       I    between atoms: C_10  and  N_11 
REMARK    2  A    between atoms: N_11  and  C_12 
REMARK    3  A    between atoms: C_15  and  O_16 
REMARK    4  A    between atoms: O_16  and  C_17 
REMARK    5  A    between atoms: C_17  and  C_18 
REMARK    6  A    between atoms: C_18  and  C_19 
ROOT
HETATM    1  C   UNL     1      25.681  46.854  50.509  1.00  0.00     0.054 A 
HETATM    2  C   UNL     1      26.375  47.942  49.989  1.00  0.00     0.149 A 
HETATM    3  N   UNL     1      25.835  48.858  49.148  1.00  0.00    -0.235 NA
HETATM    4  C   UNL     1      24.543  48.690  48.810  1.00  0.00     0.164 A 
HETATM    5  C   UNL     1      23.750  47.669  49.305  1.00  0.00     0.060 A 
HETATM    6  C   UNL     1      24.334  46.733  50.160  1.00  0.00     0.035 A 
ENDROOT
BRANCH   1   7
HETATM    7  N   UNL     1      26.260  45.841  51.299  1.00  0.00    -0.307 N 
HETATM    8  C   UNL     1      26.894  44.700  50.830  1.00  0.00     0.325 C 
HETATM    9  N   UNL     1      27.020  43.770  51.843  1.00  0.00    -0.305 N 
HETATM   10  O   UNL     1      27.247  44.537  49.671  1.00  0.00    -0.247 OA
HETATM   11  H   UNL     1      26.352  43.848  52.595  1.00  0.00     0.171 HD
HETATM   12  H   UNL     1      26.329  46.012  52.291  1.00  0.00     0.170 HD
BRANCH   9  13
HETATM   13  C   UNL     1      27.658  42.545  51.736  1.00  0.00     0.086 A 
HETATM   14  C   UNL     1      28.909  42.317  52.277  1.00  0.00     0.052 A 
HETATM   15  C   UNL     1      29.834  43.172  53.057  1.00  0.00     0.072 C 
HETATM   16  N   UNL     1      29.207  41.016  51.989  1.00  0.00    -0.280 N 
HETATM   17  H   UNL     1      30.035  40.489  52.246  1.00  0.00     0.189 HD
HETATM   18  N   UNL     1      28.267  40.391  51.275  1.00  0.00    -0.177 NA
HETATM   19  C   UNL     1      27.307  41.314  51.109  1.00  0.00     0.079 A 
HETATM   20  C   UNL     1      26.114  40.952  50.301  1.00  0.00     0.075 C 
ENDBRANCH   9  13
ENDBRANCH   1   7
BRANCH   4  21
HETATM   21  O   UNL     1      23.957  49.559  47.910  1.00  0.00    -0.334 OA
BRANCH  21  22
HETATM   22  C   UNL     1      22.537  49.638  48.101  1.00  0.00     0.182 C 
BRANCH  22  23
HETATM   23  C   UNL     1      22.146  51.100  48.311  1.00  0.00     0.065 C 
BRANCH  23  24
HETATM   24  C   UNL     1      20.757  51.214  48.887  1.00  0.00    -0.056 A 
HETATM   25  C   UNL     1      20.323  50.313  49.869  1.00  0.00     0.007 A 
HETATM   26  C   UNL     1      19.017  50.373  50.358  1.00  0.00     0.001 A 
HETATM   27  C   UNL     1      18.134  51.333  49.868  1.00  0.00     0.000 A 
HETATM   28  C   UNL     1      18.554  52.232  48.890  1.00  0.00     0.001 A 
HETATM   29  C   UNL     1      19.860  52.174  48.401  1.00  0.00     0.007 A 
ENDBRANCH  23  24
ENDBRANCH  22  23
ENDBRANCH  21  22
ENDBRANCH   4  21
TORSDOF 6
ENDMDL
MODEL 4
REMARK VINA RESULT:      -8.7      1.516      2.632
REMARK  6 active torsions:
REMARK  status: ('A' for Active; 'I' for Inactive)
REMARK    1  A    between atoms: C_8  and  N_9 
REMARK       I    between atoms: N_9  and  C_10 
REMARK       I    between atoms: C_10  and  N_11 
REMARK    2  A    between atoms: N_11  and  C_12 
REMARK    3  A    between atoms: C_15  and  O_16 
REMARK    4  A    between atoms: O_16  and  C_17 
REMARK    5  A    between atoms: C_17  and  C_18 
REMARK    6  A    between atoms: C_18  and  C_19 
ROOT
HETATM    1  C   UNL     1      24.949  45.126  49.863  1.00  0.00     0.054 A 
HETATM    2  C   UNL     1      26.283  44.814  49.621  1.00  0.00     0.149 A 
HETATM    3  N   UNL     1      27.027  43.995  50.405  1.00  0.00    -0.235 NA
HETATM    4  C   UNL     1      26.417  43.456  51.478  1.00  0.00     0.164 A 
HETATM    5  C   UNL     1      25.083  43.667  51.784  1.00  0.00     0.060 A 
HETATM    6  C   UNL     1      24.343  44.523  50.967  1.00  0.00     0.035 A 
ENDROOT
BRANCH   1   7
HETATM    7  N   UNL     1      24.198  46.056  49.114  1.00  0.00    -0.307 N 
HETATM    8  C   UNL     1      23.811  47.320  49.533  1.00  0.00     0.325 C 
HETATM    9  N   UNL     1      22.809  47.809  48.718  1.00  0.00    -0.305 N 
HETATM   10  O   UNL     1      24.270  47.891  50.512  1.00  0.00    -0.247 OA
HETATM   11  H   UNL     1      22.257  47.115  48.238  1.00  0.00     0.171 HD
HETATM   12  H   UNL     1      24.027  45.836  48.144  1.00  0.00     0.170 HD
BRANCH   9  13
HETATM   13  C   UNL     1      22.233  49.066  48.816  1.00  0.00     0.086 A 
HETATM   14  C   UNL     1      22.938  50.221  48.533  1.00  0.00     0.052 A 
HETATM   15  C   UNL     1      24.325  50.461  48.073  1.00  0.00     0.072 C 
HETATM   16  N   UNL     1      22.058  51.248  48.724  1.00  0.00    -0.280 N 
HETATM   17  H   UNL     1      22.214  52.242  48.590  1.00  0.00     0.189 HD
HETATM   18  N   UNL     1      20.852  50.856  49.143  1.00  0.00    -0.177 NA
HETATM   19  C   UNL     1      20.940  49.519  49.206  1.00  0.00     0.079 A 
HETATM   20  C   UNL     1      19.760  48.758  49.692  1.00  0.00     0.075 C 
ENDBRANCH   9  13
ENDBRANCH   1   7
BRANCH   4  21
HETATM   21  O   UNL     1      27.141  42.662  52.345  1.00  0.00    -0.334 OA
BRANCH  21  22
HETATM   22  C   UNL     1      28.509  43.085  52.429  1.00  0.00     0.182 C 
BRANCH  22  23
HETATM   23  C   UNL     1      29.142  42.471  53.677  1.00  0.00     0.065 C 
BRANCH  23  24
HETATM   24  C   UNL     1      29.511  43.535  54.679  1.00  0.00    -0.056 A 
HETATM   25  C   UNL     1      28.766  44.719  54.760  1.00  0.00     0.007 A 
HETATM   26  C   UNL     1      29.143  45.735  55.640  1.00  0.00     0.001 A 
HETATM   27  C   UNL     1      30.269  45.577  56.444  1.00  0.00     0.000 A 
HETATM   28  C   UNL     1      31.019  44.404  56.371  1.00  0.00     0.001 A 
HETATM   29  C   UNL     1      30.643  43.387  55.492  1.00  0.00     0.007 A 
ENDBRANCH  23  24
ENDBRANCH  22  23
ENDBRANCH  21  22
ENDBRANCH   4  21
TORSDOF 6
ENDMDL
MODEL 5
REMARK VINA RESULT:      -8.2      2.389      4.007
REMARK  6 active torsions:
REMARK  status: ('A' for Active; 'I' for Inactive)
REMARK    1  A    between atoms: C_8  and  N_9 
REMARK       I    between atoms: N_9  and  C_10 
REMARK       I    between atoms: C_10  and  N_11 
REMARK    2  A    between atoms: N_11  and  C_12 
REMARK    3  A    between atoms: C_15  and  O_16 
REMARK    4  A    between atoms: O_16  and  C_17 
REMARK    5  A    between atoms: C_17  and  C_18 
REMARK    6  A    between atoms: C_18  and  C_19 
ROOT
HETATM    1  C   UNL     1      23.647  46.225  49.214  1.00  0.00     0.054 A 
HETATM    2  C   UNL     1      24.698  47.012  49.674  1.00  0.00     0.149 A 
HETATM    3  N   UNL     1      25.955  46.551  49.889  1.00  0.00    -0.235 NA
HETATM    4  C   UNL     1      26.181  45.248  49.631  1.00  0.00     0.164 A 
HETATM    5  C   UNL     1      25.217  44.391  49.130  1.00  0.00     0.060 A 
HETATM    6  C   UNL     1      23.929  44.887  48.929  1.00  0.00     0.035 A 
ENDROOT
BRANCH   1   7
HETATM    7  N   UNL     1      22.314  46.669  49.086  1.00  0.00    -0.307 N 
HETATM    8  C   UNL     1      21.874  47.712  48.285  1.00  0.00     0.325 C 
HETATM    9  N   UNL     1      20.604  48.103  48.663  1.00  0.00    -0.305 N 
HETATM   10  O   UNL     1      22.542  48.230  47.402  1.00  0.00    -0.247 OA
HETATM   11  H   UNL     1      20.348  47.898  49.616  1.00  0.00     0.171 HD
HETATM   12  H   UNL     1      21.597  46.107  49.520  1.00  0.00     0.170 HD
BRANCH   9  13
HETATM   13  C   UNL     1      19.842  49.077  48.036  1.00  0.00     0.086 A 
HETATM   14  C   UNL     1      19.067  48.802  46.925  1.00  0.00     0.052 A 
HETATM   15  C   UNL     1      18.810  47.556  46.167  1.00  0.00     0.072 C 
HETATM   16  N   UNL     1      18.459  49.980  46.596  1.00  0.00    -0.280 N 
HETATM   17  H   UNL     1      17.799  50.158  45.846  1.00  0.00     0.189 HD
HETATM   18  N   UNL     1      18.806  51.004  47.380  1.00  0.00    -0.177 NA
HETATM   19  C   UNL     1      19.655  50.470  48.270  1.00  0.00     0.079 A 
HETATM   20  C   UNL     1      20.275  51.367  49.278  1.00  0.00     0.075 C 
ENDBRANCH   9  13
ENDBRANCH   1   7
BRANCH   4  21
HETATM   21  O   UNL     1      27.427  44.710  49.889  1.00  0.00    -0.334 OA
BRANCH  21  22
HETATM   22  C   UNL     1      27.352  43.632  50.832  1.00  0.00     0.182 C 
BRANCH  22  23
HETATM   23  C   UNL     1      27.162  44.213  52.233  1.00  0.00     0.065 C 
BRANCH  23  24
HETATM   24  C   UNL     1      28.363  43.938  53.102  1.00  0.00    -0.056 A 
HETATM   25  C   UNL     1      29.332  43.011  52.697  1.00  0.00     0.007 A 
HETATM   26  C   UNL     1      30.411  42.706  53.528  1.00  0.00     0.001 A 
HETATM   27  C   UNL     1      30.529  43.323  54.771  1.00  0.00     0.000 A 
HETATM   28  C   UNL     1      29.570  44.246  55.185  1.00  0.00     0.001 A 
HETATM   29  C   UNL     1      28.491  44.553  54.355  1.00  0.00     0.007 A 
ENDBRANCH  23  24
ENDBRANCH  22  23
ENDBRANCH  21  22
ENDBRANCH   4  21
TORSDOF 6
ENDMDL
MODEL 6
REMARK VINA RESULT:      -8.2      2.744     10.356
REMARK  6 active torsions:
REMARK  status: ('A' for Active; 'I' for Inactive)
REMARK    1  A    between atoms: C_8  and  N_9 
REMARK       I    between atoms: N_9  and  C_10 
REMARK       I    between atoms: C_10  and  N_11 
REMARK    2  A    between atoms: N_11  and  C_12 
REMARK    3  A    between atoms: C_15  and  O_16 
REMARK    4  A    between atoms: O_16  and  C_17 
REMARK    5  A    between atoms: C_17  and  C_18 
REMARK    6  A    between atoms: C_18  and  C_19 
ROOT
HETATM    1  C   UNL     1      24.629  45.726  50.785  1.00  0.00     0.054 A 
HETATM    2  C   UNL     1      25.007  47.045  51.019  1.00  0.00     0.149 A 
HETATM    3  N   UNL     1      24.617  48.095  50.255  1.00  0.00    -0.235 NA
HETATM    4  C   UNL     1      23.809  47.825  49.212  1.00  0.00     0.164 A 
HETATM    5  C   UNL     1      23.339  46.557  48.918  1.00  0.00     0.060 A 
HETATM    6  C   UNL     1      23.766  45.492  49.712  1.00  0.00     0.035 A 
ENDROOT
BRANCH   1   7
HETATM    7  N   UNL     1      25.112  44.617  51.509  1.00  0.00    -0.307 N 
HETATM    8  C   UNL     1      26.284  43.921  51.253  1.00  0.00     0.325 C 
HETATM    9  N   UNL     1      26.271  42.704  51.905  1.00  0.00    -0.305 N 
HETATM   10  O   UNL     1      27.174  44.321  50.517  1.00  0.00    -0.247 OA
HETATM   11  H   UNL     1      25.359  42.332  52.121  1.00  0.00     0.171 HD
HETATM   12  H   UNL     1      24.629  44.378  52.362  1.00  0.00     0.170 HD
BRANCH   9  13
HETATM   13  C   UNL     1      27.308  41.785  51.915  1.00  0.00     0.086 A 
HETATM   14  C   UNL     1      27.364  40.729  51.024  1.00  0.00     0.052 A 
HETATM   15  C   UNL     1      26.480  40.310  49.912  1.00  0.00     0.072 C 
HETATM   16  N   UNL     1      28.513  40.054  51.320  1.00  0.00    -0.280 N 
HETATM   17  H   UNL     1      28.897  39.235  50.860  1.00  0.00     0.189 HD
HETATM   18  N   UNL     1      29.189  40.564  52.353  1.00  0.00    -0.177 NA
HETATM   19  C   UNL     1      28.464  41.627  52.733  1.00  0.00     0.079 A 
HETATM   20  C   UNL     1      28.922  42.407  53.911  1.00  0.00     0.075 C 
ENDBRANCH   9  13
ENDBRANCH   1   7
BRANCH   4  21
HETATM   21  O   UNL     1      23.428  48.848  48.365  1.00  0.00    -0.334 OA
BRANCH  21  22
HETATM   22  C   UNL     1      22.015  49.089  48.432  1.00  0.00     0.182 C 
BRANCH  22  23
HETATM   23  C   UNL     1      21.744  50.148  49.499  1.00  0.00     0.065 C 
BRANCH  23  24
HETATM   24  C   UNL     1      20.499  50.937  49.178  1.00  0.00    -0.056 A 
HETATM   25  C   UNL     1      19.665  51.391  50.209  1.00  0.00     0.007 A 
HETATM   26  C   UNL     1      18.479  52.064  49.915  1.00  0.00     0.001 A 
HETATM   27  C   UNL     1      18.115  52.287  48.588  1.00  0.00     0.000 A 
HETATM   28  C   UNL     1      18.936  51.838  47.556  1.00  0.00     0.001 A 
HETATM   29  C   UNL     1      20.123  51.165  47.848  1.00  0.00     0.007 A 
ENDBRANCH  23  24
ENDBRANCH  22  23
ENDBRANCH  21  22
ENDBRANCH   4  21
TORSDOF 6
ENDMDL
MODEL 7
REMARK VINA RESULT:      -8.1      2.733     10.444
REMARK  6 active torsions:
REMARK  status: ('A' for Active; 'I' for Inactive)
REMARK    1  A    between atoms: C_8  and  N_9 
REMARK       I    between atoms: N_9  and  C_10 
REMARK       I    between atoms: C_10  and  N_11 
REMARK    2  A    between atoms: N_11  and  C_12 
REMARK    3  A    between atoms: C_15  and  O_16 
REMARK    4  A    between atoms: O_16  and  C_17 
REMARK    5  A    between atoms: C_17  and  C_18 
REMARK    6  A    between atoms: C_18  and  C_19 
ROOT
HETATM    1  C   UNL     1      25.147  46.178  49.849  1.00  0.00     0.054 A 
HETATM    2  C   UNL     1      25.169  47.505  50.266  1.00  0.00     0.149 A 
HETATM    3  N   UNL     1      24.197  48.407  49.985  1.00  0.00    -0.235 NA
HETATM    4  C   UNL     1      23.149  47.970  49.260  1.00  0.00     0.164 A 
HETATM    5  C   UNL     1      23.008  46.661  48.834  1.00  0.00     0.060 A 
HETATM    6  C   UNL     1      24.029  45.756  49.127  1.00  0.00     0.035 A 
ENDROOT
BRANCH   1   7
HETATM    7  N   UNL     1      26.200  45.261  50.047  1.00  0.00    -0.307 N 
HETATM    8  C   UNL     1      26.325  44.376  51.108  1.00  0.00     0.325 C 
HETATM    9  N   UNL     1      27.617  43.895  51.181  1.00  0.00    -0.305 N 
HETATM   10  O   UNL     1      25.422  44.104  51.886  1.00  0.00    -0.247 OA
HETATM   11  H   UNL     1      28.327  44.482  50.771  1.00  0.00     0.171 HD
HETATM   12  H   UNL     1      26.862  45.149  49.294  1.00  0.00     0.170 HD
BRANCH   9  13
HETATM   13  C   UNL     1      28.073  42.947  52.084  1.00  0.00     0.086 A 
HETATM   14  C   UNL     1      28.460  43.282  53.368  1.00  0.00     0.052 A 
HETATM   15  C   UNL     1      28.486  44.567  54.104  1.00  0.00     0.072 C 
HETATM   16  N   UNL     1      28.832  42.109  53.961  1.00  0.00    -0.280 N 
HETATM   17  H   UNL     1      29.154  41.961  54.912  1.00  0.00     0.189 HD
HETATM   18  N   UNL     1      28.753  41.047  53.155  1.00  0.00    -0.177 NA
HETATM   19  C   UNL     1      28.289  41.542  51.997  1.00  0.00     0.079 A 
HETATM   20  C   UNL     1      28.126  40.612  50.850  1.00  0.00     0.075 C 
ENDBRANCH   9  13
ENDBRANCH   1   7
BRANCH   4  21
HETATM   21  O   UNL     1      22.158  48.860  48.894  1.00  0.00    -0.334 OA
BRANCH  21  22
HETATM   22  C   UNL     1      22.378  50.159  49.461  1.00  0.00     0.182 C 
BRANCH  22  23
HETATM   23  C   UNL     1      21.680  51.203  48.592  1.00  0.00     0.065 C 
BRANCH  23  24
HETATM   24  C   UNL     1      20.218  51.313  48.942  1.00  0.00    -0.056 A 
HETATM   25  C   UNL     1      19.447  52.369  48.437  1.00  0.00     0.007 A 
HETATM   26  C   UNL     1      18.110  52.512  48.811  1.00  0.00     0.001 A 
HETATM   27  C   UNL     1      17.533  51.602  49.694  1.00  0.00     0.000 A 
HETATM   28  C   UNL     1      18.290  50.549  50.203  1.00  0.00     0.001 A 
HETATM   29  C   UNL     1      19.628  50.404  49.830  1.00  0.00     0.007 A 
ENDBRANCH  23  24
ENDBRANCH  22  23
ENDBRANCH  21  22
ENDBRANCH   4  21
TORSDOF 6
ENDMDL
MODEL 8
REMARK VINA RESULT:      -8.1      6.263     13.019
REMARK  6 active torsions:
REMARK  status: ('A' for Active; 'I' for Inactive)
REMARK    1  A    between atoms: C_8  and  N_9 
REMARK       I    between atoms: N_9  and  C_10 
REMARK       I    between atoms: C_10  and  N_11 
REMARK    2  A    between atoms: N_11  and  C_12 
REMARK    3  A    between atoms: C_15  and  O_16 
REMARK    4  A    between atoms: O_16  and  C_17 
REMARK    5  A    between atoms: C_17  and  C_18 
REMARK    6  A    between atoms: C_18  and  C_19 
ROOT
HETATM    1  C   UNL     1      20.175  50.065  49.393  1.00  0.00     0.054 A 
HETATM    2  C   UNL     1      19.078  49.982  50.245  1.00  0.00     0.149 A 
HETATM    3  N   UNL     1      18.099  50.917  50.317  1.00  0.00    -0.235 NA
HETATM    4  C   UNL     1      18.209  51.982  49.501  1.00  0.00     0.164 A 
HETATM    5  C   UNL     1      19.235  52.139  48.585  1.00  0.00     0.060 A 
HETATM    6  C   UNL     1      20.237  51.169  48.540  1.00  0.00     0.035 A 
ENDROOT
BRANCH   1   7
HETATM    7  N   UNL     1      21.250  49.153  49.384  1.00  0.00    -0.307 N 
HETATM    8  C   UNL     1      22.581  49.455  49.631  1.00  0.00     0.325 C 
HETATM    9  N   UNL     1      23.394  48.427  49.197  1.00  0.00    -0.305 N 
HETATM   10  O   UNL     1      22.967  50.506  50.123  1.00  0.00    -0.247 OA
HETATM   11  H   UNL     1      23.012  47.843  48.469  1.00  0.00     0.171 HD
HETATM   12  H   UNL     1      21.022  48.172  49.311  1.00  0.00     0.170 HD
BRANCH   9  13
HETATM   13  C   UNL     1      24.772  48.375  49.343  1.00  0.00     0.086 A 
HETATM   14  C   UNL     1      25.386  47.494  50.213  1.00  0.00     0.052 A 
HETATM   15  C   UNL     1      24.857  46.451  51.122  1.00  0.00     0.072 C 
HETATM   16  N   UNL     1      26.727  47.717  50.082  1.00  0.00    -0.280 N 
HETATM   17  H   UNL     1      27.492  47.240  50.549  1.00  0.00     0.189 HD
HETATM   18  N   UNL     1      27.031  48.695  49.224  1.00  0.00    -0.177 NA
HETATM   19  C   UNL     1      25.843  49.112  48.760  1.00  0.00     0.079 A 
HETATM   20  C   UNL     1      25.821  50.246  47.802  1.00  0.00     0.075 C 
ENDBRANCH   9  13
ENDBRANCH   1   7
BRANCH   4  21
HETATM   21  O   UNL     1      17.272  52.994  49.573  1.00  0.00    -0.334 OA
BRANCH  21  22
HETATM   22  C   UNL     1      16.002  52.506  50.026  1.00  0.00     0.182 C 
BRANCH  22  23
HETATM   23  C   UNL     1      14.892  53.245  49.280  1.00  0.00     0.065 C 
BRANCH  23  24
HETATM   24  C   UNL     1      14.078  54.096  50.221  1.00  0.00    -0.056 A 
HETATM   25  C   UNL     1      12.769  54.469  49.884  1.00  0.00     0.007 A 
HETATM   26  C   UNL     1      12.035  55.311  50.721  1.00  0.00     0.001 A 
HETATM   27  C   UNL     1      12.603  55.789  51.900  1.00  0.00     0.000 A 
HETATM   28  C   UNL     1      13.904  55.425  52.244  1.00  0.00     0.001 A 
HETATM   29  C   UNL     1      14.639  54.583  51.409  1.00  0.00     0.007 A 
ENDBRANCH  23  24
ENDBRANCH  22  23
ENDBRANCH  21  22
ENDBRANCH   4  21
TORSDOF 6
ENDMDL
MODEL 9
REMARK VINA RESULT:      -7.9      2.244      2.945
REMARK  6 active torsions:
REMARK  status: ('A' for Active; 'I' for Inactive)
REMARK    1  A    between atoms: C_8  and  N_9 
REMARK       I    between atoms: N_9  and  C_10 
REMARK       I    between atoms: C_10  and  N_11 
REMARK    2  A    between atoms: N_11  and  C_12 
REMARK    3  A    between atoms: C_15  and  O_16 
REMARK    4  A    between atoms: O_16  and  C_17 
REMARK    5  A    between atoms: C_17  and  C_18 
REMARK    6  A    between atoms: C_18  and  C_19 
ROOT
HETATM    1  C   UNL     1      24.900  45.108  50.318  1.00  0.00     0.054 A 
HETATM    2  C   UNL     1      25.942  44.747  49.469  1.00  0.00     0.149 A 
HETATM    3  N   UNL     1      26.972  43.942  49.828  1.00  0.00    -0.235 NA
HETATM    4  C   UNL     1      26.967  43.469  51.089  1.00  0.00     0.164 A 
HETATM    5  C   UNL     1      25.957  43.730  51.999  1.00  0.00     0.060 A 
HETATM    6  C   UNL     1      24.915  44.571  51.607  1.00  0.00     0.035 A 
ENDROOT
BRANCH   1   7
HETATM    7  N   UNL     1      23.882  46.024  49.987  1.00  0.00    -0.307 N 
HETATM    8  C   UNL     1      22.786  45.771  49.176  1.00  0.00     0.325 C 
HETATM    9  N   UNL     1      22.199  46.957  48.780  1.00  0.00    -0.305 N 
HETATM   10  O   UNL     1      22.429  44.654  48.832  1.00  0.00    -0.247 OA
HETATM   11  H   UNL     1      22.800  47.766  48.780  1.00  0.00     0.171 HD
HETATM   12  H   UNL     1      23.879  46.907  50.476  1.00  0.00     0.170 HD
BRANCH   9  13
HETATM   13  C   UNL     1      21.049  47.069  48.014  1.00  0.00     0.086 A 
HETATM   14  C   UNL     1      19.907  47.687  48.488  1.00  0.00     0.052 A 
HETATM   15  C   UNL     1      19.590  48.360  49.769  1.00  0.00     0.072 C 
HETATM   16  N   UNL     1      18.999  47.620  47.470  1.00  0.00    -0.280 N 
HETATM   17  H   UNL     1      18.054  47.989  47.446  1.00  0.00     0.189 HD
HETATM   18  N   UNL     1      19.446  46.975  46.388  1.00  0.00    -0.177 NA
HETATM   19  C   UNL     1      20.703  46.629  46.704  1.00  0.00     0.079 A 
HETATM   20  C   UNL     1      21.484  45.841  45.716  1.00  0.00     0.075 C 
ENDBRANCH   9  13
ENDBRANCH   1   7
BRANCH   4  21
HETATM   21  O   UNL     1      28.022  42.693  51.528  1.00  0.00    -0.334 OA
BRANCH  21  22
HETATM   22  C   UNL     1      28.153  42.739  52.956  1.00  0.00     0.182 C 
BRANCH  22  23
HETATM   23  C   UNL     1      29.631  42.892  53.313  1.00  0.00     0.065 C 
BRANCH  23  24
HETATM   24  C   UNL     1      29.804  43.702  54.573  1.00  0.00    -0.056 A 
HETATM   25  C   UNL     1      28.979  44.806  54.824  1.00  0.00     0.007 A 
HETATM   26  C   UNL     1      29.179  45.597  55.955  1.00  0.00     0.001 A 
HETATM   27  C   UNL     1      30.206  45.293  56.846  1.00  0.00     0.000 A 
HETATM   28  C   UNL     1      31.034  44.197  56.606  1.00  0.00     0.001 A 
HETATM   29  C   UNL     1      30.835  43.404  55.475  1.00  0.00     0.007 A 
ENDBRANCH  23  24
ENDBRANCH  22  23
ENDBRANCH  21  22
ENDBRANCH   4  21
TORSDOF 6
ENDMDL
MODEL 10
REMARK VINA RESULT:      -7.9      2.864      4.036
REMARK  6 active torsions:
REMARK  status: ('A' for Active; 'I' for Inactive)
REMARK    1  A    between atoms: C_8  and  N_9 
REMARK       I    between atoms: N_9  and  C_10 
REMARK       I    between atoms: C_10  and  N_11 
REMARK    2  A    between atoms: N_11  and  C_12 
REMARK    3  A    between atoms: C_15  and  O_16 
REMARK    4  A    between atoms: O_16  and  C_17 
REMARK    5  A    between atoms: C_17  and  C_18 
REMARK    6  A    between atoms: C_18  and  C_19 
ROOT
HETATM    1  C   UNL     1      23.681  44.349  50.215  1.00  0.00     0.054 A 
HETATM    2  C   UNL     1      24.447  45.450  50.585  1.00  0.00     0.149 A 
HETATM    3  N   UNL     1      25.760  45.387  50.915  1.00  0.00    -0.235 NA
HETATM    4  C   UNL     1      26.343  44.173  50.872  1.00  0.00     0.164 A 
HETATM    5  C   UNL     1      25.684  43.023  50.475  1.00  0.00     0.060 A 
HETATM    6  C   UNL     1      24.329  43.114  50.152  1.00  0.00     0.035 A 
ENDROOT
BRANCH   1   7
HETATM    7  N   UNL     1      22.292  44.388  49.971  1.00  0.00    -0.307 N 
HETATM    8  C   UNL     1      21.664  45.056  48.931  1.00  0.00     0.325 C 
HETATM    9  N   UNL     1      20.313  45.184  49.190  1.00  0.00    -0.305 N 
HETATM   10  O   UNL     1      22.243  45.501  47.951  1.00  0.00    -0.247 OA
HETATM   11  H   UNL     1      20.049  45.155  50.163  1.00  0.00     0.171 HD
HETATM   12  H   UNL     1      21.709  43.781  50.528  1.00  0.00     0.170 HD
BRANCH   9  13
HETATM   13  C   UNL     1      19.379  45.746  48.334  1.00  0.00     0.086 A 
HETATM   14  C   UNL     1      18.806  46.980  48.579  1.00  0.00     0.052 A 
HETATM   15  C   UNL     1      18.993  47.974  49.661  1.00  0.00     0.072 C 
HETATM   16  N   UNL     1      17.958  47.209  47.534  1.00  0.00    -0.280 N 
HETATM   17  H   UNL     1      17.380  48.024  47.361  1.00  0.00     0.189 HD
HETATM   18  N   UNL     1      17.906  46.208  46.650  1.00  0.00    -0.177 NA
HETATM   19  C   UNL     1      18.772  45.300  47.125  1.00  0.00     0.079 A 
HETATM   20  C   UNL     1      18.924  44.019  46.388  1.00  0.00     0.075 C 
ENDBRANCH   9  13
ENDBRANCH   1   7
BRANCH   4  21
HETATM   21  O   UNL     1      27.664  44.039  51.255  1.00  0.00    -0.334 OA
BRANCH  21  22
HETATM   22  C   UNL     1      27.822  43.024  52.256  1.00  0.00     0.182 C 
BRANCH  22  23
HETATM   23  C   UNL     1      27.415  43.599  53.612  1.00  0.00     0.065 C 
BRANCH  23  24
HETATM   24  C   UNL     1      28.626  43.934  54.446  1.00  0.00    -0.056 A 
HETATM   25  C   UNL     1      29.656  42.997  54.606  1.00  0.00     0.007 A 
HETATM   26  C   UNL     1      30.747  43.278  55.430  1.00  0.00     0.001 A 
HETATM   27  C   UNL     1      30.817  44.497  56.101  1.00  0.00     0.000 A 
HETATM   28  C   UNL     1      29.798  45.436  55.950  1.00  0.00     0.001 A 
HETATM   29  C   UNL     1      28.706  45.157  55.126  1.00  0.00     0.007 A 
ENDBRANCH  23  24
ENDBRANCH  22  23
ENDBRANCH  21  22
ENDBRANCH   4  21
TORSDOF 6
ENDMDL
