MODEL 1
REMARK VINA RESULT:      -9.8      0.000      0.000
REMARK  7 active torsions:
REMARK  status: ('A' for Active; 'I' for Inactive)
REMARK    1  A    between atoms: O_2  and  C_3 
REMARK    2  A    between atoms: C_5  and  C_6 
REMARK       I    between atoms: C_6  and  N_7 
REMARK    3  A    between atoms: N_7  and  C_8 
REMARK    4  A    between atoms: C_10  and  C_11 
REMARK    5  A    between atoms: C_11  and  C_12 
REMARK    6  A    between atoms: C_12  and  C_13 
REMARK    7  A    between atoms: C_13  and  C_14 
ROOT
HETATM    1  C   UNL     1      26.468  44.816  50.897  1.00  0.00     0.725 A 
HETATM    2  N   UNL     1      27.460  43.962  50.838  1.00  0.00    -0.046 NA
HETATM    3  C   UNL     1      27.146  43.048  51.816  1.00  0.00     0.165 A 
HETATM    4  N   UNL     1      26.008  43.297  52.478  1.00  0.00    -0.144 NA
HETATM    5  N   UNL     1      25.595  44.425  51.876  1.00  0.00    -0.106 N 
HETATM    6  H   UNL     1      24.725  44.878  52.142  1.00  0.00     0.208 HD
ENDROOT
BRANCH   3   7
HETATM    7  C   UNL     1      27.953  41.825  52.075  1.00  0.00     0.083 C 
BRANCH   7   8
HETATM    8  C   UNL     1      28.624  41.805  53.447  1.00  0.00     0.012 C 
BRANCH   8   9
HETATM    9  C   UNL     1      29.791  42.793  53.485  1.00  0.00     0.041 C 
BRANCH   9  10
HETATM   10  C   UNL     1      29.593  43.887  54.485  1.00  0.00    -0.030 A 
HETATM   11  C   UNL     1      30.285  44.052  55.727  1.00  0.00    -0.002 A 
HETATM   12  C   UNL     1      29.768  45.188  56.349  1.00  0.00     0.042 A 
HETATM   13  C   UNL     1      31.305  43.334  56.385  1.00  0.00     0.014 A 
HETATM   14  C   UNL     1      30.214  45.641  57.596  1.00  0.00     0.030 A 
HETATM   15  N   UNL     1      28.803  45.700  55.514  1.00  0.00    -0.365 N 
HETATM   16  C   UNL     1      31.225  44.909  58.227  1.00  0.00     0.002 A 
HETATM   17  C   UNL     1      31.766  43.772  57.632  1.00  0.00     0.001 A 
HETATM   18  H   UNL     1      28.256  46.526  55.711  1.00  0.00     0.165 HD
HETATM   19  C   UNL     1      28.689  44.928  54.390  1.00  0.00     0.096 A 
ENDBRANCH   9  10
ENDBRANCH   8   9
ENDBRANCH   7   8
ENDBRANCH   3   7
BRANCH   1  20
HETATM   20  N   UNL     1      26.315  45.920  50.098  1.00  0.00    -0.152 N 
HETATM   21  C   UNL     1      25.834  47.108  50.603  1.00  0.00     0.270 C 
HETATM   22  O   UNL     1      25.509  47.288  51.773  1.00  0.00    -0.267 OA
HETATM   23  H   UNL     1      26.485  45.775  49.113  1.00  0.00     0.187 HD
BRANCH  21  24
HETATM   24  C   UNL     1      25.681  48.207  49.616  1.00  0.00     0.035 A 
HETATM   25  C   UNL     1      24.388  48.563  49.214  1.00  0.00     0.053 A 
HETATM   26  C   UNL     1      24.193  49.592  48.288  1.00  0.00     0.069 A 
HETATM   27  C   UNL     1      25.299  50.270  47.775  1.00  0.00     0.037 A 
HETATM   28  C   UNL     1      26.591  49.927  48.187  1.00  0.00     0.004 A 
HETATM   29  C   UNL     1      26.786  48.896  49.108  1.00  0.00     0.017 A 
BRANCH  26  30
HETATM   30  O   UNL     1      22.884  49.827  47.969  1.00  0.00    -0.356 OA
HETATM   31  C   UNL     1      22.251  50.929  48.606  1.00  0.00     0.210 C 
ENDBRANCH  26  30
ENDBRANCH  21  24
ENDBRANCH   1  20
TORSDOF 7
ENDMDL
MODEL 2
REMARK VINA RESULT:      -9.5      2.197      4.060
REMARK  7 active torsions:
REMARK  status: ('A' for Active; 'I' for Inactive)
REMARK    1  A    between atoms: O_2  and  C_3 
REMARK    2  A    between atoms: C_5  and  C_6 
REMARK       I    between atoms: C_6  and  N_7 
REMARK    3  A    between atoms: N_7  and  C_8 
REMARK    4  A    between atoms: C_10  and  C_11 
REMARK    5  A    between atoms: C_11  and  C_12 
REMARK    6  A    between atoms: C_12  and  C_13 
REMARK    7  A    between atoms: C_13  and  C_14 
ROOT
HETATM    1  C   UNL     1      24.340  47.655  49.769  1.00  0.00     0.725 A 
HETATM    2  N   UNL     1      24.425  46.381  50.063  1.00  0.00    -0.046 NA
HETATM    3  C   UNL     1      25.757  46.102  49.866  1.00  0.00     0.165 A 
HETATM    4  N   UNL     1      26.498  47.142  49.462  1.00  0.00    -0.144 NA
HETATM    5  N   UNL     1      25.576  48.118  49.409  1.00  0.00    -0.106 N 
HETATM    6  H   UNL     1      25.826  49.067  49.145  1.00  0.00     0.208 HD
ENDROOT
BRANCH   3   7
HETATM    7  C   UNL     1      26.360  44.773  50.155  1.00  0.00     0.083 C 
BRANCH   7   8
HETATM    8  C   UNL     1      26.015  44.225  51.539  1.00  0.00     0.012 C 
BRANCH   8   9
HETATM    9  C   UNL     1      27.267  43.677  52.224  1.00  0.00     0.041 C 
BRANCH   9  10
HETATM   10  C   UNL     1      27.721  44.524  53.370  1.00  0.00    -0.030 A 
HETATM   11  C   UNL     1      28.829  44.270  54.241  1.00  0.00    -0.002 A 
HETATM   12  C   UNL     1      28.871  45.301  55.179  1.00  0.00     0.042 A 
HETATM   13  C   UNL     1      29.800  43.251  54.321  1.00  0.00     0.014 A 
HETATM   14  C   UNL     1      29.831  45.364  56.195  1.00  0.00     0.030 A 
HETATM   15  N   UNL     1      27.834  46.155  54.886  1.00  0.00    -0.365 N 
HETATM   16  C   UNL     1      30.781  44.340  56.253  1.00  0.00     0.002 A 
HETATM   17  C   UNL     1      30.770  43.298  55.330  1.00  0.00     0.001 A 
HETATM   18  H   UNL     1      27.620  46.995  55.405  1.00  0.00     0.165 HD
HETATM   19  C   UNL     1      27.136  45.700  53.801  1.00  0.00     0.096 A 
ENDBRANCH   9  10
ENDBRANCH   8   9
ENDBRANCH   7   8
ENDBRANCH   3   7
BRANCH   1  20
HETATM   20  N   UNL     1      23.199  48.415  49.825  1.00  0.00    -0.152 N 
HETATM   21  C   UNL     1      22.811  49.204  48.765  1.00  0.00     0.270 C 
HETATM   22  O   UNL     1      23.425  49.300  47.706  1.00  0.00    -0.267 OA
HETATM   23  H   UNL     1      22.725  48.428  50.717  1.00  0.00     0.187 HD
BRANCH  21  24
HETATM   24  C   UNL     1      21.579  50.003  48.980  1.00  0.00     0.035 A 
HETATM   25  C   UNL     1      20.667  49.571  49.950  1.00  0.00     0.053 A 
HETATM   26  C   UNL     1      19.493  50.290  50.190  1.00  0.00     0.069 A 
HETATM   27  C   UNL     1      19.242  51.452  49.460  1.00  0.00     0.037 A 
HETATM   28  C   UNL     1      20.159  51.896  48.501  1.00  0.00     0.004 A 
HETATM   29  C   UNL     1      21.329  51.174  48.259  1.00  0.00     0.017 A 
BRANCH  26  30
HETATM   30  O   UNL     1      18.681  49.750  51.149  1.00  0.00    -0.356 OA
HETATM   31  C   UNL     1      18.494  48.342  51.121  1.00  0.00     0.210 C 
ENDBRANCH  26  30
ENDBRANCH  21  24
ENDBRANCH   1  20
TORSDOF 7
ENDMDL
MODEL 3
REMARK VINA RESULT:      -9.4      2.708      4.876
REMARK  7 active torsions:
REMARK  status: ('A' for Active; 'I' for Inactive)
REMARK    1  A    between atoms: O_2  and  C_3 
REMARK    2  A    between atoms: C_5  and  C_6 
REMARK       I    between atoms: C_6  and  N_7 
REMARK    3  A    between atoms: N_7  and  C_8 
REMARK    4  A    between atoms: C_10  and  C_11 
REMARK    5  A    between atoms: C_11  and  C_12 
REMARK    6  A    between atoms: C_12  and  C_13 
REMARK    7  A    between atoms: C_13  and  C_14 
ROOT
HETATM    1  C   UNL     1      23.947  48.607  49.219  1.00  0.00     0.725 A 
HETATM    2  N   UNL     1      24.129  47.580  50.012  1.00  0.00    -0.046 NA
HETATM    3  C   UNL     1      25.497  47.517  50.135  1.00  0.00     0.165 A 
HETATM    4  N   UNL     1      26.169  48.454  49.454  1.00  0.00    -0.144 NA
HETATM    5  N   UNL     1      25.163  49.136  48.880  1.00  0.00    -0.106 N 
HETATM    6  H   UNL     1      25.340  49.947  48.294  1.00  0.00     0.208 HD
ENDROOT
BRANCH   3   7
HETATM    7  C   UNL     1      26.189  46.541  51.019  1.00  0.00     0.083 C 
BRANCH   7   8
HETATM    8  C   UNL     1      26.003  46.816  52.510  1.00  0.00     0.012 C 
BRANCH   8   9
HETATM    9  C   UNL     1      26.261  45.548  53.324  1.00  0.00     0.041 C 
BRANCH   9  10
HETATM   10  C   UNL     1      27.374  45.707  54.310  1.00  0.00    -0.030 A 
HETATM   11  C   UNL     1      28.460  44.802  54.533  1.00  0.00    -0.002 A 
HETATM   12  C   UNL     1      29.245  45.332  55.557  1.00  0.00     0.042 A 
HETATM   13  C   UNL     1      28.848  43.573  53.960  1.00  0.00     0.014 A 
HETATM   14  C   UNL     1      30.394  44.695  56.041  1.00  0.00     0.030 A 
HETATM   15  N   UNL     1      28.663  46.518  55.938  1.00  0.00    -0.365 N 
HETATM   16  C   UNL     1      30.755  43.478  55.455  1.00  0.00     0.002 A 
HETATM   17  C   UNL     1      29.995  42.923  54.428  1.00  0.00     0.001 A 
HETATM   18  H   UNL     1      29.018  47.121  56.666  1.00  0.00     0.165 HD
HETATM   19  C   UNL     1      27.538  46.755  55.196  1.00  0.00     0.096 A 
ENDBRANCH   9  10
ENDBRANCH   8   9
ENDBRANCH   7   8
ENDBRANCH   3   7
BRANCH   1  20
HETATM   20  N   UNL     1      22.733  49.090  48.802  1.00  0.00    -0.152 N 
HETATM   21  C   UNL     1      22.276  50.325  49.206  1.00  0.00     0.270 C 
HETATM   22  O   UNL     1      22.888  51.085  49.951  1.00  0.00    -0.267 OA
HETATM   23  H   UNL     1      22.167  48.448  48.265  1.00  0.00     0.187 HD
BRANCH  21  24
HETATM   24  C   UNL     1      20.928  50.702  48.711  1.00  0.00     0.035 A 
HETATM   25  C   UNL     1      20.087  51.428  49.562  1.00  0.00     0.053 A 
HETATM   26  C   UNL     1      18.809  51.806  49.140  1.00  0.00     0.069 A 
HETATM   27  C   UNL     1      18.383  51.464  47.857  1.00  0.00     0.037 A 
HETATM   28  C   UNL     1      19.228  50.753  46.998  1.00  0.00     0.004 A 
HETATM   29  C   UNL     1      20.501  50.371  47.421  1.00  0.00     0.017 A 
BRANCH  26  30
HETATM   30  O   UNL     1      18.084  52.495  50.073  1.00  0.00    -0.356 OA
HETATM   31  C   UNL     1      16.692  52.645  49.828  1.00  0.00     0.210 C 
ENDBRANCH  26  30
ENDBRANCH  21  24
ENDBRANCH   1  20
TORSDOF 7
ENDMDL
MODEL 4
REMARK VINA RESULT:      -9.1      1.959      3.133
REMARK  7 active torsions:
REMARK  status: ('A' for Active; 'I' for Inactive)
REMARK    1  A    between atoms: O_2  and  C_3 
REMARK    2  A    between atoms: C_5  and  C_6 
REMARK       I    between atoms: C_6  and  N_7 
REMARK    3  A    between atoms: N_7  and  C_8 
REMARK    4  A    between atoms: C_10  and  C_11 
REMARK    5  A    between atoms: C_11  and  C_12 
REMARK    6  A    between atoms: C_12  and  C_13 
REMARK    7  A    between atoms: C_13  and  C_14 
ROOT
HETATM    1  C   UNL     1      24.550  46.091  50.186  1.00  0.00     0.725 A 
HETATM    2  N   UNL     1      24.473  45.314  51.239  1.00  0.00    -0.046 NA
HETATM    3  C   UNL     1      25.682  44.659  51.233  1.00  0.00     0.165 A 
HETATM    4  N   UNL     1      26.501  44.992  50.227  1.00  0.00    -0.144 NA
HETATM    5  N   UNL     1      25.760  45.904  49.575  1.00  0.00    -0.106 N 
HETATM    6  H   UNL     1      26.113  46.379  48.748  1.00  0.00     0.208 HD
ENDROOT
BRANCH   3   7
HETATM    7  C   UNL     1      26.098  43.713  52.303  1.00  0.00     0.083 C 
BRANCH   7   8
HETATM    8  C   UNL     1      26.152  44.338  53.696  1.00  0.00     0.012 C 
BRANCH   8   9
HETATM    9  C   UNL     1      26.993  45.615  53.676  1.00  0.00     0.041 C 
BRANCH   9  10
HETATM   10  C   UNL     1      27.966  45.687  54.810  1.00  0.00    -0.030 A 
HETATM   11  C   UNL     1      29.050  44.789  55.069  1.00  0.00    -0.002 A 
HETATM   12  C   UNL     1      29.679  45.216  56.239  1.00  0.00     0.042 A 
HETATM   13  C   UNL     1      29.555  43.645  54.417  1.00  0.00     0.014 A 
HETATM   14  C   UNL     1      30.782  44.557  56.792  1.00  0.00     0.030 A 
HETATM   15  N   UNL     1      29.008  46.336  56.671  1.00  0.00    -0.365 N 
HETATM   16  C   UNL     1      31.261  43.424  56.127  1.00  0.00     0.002 A 
HETATM   17  C   UNL     1      30.659  42.973  54.955  1.00  0.00     0.001 A 
HETATM   18  H   UNL     1      29.244  46.860  57.501  1.00  0.00     0.165 HD
HETATM   19  C   UNL     1      27.977  46.630  55.820  1.00  0.00     0.096 A 
ENDBRANCH   9  10
ENDBRANCH   8   9
ENDBRANCH   7   8
ENDBRANCH   3   7
BRANCH   1  20
HETATM   20  N   UNL     1      23.581  46.966  49.766  1.00  0.00    -0.152 N 
HETATM   21  C   UNL     1      23.877  48.280  49.481  1.00  0.00     0.270 C 
HETATM   22  O   UNL     1      24.996  48.779  49.572  1.00  0.00    -0.267 OA
HETATM   23  H   UNL     1      22.636  46.609  49.772  1.00  0.00     0.187 HD
BRANCH  21  24
HETATM   24  C   UNL     1      22.724  49.123  49.076  1.00  0.00     0.035 A 
HETATM   25  C   UNL     1      21.469  48.516  48.951  1.00  0.00     0.053 A 
HETATM   26  C   UNL     1      20.353  49.267  48.573  1.00  0.00     0.069 A 
HETATM   27  C   UNL     1      20.498  50.634  48.333  1.00  0.00     0.037 A 
HETATM   28  C   UNL     1      21.748  51.247  48.473  1.00  0.00     0.004 A 
HETATM   29  C   UNL     1      22.863  50.495  48.845  1.00  0.00     0.017 A 
BRANCH  26  30
HETATM   30  O   UNL     1      19.193  48.550  48.471  1.00  0.00    -0.356 OA
HETATM   31  C   UNL     1      19.273  47.151  48.709  1.00  0.00     0.210 C 
ENDBRANCH  26  30
ENDBRANCH  21  24
ENDBRANCH   1  20
TORSDOF 7
ENDMDL
MODEL 5
REMARK VINA RESULT:      -9.0      2.981     10.492
REMARK  7 active torsions:
REMARK  status: ('A' for Active; 'I' for Inactive)
REMARK    1  A    between atoms: O_2  and  C_3 
REMARK    2  A    between atoms: C_5  and  C_6 
REMARK       I    between atoms: C_6  and  N_7 
REMARK    3  A    between atoms: N_7  and  C_8 
REMARK    4  A    between atoms: C_10  and  C_11 
REMARK    5  A    between atoms: C_11  and  C_12 
REMARK    6  A    between atoms: C_12  and  C_13 
REMARK    7  A    between atoms: C_13  and  C_14 
ROOT
HETATM    1  C   UNL     1      25.437  47.143  50.753  1.00  0.00     0.725 A 
HETATM    2  N   UNL     1      25.694  48.216  50.047  1.00  0.00    -0.046 NA
HETATM    3  C   UNL     1      24.592  48.328  49.233  1.00  0.00     0.165 A 
HETATM    4  N   UNL     1      23.667  47.374  49.400  1.00  0.00    -0.144 NA
HETATM    5  N   UNL     1      24.225  46.633  50.372  1.00  0.00    -0.106 N 
HETATM    6  H   UNL     1      23.753  45.817  50.752  1.00  0.00     0.208 HD
ENDROOT
BRANCH   3   7
HETATM    7  C   UNL     1      24.388  49.463  48.293  1.00  0.00     0.083 C 
BRANCH   7   8
HETATM    8  C   UNL     1      23.574  50.615  48.880  1.00  0.00     0.012 C 
BRANCH   8   9
HETATM    9  C   UNL     1      22.290  50.826  48.077  1.00  0.00     0.041 C 
BRANCH   9  10
HETATM   10  C   UNL     1      21.064  50.402  48.820  1.00  0.00    -0.030 A 
HETATM   11  C   UNL     1      19.838  51.133  48.942  1.00  0.00    -0.002 A 
HETATM   12  C   UNL     1      18.978  50.379  49.741  1.00  0.00     0.042 A 
HETATM   13  C   UNL     1      19.381  52.373  48.450  1.00  0.00     0.014 A 
HETATM   14  C   UNL     1      17.686  50.802  50.076  1.00  0.00     0.030 A 
HETATM   15  N   UNL     1      19.651  49.230  50.085  1.00  0.00    -0.365 N 
HETATM   16  C   UNL     1      17.259  52.036  49.575  1.00  0.00     0.002 A 
HETATM   17  C   UNL     1      18.091  52.812  48.772  1.00  0.00     0.001 A 
HETATM   18  H   UNL     1      19.270  48.496  50.664  1.00  0.00     0.165 HD
HETATM   19  C   UNL     1      20.905  49.232  49.538  1.00  0.00     0.096 A 
ENDBRANCH   9  10
ENDBRANCH   8   9
ENDBRANCH   7   8
ENDBRANCH   3   7
BRANCH   1  20
HETATM   20  N   UNL     1      26.242  46.616  51.730  1.00  0.00    -0.152 N 
HETATM   21  C   UNL     1      26.146  47.032  53.039  1.00  0.00     0.270 C 
HETATM   22  O   UNL     1      25.359  47.884  53.444  1.00  0.00    -0.267 OA
HETATM   23  H   UNL     1      26.962  45.983  51.411  1.00  0.00     0.187 HD
BRANCH  21  24
HETATM   24  C   UNL     1      27.107  46.407  53.982  1.00  0.00     0.035 A 
HETATM   25  C   UNL     1      27.541  45.102  53.720  1.00  0.00     0.053 A 
HETATM   26  C   UNL     1      28.446  44.471  54.578  1.00  0.00     0.069 A 
HETATM   27  C   UNL     1      28.924  45.158  55.694  1.00  0.00     0.037 A 
HETATM   28  C   UNL     1      28.505  46.469  55.949  1.00  0.00     0.004 A 
HETATM   29  C   UNL     1      27.597  47.096  55.095  1.00  0.00     0.017 A 
BRANCH  26  30
HETATM   30  O   UNL     1      28.774  43.193  54.218  1.00  0.00    -0.356 OA
HETATM   31  C   UNL     1      30.107  42.966  53.780  1.00  0.00     0.210 C 
ENDBRANCH  26  30
ENDBRANCH  21  24
ENDBRANCH   1  20
TORSDOF 7
ENDMDL
MODEL 6
REMARK VINA RESULT:      -8.9      1.902      2.496
REMARK  7 active torsions:
REMARK  status: ('A' for Active; 'I' for Inactive)
REMARK    1  A    between atoms: O_2  and  C_3 
REMARK    2  A    between atoms: C_5  and  C_6 
REMARK       I    between atoms: C_6  and  N_7 
REMARK    3  A    between atoms: N_7  and  C_8 
REMARK    4  A    between atoms: C_10  and  C_11 
REMARK    5  A    between atoms: C_11  and  C_12 
REMARK    6  A    between atoms: C_12  and  C_13 
REMARK    7  A    between atoms: C_13  and  C_14 
ROOT
HETATM    1  C   UNL     1      24.276  45.500  50.373  1.00  0.00     0.725 A 
HETATM    2  N   UNL     1      25.490  45.007  50.393  1.00  0.00    -0.046 NA
HETATM    3  C   UNL     1      25.289  43.691  50.737  1.00  0.00     0.165 A 
HETATM    4  N   UNL     1      24.009  43.348  50.934  1.00  0.00    -0.144 NA
HETATM    5  N   UNL     1      23.384  44.514  50.695  1.00  0.00    -0.106 N 
HETATM    6  H   UNL     1      22.372  44.590  50.745  1.00  0.00     0.208 HD
ENDROOT
BRANCH   3   7
HETATM    7  C   UNL     1      26.389  42.692  50.808  1.00  0.00     0.083 C 
BRANCH   7   8
HETATM    8  C   UNL     1      27.662  43.220  51.468  1.00  0.00     0.012 C 
BRANCH   8   9
HETATM    9  C   UNL     1      27.710  42.810  52.941  1.00  0.00     0.041 C 
BRANCH   9  10
HETATM   10  C   UNL     1      28.104  43.934  53.844  1.00  0.00    -0.030 A 
HETATM   11  C   UNL     1      29.191  43.946  54.777  1.00  0.00    -0.002 A 
HETATM   12  C   UNL     1      29.176  45.181  55.424  1.00  0.00     0.042 A 
HETATM   13  C   UNL     1      30.187  43.014  55.135  1.00  0.00     0.014 A 
HETATM   14  C   UNL     1      30.102  45.532  56.413  1.00  0.00     0.030 A 
HETATM   15  N   UNL     1      28.125  45.897  54.900  1.00  0.00    -0.365 N 
HETATM   16  C   UNL     1      31.078  44.589  56.750  1.00  0.00     0.002 A 
HETATM   17  C   UNL     1      31.123  43.347  56.120  1.00  0.00     0.001 A 
HETATM   18  H   UNL     1      27.872  46.833  55.184  1.00  0.00     0.165 HD
HETATM   19  C   UNL     1      27.474  45.159  53.950  1.00  0.00     0.096 A 
ENDBRANCH   9  10
ENDBRANCH   8   9
ENDBRANCH   7   8
ENDBRANCH   3   7
BRANCH   1  20
HETATM   20  N   UNL     1      23.943  46.794  50.065  1.00  0.00    -0.152 N 
HETATM   21  C   UNL     1      23.112  47.088  49.007  1.00  0.00     0.270 C 
HETATM   22  O   UNL     1      22.607  46.251  48.263  1.00  0.00    -0.267 OA
HETATM   23  H   UNL     1      24.417  47.508  50.600  1.00  0.00     0.187 HD
BRANCH  21  24
HETATM   24  C   UNL     1      22.871  48.533  48.764  1.00  0.00     0.035 A 
HETATM   25  C   UNL     1      21.605  49.053  49.057  1.00  0.00     0.053 A 
HETATM   26  C   UNL     1      21.330  50.407  48.847  1.00  0.00     0.069 A 
HETATM   27  C   UNL     1      22.333  51.240  48.351  1.00  0.00     0.037 A 
HETATM   28  C   UNL     1      23.605  50.726  48.073  1.00  0.00     0.004 A 
HETATM   29  C   UNL     1      23.877  49.373  48.279  1.00  0.00     0.017 A 
BRANCH  26  30
HETATM   30  O   UNL     1      20.052  50.782  49.156  1.00  0.00    -0.356 OA
HETATM   31  C   UNL     1      19.591  52.015  48.620  1.00  0.00     0.210 C 
ENDBRANCH  26  30
ENDBRANCH  21  24
ENDBRANCH   1  20
TORSDOF 7
ENDMDL
MODEL 7
REMARK VINA RESULT:      -8.8      1.817      2.974
REMARK  7 active torsions:
REMARK  status: ('A' for Active; 'I' for Inactive)
REMARK    1  A    between atoms: O_2  and  C_3 
REMARK    2  A    between atoms: C_5  and  C_6 
REMARK       I    between atoms: C_6  and  N_7 
REMARK    3  A    between atoms: N_7  and  C_8 
REMARK    4  A    between atoms: C_10  and  C_11 
REMARK    5  A    between atoms: C_11  and  C_12 
REMARK    6  A    between atoms: C_12  and  C_13 
REMARK    7  A    between atoms: C_13  and  C_14 
ROOT
HETATM    1  C   UNL     1      25.420  45.675  49.818  1.00  0.00     0.725 A 
HETATM    2  N   UNL     1      25.114  44.586  50.480  1.00  0.00    -0.046 NA
HETATM    3  C   UNL     1      26.324  43.945  50.606  1.00  0.00     0.165 A 
HETATM    4  N   UNL     1      27.362  44.585  50.051  1.00  0.00    -0.144 NA
HETATM    5  N   UNL     1      26.763  45.682  49.557  1.00  0.00    -0.106 N 
HETATM    6  H   UNL     1      27.294  46.402  49.076  1.00  0.00     0.208 HD
ENDROOT
BRANCH   3   7
HETATM    7  C   UNL     1      26.497  42.681  51.369  1.00  0.00     0.083 C 
BRANCH   7   8
HETATM    8  C   UNL     1      27.925  42.443  51.858  1.00  0.00     0.012 C 
BRANCH   8   9
HETATM    9  C   UNL     1      27.931  42.111  53.351  1.00  0.00     0.041 C 
BRANCH   9  10
HETATM   10  C   UNL     1      28.628  43.147  54.174  1.00  0.00    -0.030 A 
HETATM   11  C   UNL     1      28.189  44.487  54.420  1.00  0.00    -0.002 A 
HETATM   12  C   UNL     1      29.154  45.106  55.214  1.00  0.00     0.042 A 
HETATM   13  C   UNL     1      27.057  45.235  54.036  1.00  0.00     0.014 A 
HETATM   14  C   UNL     1      29.049  46.435  55.640  1.00  0.00     0.030 A 
HETATM   15  N   UNL     1      30.140  44.176  55.449  1.00  0.00    -0.365 N 
HETATM   16  C   UNL     1      27.918  47.155  55.243  1.00  0.00     0.002 A 
HETATM   17  C   UNL     1      26.933  46.566  54.454  1.00  0.00     0.001 A 
HETATM   18  H   UNL     1      30.970  44.349  55.997  1.00  0.00     0.165 HD
HETATM   19  C   UNL     1      29.835  42.995  54.829  1.00  0.00     0.096 A 
ENDBRANCH   9  10
ENDBRANCH   8   9
ENDBRANCH   7   8
ENDBRANCH   3   7
BRANCH   1  20
HETATM   20  N   UNL     1      24.541  46.663  49.453  1.00  0.00    -0.152 N 
HETATM   21  C   UNL     1      24.884  47.994  49.538  1.00  0.00     0.270 C 
HETATM   22  O   UNL     1      25.969  48.411  49.934  1.00  0.00    -0.267 OA
HETATM   23  H   UNL     1      23.610  46.354  49.213  1.00  0.00     0.187 HD
BRANCH  21  24
HETATM   24  C   UNL     1      23.821  48.955  49.149  1.00  0.00     0.035 A 
HETATM   25  C   UNL     1      22.485  48.563  49.295  1.00  0.00     0.053 A 
HETATM   26  C   UNL     1      21.449  49.432  48.944  1.00  0.00     0.069 A 
HETATM   27  C   UNL     1      21.758  50.702  48.455  1.00  0.00     0.037 A 
HETATM   28  C   UNL     1      23.092  51.103  48.323  1.00  0.00     0.004 A 
HETATM   29  C   UNL     1      24.126  50.232  48.669  1.00  0.00     0.017 A 
BRANCH  26  30
HETATM   30  O   UNL     1      20.193  48.920  49.119  1.00  0.00    -0.356 OA
HETATM   31  C   UNL     1      19.944  47.622  48.596  1.00  0.00     0.210 C 
ENDBRANCH  26  30
ENDBRANCH  21  24
ENDBRANCH   1  20
TORSDOF 7
ENDMDL
MODEL 8
REMARK VINA RESULT:      -8.6      2.982     10.365
REMARK  7 active torsions:
REMARK  status: ('A' for Active; 'I' for Inactive)
REMARK    1  A    between atoms: O_2  and  C_3 
REMARK    2  A    between atoms: C_5  and  C_6 
REMARK       I    between atoms: C_6  and  N_7 
REMARK    3  A    between atoms: N_7  and  C_8 
REMARK    4  A    between atoms: C_10  and  C_11 
REMARK    5  A    between atoms: C_11  and  C_12 
REMARK    6  A    between atoms: C_12  and  C_13 
REMARK    7  A    between atoms: C_13  and  C_14 
ROOT
HETATM    1  C   UNL     1      25.910  45.297  51.424  1.00  0.00     0.725 A 
HETATM    2  N   UNL     1      25.709  46.461  50.857  1.00  0.00    -0.046 NA
HETATM    3  C   UNL     1      24.483  46.308  50.253  1.00  0.00     0.165 A 
HETATM    4  N   UNL     1      23.919  45.104  50.417  1.00  0.00    -0.144 NA
HETATM    5  N   UNL     1      24.844  44.479  51.165  1.00  0.00    -0.106 N 
HETATM    6  H   UNL     1      24.707  43.525  51.487  1.00  0.00     0.208 HD
ENDROOT
BRANCH   3   7
HETATM    7  C   UNL     1      23.786  47.411  49.539  1.00  0.00     0.083 C 
BRANCH   7   8
HETATM    8  C   UNL     1      22.675  46.939  48.604  1.00  0.00     0.012 C 
BRANCH   8   9
HETATM    9  C   UNL     1      21.989  48.134  47.941  1.00  0.00     0.041 C 
BRANCH   9  10
HETATM   10  C   UNL     1      20.703  48.508  48.605  1.00  0.00    -0.030 A 
HETATM   11  C   UNL     1      20.139  49.820  48.709  1.00  0.00    -0.002 A 
HETATM   12  C   UNL     1      18.949  49.710  49.427  1.00  0.00     0.042 A 
HETATM   13  C   UNL     1      20.536  51.097  48.260  1.00  0.00     0.014 A 
HETATM   14  C   UNL     1      18.136  50.811  49.724  1.00  0.00     0.030 A 
HETATM   15  N   UNL     1      18.789  48.381  49.742  1.00  0.00    -0.365 N 
HETATM   16  C   UNL     1      18.554  52.065  49.269  1.00  0.00     0.002 A 
HETATM   17  C   UNL     1      19.735  52.209  48.545  1.00  0.00     0.001 A 
HETATM   18  H   UNL     1      18.011  48.007  50.265  1.00  0.00     0.165 HD
HETATM   19  C   UNL     1      19.836  47.648  49.253  1.00  0.00     0.096 A 
ENDBRANCH   9  10
ENDBRANCH   8   9
ENDBRANCH   7   8
ENDBRANCH   3   7
BRANCH   1  20
HETATM   20  N   UNL     1      27.007  44.950  52.171  1.00  0.00    -0.152 N 
HETATM   21  C   UNL     1      26.948  44.892  53.546  1.00  0.00     0.270 C 
HETATM   22  O   UNL     1      25.946  45.137  54.211  1.00  0.00    -0.267 OA
HETATM   23  H   UNL     1      27.869  44.835  51.657  1.00  0.00     0.187 HD
BRANCH  21  24
HETATM   24  C   UNL     1      28.220  44.543  54.227  1.00  0.00     0.035 A 
HETATM   25  C   UNL     1      28.626  45.323  55.316  1.00  0.00     0.053 A 
HETATM   26  C   UNL     1      29.815  45.033  55.990  1.00  0.00     0.069 A 
HETATM   27  C   UNL     1      30.592  43.951  55.574  1.00  0.00     0.037 A 
HETATM   28  C   UNL     1      30.180  43.160  54.496  1.00  0.00     0.004 A 
HETATM   29  C   UNL     1      28.995  43.453  53.820  1.00  0.00     0.017 A 
BRANCH  26  30
HETATM   30  O   UNL     1      30.104  45.881  57.024  1.00  0.00    -0.356 OA
HETATM   31  C   UNL     1      30.694  45.309  58.184  1.00  0.00     0.210 C 
ENDBRANCH  26  30
ENDBRANCH  21  24
ENDBRANCH   1  20
TORSDOF 7
ENDMDL
MODEL 9
REMARK VINA RESULT:      -8.5      2.893      9.117
REMARK  7 active torsions:
REMARK  status: ('A' for Active; 'I' for Inactive)
REMARK    1  A    between atoms: O_2  and  C_3 
REMARK    2  A    between atoms: C_5  and  C_6 
REMARK       I    between atoms: C_6  and  N_7 
REMARK    3  A    between atoms: N_7  and  C_8 
REMARK    4  A    between atoms: C_10  and  C_11 
REMARK    5  A    between atoms: C_11  and  C_12 
REMARK    6  A    between atoms: C_12  and  C_13 
REMARK    7  A    between atoms: C_13  and  C_14 
ROOT
HETATM    1  C   UNL     1      25.555  43.458  51.831  1.00  0.00     0.725 A 
HETATM    2  N   UNL     1      24.578  44.228  51.419  1.00  0.00    -0.046 NA
HETATM    3  C   UNL     1      23.915  43.436  50.512  1.00  0.00     0.165 A 
HETATM    4  N   UNL     1      24.437  42.214  50.342  1.00  0.00    -0.144 NA
HETATM    5  N   UNL     1      25.478  42.251  51.192  1.00  0.00    -0.106 N 
HETATM    6  H   UNL     1      26.087  41.447  51.317  1.00  0.00     0.208 HD
ENDROOT
BRANCH   3   7
HETATM    7  C   UNL     1      22.665  43.858  49.827  1.00  0.00     0.083 C 
BRANCH   7   8
HETATM    8  C   UNL     1      22.900  44.644  48.538  1.00  0.00     0.012 C 
BRANCH   8   9
HETATM    9  C   UNL     1      21.945  45.836  48.458  1.00  0.00     0.041 C 
BRANCH   9  10
HETATM   10  C   UNL     1      22.607  47.134  48.793  1.00  0.00    -0.030 A 
HETATM   11  C   UNL     1      22.078  48.448  48.583  1.00  0.00    -0.002 A 
HETATM   12  C   UNL     1      23.038  49.362  49.017  1.00  0.00     0.042 A 
HETATM   13  C   UNL     1      20.868  48.946  48.057  1.00  0.00     0.014 A 
HETATM   14  C   UNL     1      22.853  50.748  48.949  1.00  0.00     0.030 A 
HETATM   15  N   UNL     1      24.108  48.633  49.481  1.00  0.00    -0.365 N 
HETATM   16  C   UNL     1      21.645  51.215  48.421  1.00  0.00     0.002 A 
HETATM   17  C   UNL     1      20.664  50.329  47.983  1.00  0.00     0.001 A 
HETATM   18  H   UNL     1      24.954  49.036  49.857  1.00  0.00     0.165 HD
HETATM   19  C   UNL     1      23.861  47.293  49.352  1.00  0.00     0.096 A 
ENDBRANCH   9  10
ENDBRANCH   8   9
ENDBRANCH   7   8
ENDBRANCH   3   7
BRANCH   1  20
HETATM   20  N   UNL     1      26.501  43.796  52.766  1.00  0.00    -0.152 N 
HETATM   21  C   UNL     1      27.785  43.303  52.697  1.00  0.00     0.270 C 
HETATM   22  O   UNL     1      28.193  42.541  51.824  1.00  0.00    -0.267 OA
HETATM   23  H   UNL     1      26.169  44.344  53.546  1.00  0.00     0.187 HD
BRANCH  21  24
HETATM   24  C   UNL     1      28.690  43.719  53.797  1.00  0.00     0.035 A 
HETATM   25  C   UNL     1      28.357  44.860  54.537  1.00  0.00     0.053 A 
HETATM   26  C   UNL     1      29.177  45.291  55.582  1.00  0.00     0.069 A 
HETATM   27  C   UNL     1      30.329  44.566  55.892  1.00  0.00     0.037 A 
HETATM   28  C   UNL     1      30.656  43.416  55.165  1.00  0.00     0.004 A 
HETATM   29  C   UNL     1      29.839  42.989  54.117  1.00  0.00     0.017 A 
BRANCH  26  30
HETATM   30  O   UNL     1      28.747  46.426  56.211  1.00  0.00    -0.356 OA
HETATM   31  C   UNL     1      27.711  47.165  55.577  1.00  0.00     0.210 C 
ENDBRANCH  26  30
ENDBRANCH  21  24
ENDBRANCH   1  20
TORSDOF 7
ENDMDL
MODEL 10
REMARK VINA RESULT:      -8.4      1.871      2.508
REMARK  7 active torsions:
REMARK  status: ('A' for Active; 'I' for Inactive)
REMARK    1  A    between atoms: O_2  and  C_3 
REMARK    2  A    between atoms: C_5  and  C_6 
REMARK       I    between atoms: C_6  and  N_7 
REMARK    3  A    between atoms: N_7  and  C_8 
REMARK    4  A    between atoms: C_10  and  C_11 
REMARK    5  A    between atoms: C_11  and  C_12 
REMARK    6  A    between atoms: C_12  and  C_13 
REMARK    7  A    between atoms: C_13  and  C_14 
ROOT
HETATM    1  C   UNL     1      26.633  42.897  50.222  1.00  0.00     0.725 A 
HETATM    2  N   UNL     1      27.044  42.814  51.463  1.00  0.00    -0.046 NA
HETATM    3  C   UNL     1      27.810  41.671  51.464  1.00  0.00     0.165 A 
HETATM    4  N   UNL     1      27.889  41.043  50.283  1.00  0.00    -0.144 NA
HETATM    5  N   UNL     1      27.134  41.841  49.509  1.00  0.00    -0.106 N 
HETATM    6  H   UNL     1      27.002  41.647  48.520  1.00  0.00     0.208 HD
ENDROOT
BRANCH   3   7
HETATM    7  C   UNL     1      28.566  41.202  52.655  1.00  0.00     0.083 C 
BRANCH   7   8
HETATM    8  C   UNL     1      28.532  42.174  53.833  1.00  0.00     0.012 C 
BRANCH   8   9
HETATM    9  C   UNL     1      29.287  43.459  53.488  1.00  0.00     0.041 C 
BRANCH   9  10
HETATM   10  C   UNL     1      29.322  44.434  54.621  1.00  0.00    -0.030 A 
HETATM   11  C   UNL     1      30.138  44.358  55.795  1.00  0.00    -0.002 A 
HETATM   12  C   UNL     1      29.830  45.459  56.593  1.00  0.00     0.042 A 
HETATM   13  C   UNL     1      31.111  43.447  56.257  1.00  0.00     0.014 A 
HETATM   14  C   UNL     1      30.440  45.695  57.831  1.00  0.00     0.030 A 
HETATM   15  N   UNL     1      28.869  46.183  55.928  1.00  0.00    -0.365 N 
HETATM   16  C   UNL     1      31.399  44.775  58.266  1.00  0.00     0.002 A 
HETATM   17  C   UNL     1      31.734  43.667  57.491  1.00  0.00     0.001 A 
HETATM   18  H   UNL     1      28.453  47.036  56.273  1.00  0.00     0.165 HD
HETATM   19  C   UNL     1      28.556  45.577  54.741  1.00  0.00     0.096 A 
ENDBRANCH   9  10
ENDBRANCH   8   9
ENDBRANCH   7   8
ENDBRANCH   3   7
BRANCH   1  20
HETATM   20  N   UNL     1      25.838  43.889  49.707  1.00  0.00    -0.152 N 
HETATM   21  C   UNL     1      24.683  44.285  50.345  1.00  0.00     0.270 C 
HETATM   22  O   UNL     1      24.269  43.807  51.397  1.00  0.00    -0.267 OA
HETATM   23  H   UNL     1      26.103  44.235  48.796  1.00  0.00     0.187 HD
BRANCH  21  24
HETATM   24  C   UNL     1      23.900  45.340  49.654  1.00  0.00     0.035 A 
HETATM   25  C   UNL     1      24.157  46.678  49.977  1.00  0.00     0.053 A 
HETATM   26  C   UNL     1      23.447  47.706  49.353  1.00  0.00     0.069 A 
HETATM   27  C   UNL     1      22.484  47.389  48.394  1.00  0.00     0.037 A 
HETATM   28  C   UNL     1      22.236  46.054  48.057  1.00  0.00     0.004 A 
HETATM   29  C   UNL     1      22.943  45.027  48.684  1.00  0.00     0.017 A 
BRANCH  26  30
HETATM   30  O   UNL     1      23.783  48.964  49.771  1.00  0.00    -0.356 OA
HETATM   31  C   UNL     1      23.045  50.048  49.221  1.00  0.00     0.210 C 
ENDBRANCH  26  30
ENDBRANCH  21  24
ENDBRANCH   1  20
TORSDOF 7
ENDMDL
