MODEL 1
REMARK VINA RESULT:      -9.4      0.000      0.000
REMARK  2 active torsions:
REMARK  status: ('A' for Active; 'I' for Inactive)
REMARK    1  A    between atoms: C_4  and  C_5 
REMARK       I    between atoms: C_5  and  N_6 
REMARK    2  A    between atoms: N_6  and  C_7 
ROOT
HETATM    1  C   UNL     1      27.391  43.827  54.114  1.00  0.00     0.277 C 
HETATM    2  N   UNL     1      28.604  44.415  54.385  1.00  0.00    -0.321 N 
HETATM    3  O   UNL     1      26.520  43.446  54.875  1.00  0.00    -0.266 OA
HETATM    4  H   UNL     1      29.250  44.371  53.601  1.00  0.00     0.169 HD
ENDROOT
BRANCH   1   5
HETATM    5  C   UNL     1      27.225  43.590  52.611  1.00  0.00     0.156 A 
HETATM    6  N   UNL     1      27.667  42.444  52.177  1.00  0.00    -0.164 NA
HETATM    7  N   UNL     1      27.568  42.160  50.839  1.00  0.00    -0.238 N 
HETATM    8  C   UNL     1      28.034  40.853  50.417  1.00  0.00     0.183 C 
HETATM    9  C   UNL     1      26.992  43.005  49.896  1.00  0.00     0.274 A 
HETATM   10  C   UNL     1      26.529  44.316  50.388  1.00  0.00     0.046 A 
HETATM   11  O   UNL     1      26.870  42.721  48.707  1.00  0.00    -0.266 OA
HETATM   12  C   UNL     1      26.649  44.628  51.739  1.00  0.00     0.016 A 
HETATM   13  C   UNL     1      25.993  45.248  49.488  1.00  0.00     0.018 A 
HETATM   14  C   UNL     1      26.247  45.890  52.192  1.00  0.00     0.015 A 
HETATM   15  C   UNL     1      25.712  46.821  51.295  1.00  0.00     0.001 A 
HETATM   16  C   UNL     1      25.582  46.499  49.945  1.00  0.00     0.001 A 
ENDBRANCH   1   5
BRANCH   2  17
HETATM   17  C   UNL     1      29.125  44.879  55.607  1.00  0.00     0.047 A 
HETATM   18  C   UNL     1      30.255  44.370  56.300  1.00  0.00     0.019 A 
HETATM   19  C   UNL     1      30.605  44.960  57.525  1.00  0.00     0.044 A 
HETATM   20  C   UNL     1      31.189  43.305  56.111  1.00  0.00     0.033 A 
HETATM   21  N   UNL     1      31.719  44.307  58.006  1.00  0.00    -0.365 N 
HETATM   22  C   UNL     1      29.896  46.019  58.101  1.00  0.00     0.030 A 
HETATM   23  H   UNL     1      32.187  44.537  58.872  1.00  0.00     0.165 HD
HETATM   24  C   UNL     1      32.075  43.296  57.163  1.00  0.00     0.089 A 
HETATM   25  C   UNL     1      28.778  46.493  57.422  1.00  0.00     0.005 A 
HETATM   26  C   UNL     1      28.398  45.931  56.207  1.00  0.00     0.030 A 
ENDBRANCH   2  17
TORSDOF 2
ENDMDL
MODEL 2
REMARK VINA RESULT:      -9.2      2.797      6.858
REMARK  2 active torsions:
REMARK  status: ('A' for Active; 'I' for Inactive)
REMARK    1  A    between atoms: C_4  and  C_5 
REMARK       I    between atoms: C_5  and  N_6 
REMARK    2  A    between atoms: N_6  and  C_7 
ROOT
HETATM    1  C   UNL     1      26.082  45.435  52.105  1.00  0.00     0.277 C 
HETATM    2  N   UNL     1      26.260  45.871  50.814  1.00  0.00    -0.321 N 
HETATM    3  O   UNL     1      25.436  45.924  53.013  1.00  0.00    -0.266 OA
HETATM    4  H   UNL     1      27.061  45.442  50.357  1.00  0.00     0.169 HD
ENDROOT
BRANCH   1   5
HETATM    5  C   UNL     1      26.910  44.176  52.372  1.00  0.00     0.156 A 
HETATM    6  N   UNL     1      26.589  43.135  51.657  1.00  0.00    -0.164 NA
HETATM    7  N   UNL     1      27.274  41.964  51.846  1.00  0.00    -0.238 N 
HETATM    8  C   UNL     1      26.905  40.850  50.993  1.00  0.00     0.183 C 
HETATM    9  C   UNL     1      28.329  41.805  52.739  1.00  0.00     0.274 A 
HETATM   10  C   UNL     1      28.663  42.975  53.573  1.00  0.00     0.046 A 
HETATM   11  O   UNL     1      28.965  40.761  52.869  1.00  0.00    -0.266 OA
HETATM   12  C   UNL     1      27.956  44.163  53.410  1.00  0.00     0.016 A 
HETATM   13  C   UNL     1      29.673  42.877  54.540  1.00  0.00     0.018 A 
HETATM   14  C   UNL     1      28.249  45.256  54.234  1.00  0.00     0.015 A 
HETATM   15  C   UNL     1      29.257  45.159  55.198  1.00  0.00     0.001 A 
HETATM   16  C   UNL     1      29.971  43.972  55.349  1.00  0.00     0.001 A 
ENDBRANCH   1   5
BRANCH   2  17
HETATM   17  C   UNL     1      25.635  46.929  50.127  1.00  0.00     0.047 A 
HETATM   18  C   UNL     1      26.266  48.064  49.554  1.00  0.00     0.019 A 
HETATM   19  C   UNL     1      25.460  49.026  48.925  1.00  0.00     0.044 A 
HETATM   20  C   UNL     1      27.600  48.572  49.468  1.00  0.00     0.033 A 
HETATM   21  N   UNL     1      26.283  50.024  48.450  1.00  0.00    -0.365 N 
HETATM   22  C   UNL     1      24.067  48.928  48.840  1.00  0.00     0.030 A 
HETATM   23  H   UNL     1      25.961  50.839  47.947  1.00  0.00     0.165 HD
HETATM   24  C   UNL     1      27.579  49.765  48.782  1.00  0.00     0.089 A 
HETATM   25  C   UNL     1      23.460  47.822  49.427  1.00  0.00     0.005 A 
HETATM   26  C   UNL     1      24.227  46.849  50.062  1.00  0.00     0.030 A 
ENDBRANCH   2  17
TORSDOF 2
ENDMDL
MODEL 3
REMARK VINA RESULT:      -9.2      3.183      7.569
REMARK  2 active torsions:
REMARK  status: ('A' for Active; 'I' for Inactive)
REMARK    1  A    between atoms: C_4  and  C_5 
REMARK       I    between atoms: C_5  and  N_6 
REMARK    2  A    between atoms: N_6  and  C_7 
ROOT
HETATM    1  C   UNL     1      25.916  46.775  51.860  1.00  0.00     0.277 C 
HETATM    2  N   UNL     1      26.329  47.059  50.580  1.00  0.00    -0.321 N 
HETATM    3  O   UNL     1      25.189  47.406  52.604  1.00  0.00    -0.266 OA
HETATM    4  H   UNL     1      27.147  46.523  50.299  1.00  0.00     0.169 HD
ENDROOT
BRANCH   1   5
HETATM    5  C   UNL     1      26.574  45.491  52.372  1.00  0.00     0.156 A 
HETATM    6  N   UNL     1      26.274  44.410  51.709  1.00  0.00    -0.164 NA
HETATM    7  N   UNL     1      26.811  43.216  52.112  1.00  0.00    -0.238 N 
HETATM    8  C   UNL     1      26.479  42.052  51.313  1.00  0.00     0.183 C 
HETATM    9  C   UNL     1      27.695  43.070  53.177  1.00  0.00     0.274 A 
HETATM   10  C   UNL     1      28.001  44.290  53.946  1.00  0.00     0.046 A 
HETATM   11  O   UNL     1      28.204  42.000  53.502  1.00  0.00    -0.266 OA
HETATM   12  C   UNL     1      27.440  45.505  53.563  1.00  0.00     0.016 A 
HETATM   13  C   UNL     1      28.835  44.216  55.070  1.00  0.00     0.018 A 
HETATM   14  C   UNL     1      27.700  46.653  54.323  1.00  0.00     0.015 A 
HETATM   15  C   UNL     1      28.532  46.579  55.445  1.00  0.00     0.001 A 
HETATM   16  C   UNL     1      29.102  45.362  55.816  1.00  0.00     0.001 A 
ENDBRANCH   1   5
BRANCH   2  17
HETATM   17  C   UNL     1      25.917  48.084  49.708  1.00  0.00     0.047 A 
HETATM   18  C   UNL     1      24.596  48.334  49.252  1.00  0.00     0.019 A 
HETATM   19  C   UNL     1      24.391  49.400  48.361  1.00  0.00     0.044 A 
HETATM   20  C   UNL     1      23.312  47.728  49.420  1.00  0.00     0.033 A 
HETATM   21  N   UNL     1      23.047  49.449  48.061  1.00  0.00    -0.365 N 
HETATM   22  C   UNL     1      25.421  50.223  47.894  1.00  0.00     0.030 A 
HETATM   23  H   UNL     1      22.623  50.129  47.446  1.00  0.00     0.165 HD
HETATM   24  C   UNL     1      22.386  48.435  48.688  1.00  0.00     0.089 A 
HETATM   25  C   UNL     1      26.714  49.951  48.332  1.00  0.00     0.005 A 
HETATM   26  C   UNL     1      26.956  48.901  49.212  1.00  0.00     0.030 A 
ENDBRANCH   2  17
TORSDOF 2
ENDMDL
MODEL 4
REMARK VINA RESULT:      -8.8      2.610      7.683
REMARK  2 active torsions:
REMARK  status: ('A' for Active; 'I' for Inactive)
REMARK    1  A    between atoms: C_4  and  C_5 
REMARK       I    between atoms: C_5  and  N_6 
REMARK    2  A    between atoms: N_6  and  C_7 
ROOT
HETATM    1  C   UNL     1      26.819  44.177  51.143  1.00  0.00     0.277 C 
HETATM    2  N   UNL     1      25.765  43.308  51.295  1.00  0.00    -0.321 N 
HETATM    3  O   UNL     1      27.438  44.487  50.142  1.00  0.00    -0.266 OA
HETATM    4  H   UNL     1      25.625  43.019  52.260  1.00  0.00     0.169 HD
ENDROOT
BRANCH   1   5
HETATM    5  C   UNL     1      27.259  44.740  52.497  1.00  0.00     0.156 A 
HETATM    6  N   UNL     1      26.587  45.775  52.914  1.00  0.00    -0.164 NA
HETATM    7  N   UNL     1      26.928  46.347  54.112  1.00  0.00    -0.238 N 
HETATM    8  C   UNL     1      26.120  47.469  54.549  1.00  0.00     0.183 C 
HETATM    9  C   UNL     1      27.937  45.879  54.949  1.00  0.00     0.274 A 
HETATM   10  C   UNL     1      28.719  44.731  54.453  1.00  0.00     0.046 A 
HETATM   11  O   UNL     1      28.205  46.375  56.041  1.00  0.00    -0.266 OA
HETATM   12  C   UNL     1      28.399  44.158  53.226  1.00  0.00     0.016 A 
HETATM   13  C   UNL     1      29.791  44.239  55.210  1.00  0.00     0.018 A 
HETATM   14  C   UNL     1      29.172  43.095  52.741  1.00  0.00     0.015 A 
HETATM   15  C   UNL     1      30.243  42.604  53.496  1.00  0.00     0.001 A 
HETATM   16  C   UNL     1      30.550  43.172  54.730  1.00  0.00     0.001 A 
ENDBRANCH   1   5
BRANCH   2  17
HETATM   17  C   UNL     1      25.004  42.638  50.318  1.00  0.00     0.047 A 
HETATM   18  C   UNL     1      25.380  41.475  49.596  1.00  0.00     0.019 A 
HETATM   19  C   UNL     1      24.483  40.967  48.642  1.00  0.00     0.044 A 
HETATM   20  C   UNL     1      26.529  40.629  49.524  1.00  0.00     0.033 A 
HETATM   21  N   UNL     1      25.056  39.850  48.074  1.00  0.00    -0.365 N 
HETATM   22  C   UNL     1      23.243  41.551  48.362  1.00  0.00     0.030 A 
HETATM   23  H   UNL     1      24.619  39.284  47.360  1.00  0.00     0.165 HD
HETATM   24  C   UNL     1      26.299  39.642  48.593  1.00  0.00     0.089 A 
HETATM   25  C   UNL     1      22.899  42.703  49.062  1.00  0.00     0.005 A 
HETATM   26  C   UNL     1      23.763  43.238  50.013  1.00  0.00     0.030 A 
ENDBRANCH   2  17
TORSDOF 2
ENDMDL
MODEL 5
REMARK VINA RESULT:      -8.8      1.326      2.751
REMARK  2 active torsions:
REMARK  status: ('A' for Active; 'I' for Inactive)
REMARK    1  A    between atoms: C_4  and  C_5 
REMARK       I    between atoms: C_5  and  N_6 
REMARK    2  A    between atoms: N_6  and  C_7 
ROOT
HETATM    1  C   UNL     1      27.372  43.989  54.164  1.00  0.00     0.277 C 
HETATM    2  N   UNL     1      28.365  44.892  54.462  1.00  0.00    -0.321 N 
HETATM    3  O   UNL     1      26.906  43.090  54.839  1.00  0.00    -0.266 OA
HETATM    4  H   UNL     1      28.754  45.341  53.636  1.00  0.00     0.169 HD
ENDROOT
BRANCH   1   5
HETATM    5  C   UNL     1      26.888  44.169  52.723  1.00  0.00     0.156 A 
HETATM    6  N   UNL     1      26.195  45.250  52.501  1.00  0.00    -0.164 NA
HETATM    7  N   UNL     1      25.712  45.479  51.238  1.00  0.00    -0.238 N 
HETATM    8  C   UNL     1      24.984  46.718  51.036  1.00  0.00     0.183 C 
HETATM    9  C   UNL     1      25.936  44.645  50.147  1.00  0.00     0.274 A 
HETATM   10  C   UNL     1      26.688  43.405  50.414  1.00  0.00     0.046 A 
HETATM   11  O   UNL     1      25.534  44.883  49.010  1.00  0.00    -0.266 OA
HETATM   12  C   UNL     1      27.161  43.148  51.698  1.00  0.00     0.016 A 
HETATM   13  C   UNL     1      26.903  42.484  49.380  1.00  0.00     0.018 A 
HETATM   14  C   UNL     1      27.837  41.949  51.954  1.00  0.00     0.015 A 
HETATM   15  C   UNL     1      28.052  41.029  50.922  1.00  0.00     0.001 A 
HETATM   16  C   UNL     1      27.589  41.297  49.636  1.00  0.00     0.001 A 
ENDBRANCH   1   5
BRANCH   2  17
HETATM   17  C   UNL     1      29.026  45.132  55.681  1.00  0.00     0.047 A 
HETATM   18  C   UNL     1      30.161  44.444  56.184  1.00  0.00     0.019 A 
HETATM   19  C   UNL     1      30.664  44.821  57.440  1.00  0.00     0.044 A 
HETATM   20  C   UNL     1      30.980  43.352  55.760  1.00  0.00     0.033 A 
HETATM   21  N   UNL     1      31.753  44.025  57.717  1.00  0.00    -0.365 N 
HETATM   22  C   UNL     1      30.100  45.834  58.224  1.00  0.00     0.030 A 
HETATM   23  H   UNL     1      32.311  44.090  58.557  1.00  0.00     0.165 HD
HETATM   24  C   UNL     1      31.948  43.125  56.712  1.00  0.00     0.089 A 
HETATM   25  C   UNL     1      28.974  46.484  57.728  1.00  0.00     0.005 A 
HETATM   26  C   UNL     1      28.446  46.135  56.488  1.00  0.00     0.030 A 
ENDBRANCH   2  17
TORSDOF 2
ENDMDL
MODEL 6
REMARK VINA RESULT:      -8.7      6.196     10.293
REMARK  2 active torsions:
REMARK  status: ('A' for Active; 'I' for Inactive)
REMARK    1  A    between atoms: C_4  and  C_5 
REMARK       I    between atoms: C_5  and  N_6 
REMARK    2  A    between atoms: N_6  and  C_7 
ROOT
HETATM    1  C   UNL     1      22.419  48.219  48.574  1.00  0.00     0.277 C 
HETATM    2  N   UNL     1      21.652  48.835  49.533  1.00  0.00    -0.321 N 
HETATM    3  O   UNL     1      22.200  48.048  47.389  1.00  0.00    -0.266 OA
HETATM    4  H   UNL     1      21.930  48.592  50.481  1.00  0.00     0.169 HD
ENDROOT
BRANCH   1   5
HETATM    5  C   UNL     1      23.689  47.628  49.191  1.00  0.00     0.156 A 
HETATM    6  N   UNL     1      23.523  46.517  49.851  1.00  0.00    -0.164 NA
HETATM    7  N   UNL     1      24.610  45.931  50.446  1.00  0.00    -0.238 N 
HETATM    8  C   UNL     1      24.375  44.674  51.130  1.00  0.00     0.183 C 
HETATM    9  C   UNL     1      25.909  46.423  50.371  1.00  0.00     0.274 A 
HETATM   10  C   UNL     1      26.085  47.701  49.655  1.00  0.00     0.046 A 
HETATM   11  O   UNL     1      26.882  45.865  50.872  1.00  0.00    -0.266 OA
HETATM   12  C   UNL     1      24.984  48.320  49.069  1.00  0.00     0.016 A 
HETATM   13  C   UNL     1      27.353  48.293  49.587  1.00  0.00     0.018 A 
HETATM   14  C   UNL     1      25.150  49.554  48.428  1.00  0.00     0.015 A 
HETATM   15  C   UNL     1      26.416  50.146  48.360  1.00  0.00     0.001 A 
HETATM   16  C   UNL     1      27.517  49.515  48.936  1.00  0.00     0.001 A 
ENDBRANCH   1   5
BRANCH   2  17
HETATM   17  C   UNL     1      20.460  49.572  49.396  1.00  0.00     0.047 A 
HETATM   18  C   UNL     1      19.163  49.055  49.144  1.00  0.00     0.019 A 
HETATM   19  C   UNL     1      18.098  49.962  49.018  1.00  0.00     0.044 A 
HETATM   20  C   UNL     1      18.590  47.765  48.918  1.00  0.00     0.033 A 
HETATM   21  N   UNL     1      16.951  49.238  48.779  1.00  0.00    -0.365 N 
HETATM   22  C   UNL     1      18.252  51.349  49.120  1.00  0.00     0.030 A 
HETATM   23  H   UNL     1      16.034  49.645  48.656  1.00  0.00     0.165 HD
HETATM   24  C   UNL     1      17.238  47.908  48.706  1.00  0.00     0.089 A 
HETATM   25  C   UNL     1      19.533  51.843  49.344  1.00  0.00     0.005 A 
HETATM   26  C   UNL     1      20.613  50.974  49.471  1.00  0.00     0.030 A 
ENDBRANCH   2  17
TORSDOF 2
ENDMDL
MODEL 7
REMARK VINA RESULT:      -8.6      6.883      9.848
REMARK  2 active torsions:
REMARK  status: ('A' for Active; 'I' for Inactive)
REMARK    1  A    between atoms: C_4  and  C_5 
REMARK       I    between atoms: C_5  and  N_6 
REMARK    2  A    between atoms: N_6  and  C_7 
ROOT
HETATM    1  C   UNL     1      21.840  47.890  48.126  1.00  0.00     0.277 C 
HETATM    2  N   UNL     1      22.511  48.113  49.305  1.00  0.00    -0.321 N 
HETATM    3  O   UNL     1      22.266  47.564  47.034  1.00  0.00    -0.266 OA
HETATM    4  H   UNL     1      21.964  48.643  49.979  1.00  0.00     0.169 HD
ENDROOT
BRANCH   1   5
HETATM    5  C   UNL     1      20.347  48.188  48.285  1.00  0.00     0.156 A 
HETATM    6  N   UNL     1      19.564  47.148  48.234  1.00  0.00    -0.164 NA
HETATM    7  N   UNL     1      18.211  47.331  48.355  1.00  0.00    -0.238 N 
HETATM    8  C   UNL     1      17.389  46.136  48.334  1.00  0.00     0.183 C 
HETATM    9  C   UNL     1      17.599  48.563  48.564  1.00  0.00     0.274 A 
HETATM   10  C   UNL     1      18.488  49.741  48.583  1.00  0.00     0.046 A 
HETATM   11  O   UNL     1      16.388  48.710  48.714  1.00  0.00    -0.266 OA
HETATM   12  C   UNL     1      19.861  49.571  48.434  1.00  0.00     0.016 A 
HETATM   13  C   UNL     1      17.942  51.024  48.728  1.00  0.00     0.018 A 
HETATM   14  C   UNL     1      20.695  50.695  48.410  1.00  0.00     0.015 A 
HETATM   15  C   UNL     1      20.151  51.976  48.555  1.00  0.00     0.001 A 
HETATM   16  C   UNL     1      18.777  52.140  48.717  1.00  0.00     0.001 A 
ENDBRANCH   1   5
BRANCH   2  17
HETATM   17  C   UNL     1      23.862  47.888  49.627  1.00  0.00     0.047 A 
HETATM   18  C   UNL     1      24.980  48.645  49.188  1.00  0.00     0.019 A 
HETATM   19  C   UNL     1      26.260  48.244  49.606  1.00  0.00     0.044 A 
HETATM   20  C   UNL     1      25.196  49.769  48.331  1.00  0.00     0.033 A 
HETATM   21  N   UNL     1      27.176  49.118  49.062  1.00  0.00    -0.365 N 
HETATM   22  C   UNL     1      26.490  47.134  50.425  1.00  0.00     0.030 A 
HETATM   23  H   UNL     1      28.174  49.065  49.210  1.00  0.00     0.165 HD
HETATM   24  C   UNL     1      26.543  50.039  48.280  1.00  0.00     0.089 A 
HETATM   25  C   UNL     1      25.387  46.388  50.828  1.00  0.00     0.005 A 
HETATM   26  C   UNL     1      24.104  46.753  50.432  1.00  0.00     0.030 A 
ENDBRANCH   2  17
TORSDOF 2
ENDMDL
MODEL 8
REMARK VINA RESULT:      -8.5      2.408      7.659
REMARK  2 active torsions:
REMARK  status: ('A' for Active; 'I' for Inactive)
REMARK    1  A    between atoms: C_4  and  C_5 
REMARK       I    between atoms: C_5  and  N_6 
REMARK    2  A    between atoms: N_6  and  C_7 
ROOT
HETATM    1  C   UNL     1      27.463  43.981  51.512  1.00  0.00     0.277 C 
HETATM    2  N   UNL     1      27.114  42.668  51.722  1.00  0.00    -0.321 N 
HETATM    3  O   UNL     1      27.685  44.574  50.473  1.00  0.00    -0.266 OA
HETATM    4  H   UNL     1      27.267  42.365  52.681  1.00  0.00     0.169 HD
ENDROOT
BRANCH   1   5
HETATM    5  C   UNL     1      27.646  44.714  52.844  1.00  0.00     0.156 A 
HETATM    6  N   UNL     1      26.834  45.713  53.045  1.00  0.00    -0.164 NA
HETATM    7  N   UNL     1      26.942  46.430  54.208  1.00  0.00    -0.238 N 
HETATM    8  C   UNL     1      25.985  47.503  54.400  1.00  0.00     0.183 C 
HETATM    9  C   UNL     1      27.850  46.149  55.225  1.00  0.00     0.274 A 
HETATM   10  C   UNL     1      28.791  45.042  54.974  1.00  0.00     0.046 A 
HETATM   11  O   UNL     1      27.908  46.773  56.282  1.00  0.00    -0.266 OA
HETATM   12  C   UNL     1      28.709  44.323  53.785  1.00  0.00     0.016 A 
HETATM   13  C   UNL     1      29.776  44.736  55.923  1.00  0.00     0.018 A 
HETATM   14  C   UNL     1      29.633  43.301  53.534  1.00  0.00     0.015 A 
HETATM   15  C   UNL     1      30.616  42.995  54.481  1.00  0.00     0.001 A 
HETATM   16  C   UNL     1      30.685  43.709  55.676  1.00  0.00     0.001 A 
ENDBRANCH   1   5
BRANCH   2  17
HETATM   17  C   UNL     1      26.770  41.669  50.792  1.00  0.00     0.047 A 
HETATM   18  C   UNL     1      25.602  41.620  49.987  1.00  0.00     0.019 A 
HETATM   19  C   UNL     1      25.431  40.520  49.131  1.00  0.00     0.044 A 
HETATM   20  C   UNL     1      24.426  42.416  49.821  1.00  0.00     0.033 A 
HETATM   21  N   UNL     1      24.240  40.688  48.459  1.00  0.00    -0.365 N 
HETATM   22  C   UNL     1      26.348  39.468  49.034  1.00  0.00     0.030 A 
HETATM   23  H   UNL     1      23.875  40.043  47.771  1.00  0.00     0.165 HD
HETATM   24  C   UNL     1      23.618  41.827  48.877  1.00  0.00     0.089 A 
HETATM   25  C   UNL     1      27.477  39.519  49.846  1.00  0.00     0.005 A 
HETATM   26  C   UNL     1      27.679  40.592  50.709  1.00  0.00     0.030 A 
ENDBRANCH   2  17
TORSDOF 2
ENDMDL
MODEL 9
REMARK VINA RESULT:      -8.5      2.343      3.521
REMARK  2 active torsions:
REMARK  status: ('A' for Active; 'I' for Inactive)
REMARK    1  A    between atoms: C_4  and  C_5 
REMARK       I    between atoms: C_5  and  N_6 
REMARK    2  A    between atoms: N_6  and  C_7 
ROOT
HETATM    1  C   UNL     1      25.583  44.092  52.666  1.00  0.00     0.277 C 
HETATM    2  N   UNL     1      26.921  43.935  52.394  1.00  0.00    -0.321 N 
HETATM    3  O   UNL     1      24.997  44.089  53.733  1.00  0.00    -0.266 OA
HETATM    4  H   UNL     1      27.103  43.695  51.422  1.00  0.00     0.169 HD
ENDROOT
BRANCH   1   5
HETATM    5  C   UNL     1      24.776  44.214  51.371  1.00  0.00     0.156 A 
HETATM    6  N   UNL     1      24.365  43.086  50.863  1.00  0.00    -0.164 NA
HETATM    7  N   UNL     1      23.647  43.108  49.696  1.00  0.00    -0.238 N 
HETATM    8  C   UNL     1      23.178  41.829  49.199  1.00  0.00     0.183 C 
HETATM    9  C   UNL     1      23.287  44.267  49.015  1.00  0.00     0.274 A 
HETATM   10  C   UNL     1      23.787  45.537  49.574  1.00  0.00     0.046 A 
HETATM   11  O   UNL     1      22.606  44.276  47.993  1.00  0.00    -0.266 OA
HETATM   12  C   UNL     1      24.541  45.526  50.744  1.00  0.00     0.016 A 
HETATM   13  C   UNL     1      23.519  46.744  48.913  1.00  0.00     0.018 A 
HETATM   14  C   UNL     1      25.048  46.731  51.247  1.00  0.00     0.015 A 
HETATM   15  C   UNL     1      24.781  47.935  50.587  1.00  0.00     0.001 A 
HETATM   16  C   UNL     1      24.015  47.942  49.423  1.00  0.00     0.001 A 
ENDBRANCH   1   5
BRANCH   2  17
HETATM   17  C   UNL     1      28.017  43.870  53.275  1.00  0.00     0.047 A 
HETATM   18  C   UNL     1      28.307  44.762  54.341  1.00  0.00     0.019 A 
HETATM   19  C   UNL     1      29.468  44.538  55.098  1.00  0.00     0.044 A 
HETATM   20  C   UNL     1      27.727  45.952  54.880  1.00  0.00     0.033 A 
HETATM   21  N   UNL     1      29.540  45.518  56.063  1.00  0.00    -0.365 N 
HETATM   22  C   UNL     1      30.358  43.487  54.851  1.00  0.00     0.030 A 
HETATM   23  H   UNL     1      30.276  45.589  56.752  1.00  0.00     0.165 HD
HETATM   24  C   UNL     1      28.497  46.386  55.934  1.00  0.00     0.089 A 
HETATM   25  C   UNL     1      30.073  42.635  53.789  1.00  0.00     0.005 A 
HETATM   26  C   UNL     1      28.932  42.827  53.015  1.00  0.00     0.030 A 
ENDBRANCH   2  17
TORSDOF 2
ENDMDL
MODEL 10
REMARK VINA RESULT:      -8.5      2.893      7.230
REMARK  2 active torsions:
REMARK  status: ('A' for Active; 'I' for Inactive)
REMARK    1  A    between atoms: C_4  and  C_5 
REMARK       I    between atoms: C_5  and  N_6 
REMARK    2  A    between atoms: N_6  and  C_7 
ROOT
HETATM    1  C   UNL     1      25.511  44.539  51.779  1.00  0.00     0.277 C 
HETATM    2  N   UNL     1      25.857  45.290  50.681  1.00  0.00    -0.321 N 
HETATM    3  O   UNL     1      24.583  44.671  52.555  1.00  0.00    -0.266 OA
HETATM    4  H   UNL     1      26.818  45.141  50.384  1.00  0.00     0.169 HD
ENDROOT
BRANCH   1   5
HETATM    5  C   UNL     1      26.542  43.436  52.029  1.00  0.00     0.156 A 
HETATM    6  N   UNL     1      26.378  42.351  51.327  1.00  0.00    -0.164 NA
HETATM    7  N   UNL     1      27.252  41.309  51.503  1.00  0.00    -0.238 N 
HETATM    8  C   UNL     1      27.048  40.143  50.665  1.00  0.00     0.183 C 
HETATM    9  C   UNL     1      28.341  41.334  52.367  1.00  0.00     0.274 A 
HETATM   10  C   UNL     1      28.500  42.550  53.187  1.00  0.00     0.046 A 
HETATM   11  O   UNL     1      29.143  40.410  52.484  1.00  0.00    -0.266 OA
HETATM   12  C   UNL     1      27.603  43.604  53.037  1.00  0.00     0.016 A 
HETATM   13  C   UNL     1      29.538  42.627  54.126  1.00  0.00     0.018 A 
HETATM   14  C   UNL     1      27.734  44.738  53.849  1.00  0.00     0.015 A 
HETATM   15  C   UNL     1      28.769  44.816  54.786  1.00  0.00     0.001 A 
HETATM   16  C   UNL     1      29.672  43.764  54.922  1.00  0.00     0.001 A 
ENDBRANCH   1   5
BRANCH   2  17
HETATM   17  C   UNL     1      25.159  46.338  50.051  1.00  0.00     0.047 A 
HETATM   18  C   UNL     1      23.891  46.257  49.417  1.00  0.00     0.019 A 
HETATM   19  C   UNL     1      23.369  47.418  48.824  1.00  0.00     0.044 A 
HETATM   20  C   UNL     1      22.934  45.230  49.147  1.00  0.00     0.033 A 
HETATM   21  N   UNL     1      22.145  47.101  48.278  1.00  0.00    -0.365 N 
HETATM   22  C   UNL     1      24.036  48.648  48.820  1.00  0.00     0.030 A 
HETATM   23  H   UNL     1      21.547  47.757  47.795  1.00  0.00     0.165 HD
HETATM   24  C   UNL     1      21.876  45.777  48.457  1.00  0.00     0.089 A 
HETATM   25  C   UNL     1      25.287  48.706  49.426  1.00  0.00     0.005 A 
HETATM   26  C   UNL     1      25.839  47.575  50.021  1.00  0.00     0.030 A 
ENDBRANCH   2  17
TORSDOF 2
ENDMDL
