MODEL 1
REMARK VINA RESULT:      -8.6      0.000      0.000
REMARK  4 active torsions:
REMARK  status: ('A' for Active; 'I' for Inactive)
REMARK    1  A    between atoms: C_9  and  N_10 
REMARK    2  A    between atoms: N_10  and  C_12 
REMARK    3  A    between atoms: C_12  and  C_13 
REMARK    4  A    between atoms: C_14  and  C_15 
ROOT
HETATM    1  C   UNL     1      26.284  43.902  51.517  1.00  0.00     0.016 A 
HETATM    2  C   UNL     1      26.308  44.596  50.264  1.00  0.00     0.096 A 
HETATM    3  N   UNL     1      26.760  43.802  49.287  1.00  0.00    -0.174 NA
HETATM    4  N   UNL     1      27.018  42.632  49.874  1.00  0.00    -0.288 N 
HETATM    5  H   UNL     1      27.369  41.871  49.296  1.00  0.00     0.188 HD
HETATM    6  C   UNL     1      26.735  42.630  51.211  1.00  0.00     0.120 A 
ENDROOT
BRANCH   1   7
HETATM    7  C   UNL     1      25.778  44.436  52.813  1.00  0.00     0.277 C 
BRANCH   7   8
HETATM    8  N   UNL     1      26.554  45.617  53.367  1.00  0.00    -0.065 N 
HETATM    9  H   UNL     1      27.340  45.801  52.735  1.00  0.00     0.280 HD
HETATM   10  C   UNL     1      25.681  46.846  53.459  1.00  0.00     0.270 C 
BRANCH   8  11
HETATM   11  C   UNL     1      27.006  45.283  54.762  1.00  0.00     0.205 C 
HETATM   12  C   UNL     1      28.249  46.126  55.360  1.00  0.00     0.008 C 
HETATM   13  C   UNL     1      28.286  46.194  56.893  1.00  0.00     0.020 C 
HETATM   14  C   UNL     1      28.593  47.501  54.786  1.00  0.00     0.020 C 
HETATM   15  C   UNL     1      29.108  45.030  54.715  1.00  0.00     0.137 C 
HETATM   16  C   UNL     1      27.940  44.027  54.917  1.00  0.00     0.049 C 
HETATM   17  O   UNL     1      30.266  44.393  55.254  1.00  0.00    -0.385 OA
HETATM   18  C   UNL     1      28.723  42.905  54.240  1.00  0.00     0.035 C 
HETATM   19  C   UNL     1      30.099  42.984  54.962  1.00  0.00     0.168 C 
ENDBRANCH   8  11
ENDBRANCH   7   8
ENDBRANCH   1   7
BRANCH   2  20
HETATM   20  C   UNL     1      25.863  45.955  49.967  1.00  0.00    -0.002 A 
HETATM   21  C   UNL     1      24.508  46.243  49.766  1.00  0.00     0.053 A 
HETATM   22  C   UNL     1      24.112  47.538  49.428  1.00  0.00     0.103 A 
HETATM   23  C   UNL     1      25.063  48.552  49.288  1.00  0.00     0.102 A 
HETATM   24  O   UNL     1      22.769  47.734  49.233  1.00  0.00    -0.346 OA
HETATM   25  O   UNL     1      24.745  49.834  48.926  1.00  0.00    -0.346 OA
HETATM   26  C   UNL     1      26.407  48.284  49.532  1.00  0.00     0.040 A 
HETATM   27  C   UNL     1      23.416  49.926  48.403  1.00  0.00     0.202 C 
HETATM   28  C   UNL     1      22.442  49.132  49.258  1.00  0.00     0.202 C 
HETATM   29  C   UNL     1      26.807  46.988  49.869  1.00  0.00     0.017 A 
ENDBRANCH   2  20
TORSDOF 4
ENDMDL
MODEL 2
REMARK VINA RESULT:      -8.2      3.054      8.434
REMARK  4 active torsions:
REMARK  status: ('A' for Active; 'I' for Inactive)
REMARK    1  A    between atoms: C_9  and  N_10 
REMARK    2  A    between atoms: N_10  and  C_12 
REMARK    3  A    between atoms: C_12  and  C_13 
REMARK    4  A    between atoms: C_14  and  C_15 
ROOT
HETATM    1  C   UNL     1      24.971  48.806  49.065  1.00  0.00     0.016 A 
HETATM    2  C   UNL     1      26.145  48.050  49.383  1.00  0.00     0.096 A 
HETATM    3  N   UNL     1      27.228  48.587  48.811  1.00  0.00    -0.174 NA
HETATM    4  N   UNL     1      26.784  49.656  48.147  1.00  0.00    -0.288 N 
HETATM    5  H   UNL     1      27.461  50.222  47.640  1.00  0.00     0.188 HD
HETATM    6  C   UNL     1      25.437  49.845  48.277  1.00  0.00     0.120 A 
ENDROOT
BRANCH   1   7
HETATM    7  C   UNL     1      23.594  48.556  49.575  1.00  0.00     0.277 C 
BRANCH   7   8
HETATM    8  N   UNL     1      22.673  47.833  48.610  1.00  0.00    -0.065 N 
HETATM    9  H   UNL     1      22.878  48.174  47.664  1.00  0.00     0.280 HD
HETATM   10  C   UNL     1      22.891  46.340  48.666  1.00  0.00     0.270 C 
BRANCH   8  11
HETATM   11  C   UNL     1      21.248  48.093  49.016  1.00  0.00     0.205 C 
HETATM   12  C   UNL     1      20.130  48.076  47.850  1.00  0.00     0.008 C 
HETATM   13  C   UNL     1      18.713  47.748  48.340  1.00  0.00     0.020 C 
HETATM   14  C   UNL     1      20.395  47.332  46.540  1.00  0.00     0.020 C 
HETATM   15  C   UNL     1      20.465  49.567  47.713  1.00  0.00     0.137 C 
HETATM   16  C   UNL     1      20.839  49.598  49.220  1.00  0.00     0.049 C 
HETATM   17  O   UNL     1      19.562  50.654  47.513  1.00  0.00    -0.385 OA
HETATM   18  C   UNL     1      21.237  51.069  49.140  1.00  0.00     0.035 C 
HETATM   19  C   UNL     1      20.017  51.699  48.407  1.00  0.00     0.168 C 
ENDBRANCH   8  11
ENDBRANCH   7   8
ENDBRANCH   1   7
BRANCH   2  20
HETATM   20  C   UNL     1      26.268  46.884  50.253  1.00  0.00    -0.002 A 
HETATM   21  C   UNL     1      25.848  46.931  51.588  1.00  0.00     0.053 A 
HETATM   22  C   UNL     1      26.027  45.822  52.415  1.00  0.00     0.103 A 
HETATM   23  C   UNL     1      26.627  44.661  51.920  1.00  0.00     0.102 A 
HETATM   24  O   UNL     1      25.602  45.953  53.712  1.00  0.00    -0.346 OA
HETATM   25  O   UNL     1      26.863  43.551  52.686  1.00  0.00    -0.346 OA
HETATM   26  C   UNL     1      27.006  44.591  50.582  1.00  0.00     0.040 A 
HETATM   27  C   UNL     1      26.731  43.831  54.084  1.00  0.00     0.202 C 
HETATM   28  C   UNL     1      25.494  44.672  54.353  1.00  0.00     0.202 C 
HETATM   29  C   UNL     1      26.828  45.700  49.750  1.00  0.00     0.017 A 
ENDBRANCH   2  20
TORSDOF 4
ENDMDL
MODEL 3
REMARK VINA RESULT:      -8.1      2.088      6.985
REMARK  4 active torsions:
REMARK  status: ('A' for Active; 'I' for Inactive)
REMARK    1  A    between atoms: C_9  and  N_10 
REMARK    2  A    between atoms: N_10  and  C_12 
REMARK    3  A    between atoms: C_12  and  C_13 
REMARK    4  A    between atoms: C_14  and  C_15 
ROOT
HETATM    1  C   UNL     1      27.431  41.968  51.978  1.00  0.00     0.016 A 
HETATM    2  C   UNL     1      28.626  41.919  52.767  1.00  0.00     0.096 A 
HETATM    3  N   UNL     1      29.372  40.858  52.439  1.00  0.00    -0.174 NA
HETATM    4  N   UNL     1      28.696  40.237  51.471  1.00  0.00    -0.288 N 
HETATM    5  H   UNL     1      29.101  39.396  51.066  1.00  0.00     0.188 HD
HETATM    6  C   UNL     1      27.530  40.869  51.142  1.00  0.00     0.120 A 
ENDROOT
BRANCH   1   7
HETATM    7  C   UNL     1      26.395  43.038  52.010  1.00  0.00     0.277 C 
BRANCH   7   8
HETATM    8  N   UNL     1      26.475  44.041  50.874  1.00  0.00    -0.065 N 
HETATM    9  H   UNL     1      27.412  44.457  50.886  1.00  0.00     0.280 HD
HETATM   10  C   UNL     1      26.236  43.374  49.541  1.00  0.00     0.270 C 
BRANCH   8  11
HETATM   11  C   UNL     1      25.391  45.068  51.062  1.00  0.00     0.205 C 
HETATM   12  C   UNL     1      25.724  46.587  50.624  1.00  0.00     0.008 C 
HETATM   13  C   UNL     1      24.489  47.426  50.267  1.00  0.00     0.020 C 
HETATM   14  C   UNL     1      26.834  46.869  49.610  1.00  0.00     0.020 C 
HETATM   15  C   UNL     1      26.242  46.729  52.061  1.00  0.00     0.137 C 
HETATM   16  C   UNL     1      25.219  45.652  52.512  1.00  0.00     0.049 C 
HETATM   17  O   UNL     1      26.066  47.831  52.951  1.00  0.00    -0.385 OA
HETATM   18  C   UNL     1      25.722  45.709  53.952  1.00  0.00     0.035 C 
HETATM   19  C   UNL     1      25.740  47.239  54.233  1.00  0.00     0.168 C 
ENDBRANCH   8  11
ENDBRANCH   7   8
ENDBRANCH   1   7
BRANCH   2  20
HETATM   20  C   UNL     1      29.096  42.874  53.766  1.00  0.00    -0.002 A 
HETATM   21  C   UNL     1      29.951  42.475  54.801  1.00  0.00     0.053 A 
HETATM   22  C   UNL     1      30.343  43.392  55.777  1.00  0.00     0.103 A 
HETATM   23  C   UNL     1      29.884  44.712  55.729  1.00  0.00     0.102 A 
HETATM   24  O   UNL     1      31.168  42.919  56.764  1.00  0.00    -0.346 OA
HETATM   25  O   UNL     1      30.202  45.652  56.672  1.00  0.00    -0.346 OA
HETATM   26  C   UNL     1      29.072  45.128  54.678  1.00  0.00     0.040 A 
HETATM   27  C   UNL     1      30.766  45.059  57.847  1.00  0.00     0.202 C 
HETATM   28  C   UNL     1      31.790  43.998  57.479  1.00  0.00     0.202 C 
HETATM   29  C   UNL     1      28.677  44.211  53.699  1.00  0.00     0.017 A 
ENDBRANCH   2  20
TORSDOF 4
ENDMDL
MODEL 4
REMARK VINA RESULT:      -8.1      3.618      6.063
REMARK  4 active torsions:
REMARK  status: ('A' for Active; 'I' for Inactive)
REMARK    1  A    between atoms: C_9  and  N_10 
REMARK    2  A    between atoms: N_10  and  C_12 
REMARK    3  A    between atoms: C_12  and  C_13 
REMARK    4  A    between atoms: C_14  and  C_15 
ROOT
HETATM    1  C   UNL     1      25.228  48.698  49.258  1.00  0.00     0.016 A 
HETATM    2  C   UNL     1      24.525  49.602  48.397  1.00  0.00     0.096 A 
HETATM    3  N   UNL     1      25.374  50.259  47.599  1.00  0.00    -0.174 NA
HETATM    4  N   UNL     1      26.586  49.802  47.919  1.00  0.00    -0.288 N 
HETATM    5  H   UNL     1      27.388  50.170  47.413  1.00  0.00     0.188 HD
HETATM    6  C   UNL     1      26.557  48.850  48.899  1.00  0.00     0.120 A 
ENDROOT
BRANCH   1   7
HETATM    7  C   UNL     1      24.618  47.750  50.231  1.00  0.00     0.277 C 
BRANCH   7   8
HETATM    8  N   UNL     1      25.558  46.685  50.765  1.00  0.00    -0.065 N 
HETATM    9  H   UNL     1      26.343  46.600  50.110  1.00  0.00     0.280 HD
HETATM   10  C   UNL     1      26.080  47.056  52.132  1.00  0.00     0.270 C 
BRANCH   8  11
HETATM   11  C   UNL     1      24.794  45.398  50.912  1.00  0.00     0.205 C 
HETATM   12  C   UNL     1      25.518  44.044  50.411  1.00  0.00     0.008 C 
HETATM   13  C   UNL     1      25.011  42.766  51.094  1.00  0.00     0.020 C 
HETATM   14  C   UNL     1      27.042  43.982  50.299  1.00  0.00     0.020 C 
HETATM   15  C   UNL     1      24.880  44.381  49.057  1.00  0.00     0.137 C 
HETATM   16  C   UNL     1      23.719  45.088  49.806  1.00  0.00     0.049 C 
HETATM   17  O   UNL     1      24.261  43.487  48.133  1.00  0.00    -0.385 OA
HETATM   18  C   UNL     1      23.058  45.498  48.493  1.00  0.00     0.035 C 
HETATM   19  C   UNL     1      23.056  44.162  47.695  1.00  0.00     0.168 C 
ENDBRANCH   8  11
ENDBRANCH   7   8
ENDBRANCH   1   7
BRANCH   2  20
HETATM   20  C   UNL     1      23.085  49.809  48.277  1.00  0.00    -0.002 A 
HETATM   21  C   UNL     1      22.252  48.807  47.765  1.00  0.00     0.053 A 
HETATM   22  C   UNL     1      20.887  49.048  47.606  1.00  0.00     0.103 A 
HETATM   23  C   UNL     1      20.343  50.288  47.955  1.00  0.00     0.102 A 
HETATM   24  O   UNL     1      20.142  48.021  47.085  1.00  0.00    -0.346 OA
HETATM   25  O   UNL     1      19.020  50.600  47.793  1.00  0.00    -0.346 OA
HETATM   26  C   UNL     1      21.157  51.273  48.507  1.00  0.00     0.040 A 
HETATM   27  C   UNL     1      18.350  49.659  46.947  1.00  0.00     0.202 C 
HETATM   28  C   UNL     1      18.740  48.235  47.307  1.00  0.00     0.202 C 
HETATM   29  C   UNL     1      22.525  51.035  48.667  1.00  0.00     0.017 A 
ENDBRANCH   2  20
TORSDOF 4
ENDMDL
MODEL 5
REMARK VINA RESULT:      -7.8      2.522      4.244
REMARK  4 active torsions:
REMARK  status: ('A' for Active; 'I' for Inactive)
REMARK    1  A    between atoms: C_9  and  N_10 
REMARK    2  A    between atoms: N_10  and  C_12 
REMARK    3  A    between atoms: C_12  and  C_13 
REMARK    4  A    between atoms: C_14  and  C_15 
ROOT
HETATM    1  C   UNL     1      25.652  47.836  50.005  1.00  0.00     0.016 A 
HETATM    2  C   UNL     1      24.859  48.709  49.192  1.00  0.00     0.096 A 
HETATM    3  N   UNL     1      25.630  49.424  48.366  1.00  0.00    -0.174 NA
HETATM    4  N   UNL     1      26.880  49.034  48.623  1.00  0.00    -0.288 N 
HETATM    5  H   UNL     1      27.636  49.455  48.087  1.00  0.00     0.188 HD
HETATM    6  C   UNL     1      26.951  48.069  49.589  1.00  0.00     0.120 A 
ENDROOT
BRANCH   1   7
HETATM    7  C   UNL     1      25.143  46.841  50.990  1.00  0.00     0.277 C 
BRANCH   7   8
HETATM    8  N   UNL     1      26.047  46.601  52.185  1.00  0.00    -0.065 N 
HETATM    9  H   UNL     1      27.014  46.761  51.886  1.00  0.00     0.280 HD
HETATM   10  C   UNL     1      25.707  47.538  53.320  1.00  0.00     0.270 C 
BRANCH   8  11
HETATM   11  C   UNL     1      25.826  45.198  52.682  1.00  0.00     0.205 C 
HETATM   12  C   UNL     1      27.023  44.513  53.523  1.00  0.00     0.008 C 
HETATM   13  C   UNL     1      26.567  43.403  54.481  1.00  0.00     0.020 C 
HETATM   14  C   UNL     1      28.069  45.383  54.223  1.00  0.00     0.020 C 
HETATM   15  C   UNL     1      27.523  44.051  52.148  1.00  0.00     0.137 C 
HETATM   16  C   UNL     1      26.056  44.040  51.643  1.00  0.00     0.049 C 
HETATM   17  O   UNL     1      28.067  42.779  51.795  1.00  0.00    -0.385 OA
HETATM   18  C   UNL     1      26.491  43.629  50.239  1.00  0.00     0.035 C 
HETATM   19  C   UNL     1      27.450  42.437  50.529  1.00  0.00     0.168 C 
ENDBRANCH   8  11
ENDBRANCH   7   8
ENDBRANCH   1   7
BRANCH   2  20
HETATM   20  C   UNL     1      23.405  48.834  49.141  1.00  0.00    -0.002 A 
HETATM   21  C   UNL     1      22.764  49.999  49.580  1.00  0.00     0.053 A 
HETATM   22  C   UNL     1      21.371  50.074  49.574  1.00  0.00     0.103 A 
HETATM   23  C   UNL     1      20.608  48.989  49.133  1.00  0.00     0.102 A 
HETATM   24  O   UNL     1      20.821  51.243  50.033  1.00  0.00    -0.346 OA
HETATM   25  O   UNL     1      19.239  48.985  49.134  1.00  0.00    -0.346 OA
HETATM   26  C   UNL     1      21.239  47.845  48.652  1.00  0.00     0.040 A 
HETATM   27  C   UNL     1      18.702  50.054  49.922  1.00  0.00     0.202 C 
HETATM   28  C   UNL     1      19.442  51.353  49.646  1.00  0.00     0.202 C 
HETATM   29  C   UNL     1      22.634  47.767  48.657  1.00  0.00     0.017 A 
ENDBRANCH   2  20
TORSDOF 4
ENDMDL
MODEL 6
REMARK VINA RESULT:      -7.7     11.617     14.164
REMARK  4 active torsions:
REMARK  status: ('A' for Active; 'I' for Inactive)
REMARK    1  A    between atoms: C_9  and  N_10 
REMARK    2  A    between atoms: N_10  and  C_12 
REMARK    3  A    between atoms: C_12  and  C_13 
REMARK    4  A    between atoms: C_14  and  C_15 
ROOT
HETATM    1  C   UNL     1      28.582  47.774  39.617  1.00  0.00     0.016 A 
HETATM    2  C   UNL     1      29.883  47.525  40.161  1.00  0.00     0.096 A 
HETATM    3  N   UNL     1      30.286  46.279  39.886  1.00  0.00    -0.174 NA
HETATM    4  N   UNL     1      29.290  45.733  39.186  1.00  0.00    -0.288 N 
HETATM    5  H   UNL     1      29.399  44.774  38.864  1.00  0.00     0.188 HD
HETATM    6  C   UNL     1      28.247  46.591  38.980  1.00  0.00     0.120 A 
ENDROOT
BRANCH   1   7
HETATM    7  C   UNL     1      27.839  49.065  39.658  1.00  0.00     0.277 C 
BRANCH   7   8
HETATM    8  N   UNL     1      27.809  49.830  38.348  1.00  0.00    -0.065 N 
HETATM    9  H   UNL     1      28.638  49.562  37.807  1.00  0.00     0.280 HD
HETATM   10  C   UNL     1      26.564  49.506  37.557  1.00  0.00     0.270 C 
BRANCH   8  11
HETATM   11  C   UNL     1      27.776  51.303  38.652  1.00  0.00     0.205 C 
HETATM   12  C   UNL     1      29.119  52.152  38.357  1.00  0.00     0.008 C 
HETATM   13  C   UNL     1      28.878  53.647  38.105  1.00  0.00     0.020 C 
HETATM   14  C   UNL     1      30.154  51.632  37.358  1.00  0.00     0.020 C 
HETATM   15  C   UNL     1      29.498  51.766  39.793  1.00  0.00     0.137 C 
HETATM   16  C   UNL     1      27.990  51.716  40.154  1.00  0.00     0.049 C 
HETATM   17  O   UNL     1      30.111  52.584  40.788  1.00  0.00    -0.385 OA
HETATM   18  C   UNL     1      28.298  51.281  41.585  1.00  0.00     0.035 C 
HETATM   19  C   UNL     1      29.387  52.307  42.012  1.00  0.00     0.168 C 
ENDBRANCH   8  11
ENDBRANCH   7   8
ENDBRANCH   1   7
BRANCH   2  20
HETATM   20  C   UNL     1      30.764  48.448  40.872  1.00  0.00    -0.002 A 
HETATM   21  C   UNL     1      31.747  49.177  40.191  1.00  0.00     0.053 A 
HETATM   22  C   UNL     1      32.614  50.010  40.899  1.00  0.00     0.103 A 
HETATM   23  C   UNL     1      32.508  50.121  42.289  1.00  0.00     0.102 A 
HETATM   24  O   UNL     1      33.557  50.678  40.162  1.00  0.00    -0.346 OA
HETATM   25  O   UNL     1      33.347  50.893  43.046  1.00  0.00    -0.346 OA
HETATM   26  C   UNL     1      31.504  49.435  42.966  1.00  0.00     0.040 A 
HETATM   27  C   UNL     1      34.510  51.295  42.313  1.00  0.00     0.202 C 
HETATM   28  C   UNL     1      34.133  51.756  40.915  1.00  0.00     0.202 C 
HETATM   29  C   UNL     1      30.635  48.599  42.260  1.00  0.00     0.017 A 
ENDBRANCH   2  20
TORSDOF 4
ENDMDL
MODEL 7
REMARK VINA RESULT:      -7.7      2.570      4.757
REMARK  4 active torsions:
REMARK  status: ('A' for Active; 'I' for Inactive)
REMARK    1  A    between atoms: C_9  and  N_10 
REMARK    2  A    between atoms: N_10  and  C_12 
REMARK    3  A    between atoms: C_12  and  C_13 
REMARK    4  A    between atoms: C_14  and  C_15 
ROOT
HETATM    1  C   UNL     1      25.550  48.106  49.820  1.00  0.00     0.016 A 
HETATM    2  C   UNL     1      25.057  49.064  48.876  1.00  0.00     0.096 A 
HETATM    3  N   UNL     1      26.053  49.564  48.137  1.00  0.00    -0.174 NA
HETATM    4  N   UNL     1      27.157  48.955  48.576  1.00  0.00    -0.288 N 
HETATM    5  H   UNL     1      28.043  49.189  48.132  1.00  0.00     0.188 HD
HETATM    6  C   UNL     1      26.912  48.057  49.576  1.00  0.00     0.120 A 
ENDROOT
BRANCH   1   7
HETATM    7  C   UNL     1      24.732  47.291  50.762  1.00  0.00     0.277 C 
BRANCH   7   8
HETATM    8  N   UNL     1      24.698  45.804  50.459  1.00  0.00    -0.065 N 
HETATM    9  H   UNL     1      23.913  45.395  50.977  1.00  0.00     0.280 HD
HETATM   10  C   UNL     1      24.512  45.554  48.981  1.00  0.00     0.270 C 
BRANCH   8  11
HETATM   11  C   UNL     1      26.019  45.202  50.853  1.00  0.00     0.205 C 
HETATM   12  C   UNL     1      26.025  43.646  51.287  1.00  0.00     0.008 C 
HETATM   13  C   UNL     1      27.376  42.942  51.096  1.00  0.00     0.020 C 
HETATM   14  C   UNL     1      24.903  42.714  50.827  1.00  0.00     0.020 C 
HETATM   15  C   UNL     1      25.745  44.192  52.693  1.00  0.00     0.137 C 
HETATM   16  C   UNL     1      26.513  45.488  52.318  1.00  0.00     0.049 C 
HETATM   17  O   UNL     1      26.302  43.753  53.932  1.00  0.00    -0.385 OA
HETATM   18  C   UNL     1      26.226  46.109  53.683  1.00  0.00     0.035 C 
HETATM   19  C   UNL     1      26.628  44.964  54.656  1.00  0.00     0.168 C 
ENDBRANCH   8  11
ENDBRANCH   7   8
ENDBRANCH   1   7
BRANCH   2  20
HETATM   20  C   UNL     1      23.676  49.464  48.624  1.00  0.00    -0.002 A 
HETATM   21  C   UNL     1      22.756  48.571  48.059  1.00  0.00     0.053 A 
HETATM   22  C   UNL     1      21.457  48.993  47.775  1.00  0.00     0.103 A 
HETATM   23  C   UNL     1      21.066  50.307  48.050  1.00  0.00     0.102 A 
HETATM   24  O   UNL     1      20.623  48.063  47.211  1.00  0.00    -0.346 OA
HETATM   25  O   UNL     1      19.819  50.793  47.765  1.00  0.00    -0.346 OA
HETATM   26  C   UNL     1      21.960  51.187  48.653  1.00  0.00     0.040 A 
HETATM   27  C   UNL     1      19.097  49.928  46.881  1.00  0.00     0.202 C 
HETATM   28  C   UNL     1      19.251  48.476  47.302  1.00  0.00     0.202 C 
HETATM   29  C   UNL     1      23.262  50.767  48.938  1.00  0.00     0.017 A 
ENDBRANCH   2  20
TORSDOF 4
ENDMDL
MODEL 8
REMARK VINA RESULT:      -7.6      2.143      7.435
REMARK  4 active torsions:
REMARK  status: ('A' for Active; 'I' for Inactive)
REMARK    1  A    between atoms: C_9  and  N_10 
REMARK    2  A    between atoms: N_10  and  C_12 
REMARK    3  A    between atoms: C_12  and  C_13 
REMARK    4  A    between atoms: C_14  and  C_15 
ROOT
HETATM    1  C   UNL     1      27.734  42.886  52.110  1.00  0.00     0.016 A 
HETATM    2  C   UNL     1      28.783  42.644  53.055  1.00  0.00     0.096 A 
HETATM    3  N   UNL     1      29.414  41.496  52.784  1.00  0.00    -0.174 NA
HETATM    4  N   UNL     1      28.807  41.006  51.702  1.00  0.00    -0.288 N 
HETATM    5  H   UNL     1      29.145  40.126  51.318  1.00  0.00     0.188 HD
HETATM    6  C   UNL     1      27.800  41.808  51.244  1.00  0.00     0.120 A 
ENDROOT
BRANCH   1   7
HETATM    7  C   UNL     1      26.862  44.093  52.047  1.00  0.00     0.277 C 
BRANCH   7   8
HETATM    8  N   UNL     1      25.412  43.857  52.426  1.00  0.00    -0.065 N 
HETATM    9  H   UNL     1      25.197  42.870  52.249  1.00  0.00     0.280 HD
HETATM   10  C   UNL     1      25.173  44.171  53.884  1.00  0.00     0.270 C 
BRANCH   8  11
HETATM   11  C   UNL     1      24.546  44.786  51.620  1.00  0.00     0.205 C 
HETATM   12  C   UNL     1      24.605  44.645  50.011  1.00  0.00     0.008 C 
HETATM   13  C   UNL     1      23.343  45.138  49.288  1.00  0.00     0.020 C 
HETATM   14  C   UNL     1      25.075  43.339  49.369  1.00  0.00     0.020 C 
HETATM   15  C   UNL     1      25.757  45.653  50.115  1.00  0.00     0.137 C 
HETATM   16  C   UNL     1      25.098  46.240  51.392  1.00  0.00     0.049 C 
HETATM   17  O   UNL     1      26.025  46.769  49.266  1.00  0.00    -0.385 OA
HETATM   18  C   UNL     1      26.239  47.236  51.581  1.00  0.00     0.035 C 
HETATM   19  C   UNL     1      26.374  47.855  50.159  1.00  0.00     0.168 C 
ENDBRANCH   8  11
ENDBRANCH   7   8
ENDBRANCH   1   7
BRANCH   2  20
HETATM   20  C   UNL     1      29.230  43.493  54.155  1.00  0.00    -0.002 A 
HETATM   21  C   UNL     1      30.155  43.027  55.098  1.00  0.00     0.053 A 
HETATM   22  C   UNL     1      30.525  43.836  56.172  1.00  0.00     0.103 A 
HETATM   23  C   UNL     1      29.976  45.114  56.315  1.00  0.00     0.102 A 
HETATM   24  O   UNL     1      31.424  43.301  57.058  1.00  0.00    -0.346 OA
HETATM   25  O   UNL     1      30.271  45.944  57.363  1.00  0.00    -0.346 OA
HETATM   26  C   UNL     1      29.092  45.602  55.357  1.00  0.00     0.040 A 
HETATM   27  C   UNL     1      30.924  45.247  58.429  1.00  0.00     0.202 C 
HETATM   28  C   UNL     1      32.001  44.320  57.888  1.00  0.00     0.202 C 
HETATM   29  C   UNL     1      28.719  44.793  54.280  1.00  0.00     0.017 A 
ENDBRANCH   2  20
TORSDOF 4
ENDMDL
MODEL 9
REMARK VINA RESULT:      -7.4      7.341     10.222
REMARK  4 active torsions:
REMARK  status: ('A' for Active; 'I' for Inactive)
REMARK    1  A    between atoms: C_9  and  N_10 
REMARK    2  A    between atoms: N_10  and  C_12 
REMARK    3  A    between atoms: C_12  and  C_13 
REMARK    4  A    between atoms: C_14  and  C_15 
ROOT
HETATM    1  C   UNL     1      22.057  48.972  48.792  1.00  0.00     0.016 A 
HETATM    2  C   UNL     1      21.627  50.320  48.569  1.00  0.00     0.096 A 
HETATM    3  N   UNL     1      22.673  51.151  48.508  1.00  0.00    -0.174 NA
HETATM    4  N   UNL     1      23.747  50.380  48.681  1.00  0.00    -0.288 N 
HETATM    5  H   UNL     1      24.664  50.821  48.659  1.00  0.00     0.188 HD
HETATM    6  C   UNL     1      23.438  49.059  48.840  1.00  0.00     0.120 A 
ENDROOT
BRANCH   1   7
HETATM    7  C   UNL     1      21.187  47.764  48.847  1.00  0.00     0.277 C 
BRANCH   7   8
HETATM    8  N   UNL     1      20.852  47.153  47.499  1.00  0.00    -0.065 N 
HETATM    9  H   UNL     1      20.691  47.920  46.837  1.00  0.00     0.280 HD
HETATM   10  C   UNL     1      21.981  46.283  47.001  1.00  0.00     0.270 C 
BRANCH   8  11
HETATM   11  C   UNL     1      19.643  46.271  47.657  1.00  0.00     0.205 C 
HETATM   12  C   UNL     1      18.641  46.154  46.396  1.00  0.00     0.008 C 
HETATM   13  C   UNL     1      17.816  44.859  46.363  1.00  0.00     0.020 C 
HETATM   14  C   UNL     1      19.140  46.468  44.984  1.00  0.00     0.020 C 
HETATM   15  C   UNL     1      17.952  47.374  47.020  1.00  0.00     0.137 C 
HETATM   16  C   UNL     1      18.416  46.891  48.420  1.00  0.00     0.049 C 
HETATM   17  O   UNL     1      16.552  47.626  47.138  1.00  0.00    -0.385 OA
HETATM   18  C   UNL     1      17.794  48.109  49.099  1.00  0.00     0.035 C 
HETATM   19  C   UNL     1      16.367  48.136  48.481  1.00  0.00     0.168 C 
ENDBRANCH   8  11
ENDBRANCH   7   8
ENDBRANCH   1   7
BRANCH   2  20
HETATM   20  C   UNL     1      20.271  50.819  48.355  1.00  0.00    -0.002 A 
HETATM   21  C   UNL     1      19.549  51.416  49.396  1.00  0.00     0.053 A 
HETATM   22  C   UNL     1      18.235  51.835  49.183  1.00  0.00     0.103 A 
HETATM   23  C   UNL     1      17.632  51.659  47.935  1.00  0.00     0.102 A 
HETATM   24  O   UNL     1      17.593  52.397  50.256  1.00  0.00    -0.346 OA
HETATM   25  O   UNL     1      16.337  52.015  47.670  1.00  0.00    -0.346 OA
HETATM   26  C   UNL     1      18.358  51.107  46.883  1.00  0.00     0.040 A 
HETATM   27  C   UNL     1      15.598  52.272  48.869  1.00  0.00     0.202 C 
HETATM   28  C   UNL     1      16.417  53.108  49.839  1.00  0.00     0.202 C 
HETATM   29  C   UNL     1      19.675  50.687  47.093  1.00  0.00     0.017 A 
ENDBRANCH   2  20
TORSDOF 4
ENDMDL
MODEL 10
REMARK VINA RESULT:      -7.4     12.098     13.650
REMARK  4 active torsions:
REMARK  status: ('A' for Active; 'I' for Inactive)
REMARK    1  A    between atoms: C_9  and  N_10 
REMARK    2  A    between atoms: N_10  and  C_12 
REMARK    3  A    between atoms: C_12  and  C_13 
REMARK    4  A    between atoms: C_14  and  C_15 
ROOT
HETATM    1  C   UNL     1      29.012  51.409  39.854  1.00  0.00     0.016 A 
HETATM    2  C   UNL     1      28.360  50.330  39.175  1.00  0.00     0.096 A 
HETATM    3  N   UNL     1      27.706  50.771  38.095  1.00  0.00    -0.174 NA
HETATM    4  N   UNL     1      27.922  52.087  38.064  1.00  0.00    -0.288 N 
HETATM    5  H   UNL     1      27.513  52.624  37.303  1.00  0.00     0.188 HD
HETATM    6  C   UNL     1      28.714  52.523  39.089  1.00  0.00     0.120 A 
ENDROOT
BRANCH   1   7
HETATM    7  C   UNL     1      29.891  51.296  41.052  1.00  0.00     0.277 C 
BRANCH   7   8
HETATM    8  N   UNL     1      31.238  51.985  40.926  1.00  0.00    -0.065 N 
HETATM    9  H   UNL     1      31.570  51.853  39.965  1.00  0.00     0.280 HD
HETATM   10  C   UNL     1      31.124  53.461  41.224  1.00  0.00     0.270 C 
BRANCH   8  11
HETATM   11  C   UNL     1      32.177  51.394  41.942  1.00  0.00     0.205 C 
HETATM   12  C   UNL     1      33.713  51.172  41.491  1.00  0.00     0.008 C 
HETATM   13  C   UNL     1      34.715  51.154  42.653  1.00  0.00     0.020 C 
HETATM   14  C   UNL     1      34.299  51.979  40.333  1.00  0.00     0.020 C 
HETATM   15  C   UNL     1      33.216  49.802  41.011  1.00  0.00     0.137 C 
HETATM   16  C   UNL     1      32.130  49.832  42.119  1.00  0.00     0.049 C 
HETATM   17  O   UNL     1      33.868  48.539  41.139  1.00  0.00    -0.385 OA
HETATM   18  C   UNL     1      31.555  48.494  41.660  1.00  0.00     0.035 C 
HETATM   19  C   UNL     1      32.832  47.612  41.545  1.00  0.00     0.168 C 
ENDBRANCH   8  11
ENDBRANCH   7   8
ENDBRANCH   1   7
BRANCH   2  20
HETATM   20  C   UNL     1      28.394  48.904  39.488  1.00  0.00    -0.002 A 
HETATM   21  C   UNL     1      28.898  47.974  38.570  1.00  0.00     0.053 A 
HETATM   22  C   UNL     1      28.869  46.612  38.869  1.00  0.00     0.103 A 
HETATM   23  C   UNL     1      28.336  46.167  40.083  1.00  0.00     0.102 A 
HETATM   24  O   UNL     1      29.367  45.766  37.912  1.00  0.00    -0.346 OA
HETATM   25  O   UNL     1      28.247  44.844  40.423  1.00  0.00    -0.346 OA
HETATM   26  C   UNL     1      27.877  47.088  41.019  1.00  0.00     0.040 A 
HETATM   27  C   UNL     1      28.447  43.987  39.293  1.00  0.00     0.202 C 
HETATM   28  C   UNL     1      29.625  44.463  38.457  1.00  0.00     0.202 C 
HETATM   29  C   UNL     1      27.904  48.453  40.723  1.00  0.00     0.017 A 
ENDBRANCH   2  20
TORSDOF 4
ENDMDL
