MODEL 1
REMARK VINA RESULT:      -9.3      0.000      0.000
REMARK  8 active torsions:
REMARK  status: ('A' for Active; 'I' for Inactive)
REMARK    1  A    between atoms: N_2  and  C_4 
REMARK    2  A    between atoms: N_2  and  C_10 
REMARK    3  A    between atoms: C_10  and  C_11 
REMARK    4  A    between atoms: C_12  and  N_13 
REMARK    5  A    between atoms: N_13  and  C_14 
REMARK    6  A    between atoms: C_14  and  C_15 
REMARK       I    between atoms: C_15  and  N_16 
REMARK    7  A    between atoms: N_16  and  N_17 
REMARK       I    between atoms: N_17  and  C_18 
REMARK    8  A    between atoms: C_18  and  C_19 
ROOT
HETATM    1  N   UNL     1      24.788  46.854  50.314  1.00  0.00    -0.284 NA
HETATM    2  H   UNL     1      23.786  46.721  50.517  1.00  0.00     0.128 HD
ENDROOT
BRANCH   1   3
HETATM    3  C   UNL     1      24.919  48.029  49.541  1.00  0.00     0.016 A 
HETATM    4  C   UNL     1      23.764  48.558  48.919  1.00  0.00    -0.011 A 
HETATM    5  C   UNL     1      23.875  49.674  48.067  1.00  0.00     0.011 A 
HETATM    6  C   UNL     1      25.112  50.265  47.830  1.00  0.00     0.001 A 
HETATM    7  C   UNL     1      26.251  49.740  48.427  1.00  0.00     0.002 A 
HETATM    8  C   UNL     1      26.158  48.624  49.263  1.00  0.00     0.024 A 
BRANCH   4   9
HETATM    9  C   UNL     1      22.396  47.942  49.116  1.00  0.00     0.275 C 
BRANCH   9  10
HETATM   10  N   UNL     1      21.328  48.391  48.128  1.00  0.00    -0.067 N 
HETATM   11  C   UNL     1      21.126  47.342  47.058  1.00  0.00     0.270 C 
HETATM   12  H   UNL     1      21.787  49.195  47.659  1.00  0.00     0.280 HD
BRANCH  10  13
HETATM   13  C   UNL     1      20.012  48.825  48.780  1.00  0.00     0.188 C 
HETATM   14  C   UNL     1      20.211  49.873  49.888  1.00  0.00     0.033 C 
HETATM   15  C   UNL     1      20.700  51.219  49.357  1.00  0.00     0.002 C 
HETATM   16  C   UNL     1      19.772  51.764  48.274  1.00  0.00     0.000 C 
HETATM   17  C   UNL     1      19.511  50.744  47.168  1.00  0.00     0.002 C 
HETATM   18  C   UNL     1      19.037  49.409  47.739  1.00  0.00     0.033 C 
ENDBRANCH  10  13
ENDBRANCH   9  10
ENDBRANCH   4   9
ENDBRANCH   1   3
BRANCH   1  19
HETATM   19  C   UNL     1      25.250  45.580  49.699  1.00  0.00     0.197 C 
BRANCH  19  20
HETATM   20  C   UNL     1      26.499  45.096  50.437  1.00  0.00     0.249 C 
HETATM   21  N   UNL     1      26.312  44.823  51.773  1.00  0.00    -0.266 N 
HETATM   22  H   UNL     1      25.515  45.167  52.315  1.00  0.00     0.190 HD
HETATM   23  O   UNL     1      27.579  44.929  49.865  1.00  0.00    -0.270 OA
BRANCH  21  24
HETATM   24  N   UNL     1      27.430  44.457  52.537  1.00  0.00    -0.263 N 
HETATM   25  C   UNL     1      27.468  44.900  53.846  1.00  0.00     0.270 C 
HETATM   26  O   UNL     1      26.527  45.512  54.346  1.00  0.00    -0.266 OA
HETATM   27  H   UNL     1      28.276  44.212  52.022  1.00  0.00     0.190 HD
BRANCH  25  28
HETATM   28  C   UNL     1      28.718  44.633  54.605  1.00  0.00     0.033 A 
HETATM   29  C   UNL     1      29.157  45.593  55.525  1.00  0.00     0.017 A 
HETATM   30  C   UNL     1      30.325  45.378  56.259  1.00  0.00     0.001 A 
HETATM   31  C   UNL     1      31.053  44.202  56.085  1.00  0.00     0.000 A 
HETATM   32  C   UNL     1      30.612  43.235  55.182  1.00  0.00     0.001 A 
HETATM   33  C   UNL     1      29.446  43.444  54.444  1.00  0.00     0.017 A 
ENDBRANCH  25  28
ENDBRANCH  21  24
ENDBRANCH  19  20
ENDBRANCH   1  19
TORSDOF 8
ENDMDL
MODEL 2
REMARK VINA RESULT:      -9.2      1.224      1.549
REMARK  8 active torsions:
REMARK  status: ('A' for Active; 'I' for Inactive)
REMARK    1  A    between atoms: N_2  and  C_4 
REMARK    2  A    between atoms: N_2  and  C_10 
REMARK    3  A    between atoms: C_10  and  C_11 
REMARK    4  A    between atoms: C_12  and  N_13 
REMARK    5  A    between atoms: N_13  and  C_14 
REMARK    6  A    between atoms: C_14  and  C_15 
REMARK       I    between atoms: C_15  and  N_16 
REMARK    7  A    between atoms: N_16  and  N_17 
REMARK       I    between atoms: N_17  and  C_18 
REMARK    8  A    between atoms: C_18  and  C_19 
ROOT
HETATM    1  N   UNL     1      25.214  46.830  50.378  1.00  0.00    -0.284 NA
HETATM    2  H   UNL     1      26.042  46.248  50.190  1.00  0.00     0.128 HD
ENDROOT
BRANCH   1   3
HETATM    3  C   UNL     1      25.320  47.999  49.592  1.00  0.00     0.016 A 
HETATM    4  C   UNL     1      24.147  48.518  48.995  1.00  0.00    -0.011 A 
HETATM    5  C   UNL     1      24.231  49.627  48.132  1.00  0.00     0.011 A 
HETATM    6  C   UNL     1      25.459  50.221  47.857  1.00  0.00     0.001 A 
HETATM    7  C   UNL     1      26.615  49.706  48.429  1.00  0.00     0.002 A 
HETATM    8  C   UNL     1      26.549  48.597  49.277  1.00  0.00     0.024 A 
BRANCH   4   9
HETATM    9  C   UNL     1      22.787  47.898  49.234  1.00  0.00     0.275 C 
BRANCH   9  10
HETATM   10  N   UNL     1      21.727  48.228  48.191  1.00  0.00    -0.067 N 
HETATM   11  C   UNL     1      21.621  47.114  47.176  1.00  0.00     0.270 C 
HETATM   12  H   UNL     1      22.153  49.033  47.693  1.00  0.00     0.280 HD
BRANCH  10  13
HETATM   13  C   UNL     1      20.367  48.617  48.781  1.00  0.00     0.188 C 
HETATM   14  C   UNL     1      20.476  49.686  49.882  1.00  0.00     0.033 C 
HETATM   15  C   UNL     1      20.933  51.043  49.353  1.00  0.00     0.002 C 
HETATM   16  C   UNL     1      20.032  51.537  48.223  1.00  0.00     0.000 C 
HETATM   17  C   UNL     1      19.860  50.493  47.122  1.00  0.00     0.002 C 
HETATM   18  C   UNL     1      19.415  49.147  47.691  1.00  0.00     0.033 C 
ENDBRANCH  10  13
ENDBRANCH   9  10
ENDBRANCH   4   9
ENDBRANCH   1   3
BRANCH   1  19
HETATM   19  C   UNL     1      25.168  47.007  51.855  1.00  0.00     0.197 C 
BRANCH  19  20
HETATM   20  C   UNL     1      26.148  46.027  52.504  1.00  0.00     0.249 C 
HETATM   21  N   UNL     1      26.278  46.157  53.867  1.00  0.00    -0.266 N 
HETATM   22  H   UNL     1      25.990  46.990  54.387  1.00  0.00     0.190 HD
HETATM   23  O   UNL     1      26.743  45.164  51.854  1.00  0.00    -0.270 OA
BRANCH  21  24
HETATM   24  N   UNL     1      27.221  45.351  54.522  1.00  0.00    -0.263 N 
HETATM   25  C   UNL     1      28.289  45.996  55.120  1.00  0.00     0.270 C 
HETATM   26  O   UNL     1      28.365  47.221  55.154  1.00  0.00    -0.266 OA
HETATM   27  H   UNL     1      27.270  44.375  54.231  1.00  0.00     0.190 HD
BRANCH  25  28
HETATM   28  C   UNL     1      29.359  45.130  55.685  1.00  0.00     0.033 A 
HETATM   29  C   UNL     1      29.759  44.004  54.956  1.00  0.00     0.017 A 
HETATM   30  C   UNL     1      30.761  43.167  55.452  1.00  0.00     0.001 A 
HETATM   31  C   UNL     1      31.372  43.458  56.671  1.00  0.00     0.000 A 
HETATM   32  C   UNL     1      30.990  44.586  57.394  1.00  0.00     0.001 A 
HETATM   33  C   UNL     1      29.987  45.426  56.904  1.00  0.00     0.017 A 
ENDBRANCH  25  28
ENDBRANCH  21  24
ENDBRANCH  19  20
ENDBRANCH   1  19
TORSDOF 8
ENDMDL
MODEL 3
REMARK VINA RESULT:      -8.6      1.497      2.359
REMARK  8 active torsions:
REMARK  status: ('A' for Active; 'I' for Inactive)
REMARK    1  A    between atoms: N_2  and  C_4 
REMARK    2  A    between atoms: N_2  and  C_10 
REMARK    3  A    between atoms: C_10  and  C_11 
REMARK    4  A    between atoms: C_12  and  N_13 
REMARK    5  A    between atoms: N_13  and  C_14 
REMARK    6  A    between atoms: C_14  and  C_15 
REMARK       I    between atoms: C_15  and  N_16 
REMARK    7  A    between atoms: N_16  and  N_17 
REMARK       I    between atoms: N_17  and  C_18 
REMARK    8  A    between atoms: C_18  and  C_19 
ROOT
HETATM    1  N   UNL     1      23.391  47.442  49.863  1.00  0.00    -0.284 NA
HETATM    2  H   UNL     1      22.472  47.879  49.706  1.00  0.00     0.128 HD
ENDROOT
BRANCH   1   3
HETATM    3  C   UNL     1      24.376  48.313  49.347  1.00  0.00     0.016 A 
HETATM    4  C   UNL     1      23.981  49.294  48.405  1.00  0.00    -0.011 A 
HETATM    5  C   UNL     1      24.951  50.117  47.802  1.00  0.00     0.011 A 
HETATM    6  C   UNL     1      26.298  49.978  48.122  1.00  0.00     0.001 A 
HETATM    7  C   UNL     1      26.692  49.008  49.034  1.00  0.00     0.002 A 
HETATM    8  C   UNL     1      25.742  48.174  49.631  1.00  0.00     0.024 A 
BRANCH   4   9
HETATM    9  C   UNL     1      22.536  49.473  47.997  1.00  0.00     0.275 C 
BRANCH   9  10
HETATM   10  N   UNL     1      21.582  49.855  49.121  1.00  0.00    -0.067 N 
HETATM   11  C   UNL     1      22.157  50.989  49.938  1.00  0.00     0.270 C 
HETATM   12  H   UNL     1      21.614  49.016  49.730  1.00  0.00     0.280 HD
BRANCH  10  13
HETATM   13  C   UNL     1      20.148  50.133  48.660  1.00  0.00     0.188 C 
HETATM   14  C   UNL     1      19.492  48.918  47.981  1.00  0.00     0.033 C 
HETATM   15  C   UNL     1      19.241  47.760  48.942  1.00  0.00     0.002 C 
HETATM   16  C   UNL     1      18.415  48.201  50.148  1.00  0.00     0.000 C 
HETATM   17  C   UNL     1      19.004  49.431  50.835  1.00  0.00     0.002 C 
HETATM   18  C   UNL     1      19.253  50.563  49.839  1.00  0.00     0.033 C 
ENDBRANCH  10  13
ENDBRANCH   9  10
ENDBRANCH   4   9
ENDBRANCH   1   3
BRANCH   1  19
HETATM   19  C   UNL     1      23.303  46.084  49.262  1.00  0.00     0.197 C 
BRANCH  19  20
HETATM   20  C   UNL     1      24.426  45.215  49.831  1.00  0.00     0.249 C 
HETATM   21  N   UNL     1      24.479  45.166  51.205  1.00  0.00    -0.266 N 
HETATM   22  H   UNL     1      24.020  45.847  51.814  1.00  0.00     0.190 HD
HETATM   23  O   UNL     1      25.197  44.578  49.108  1.00  0.00    -0.270 OA
BRANCH  21  24
HETATM   24  N   UNL     1      25.534  44.458  51.802  1.00  0.00    -0.263 N 
HETATM   25  C   UNL     1      26.489  45.202  52.470  1.00  0.00     0.270 C 
HETATM   26  O   UNL     1      26.375  46.418  52.612  1.00  0.00    -0.266 OA
HETATM   27  H   UNL     1      25.732  43.531  51.428  1.00  0.00     0.190 HD
BRANCH  25  28
HETATM   28  C   UNL     1      27.677  44.463  52.975  1.00  0.00     0.033 A 
HETATM   29  C   UNL     1      28.091  44.690  54.293  1.00  0.00     0.017 A 
HETATM   30  C   UNL     1      29.201  44.015  54.805  1.00  0.00     0.001 A 
HETATM   31  C   UNL     1      29.893  43.105  54.008  1.00  0.00     0.000 A 
HETATM   32  C   UNL     1      29.475  42.862  52.700  1.00  0.00     0.001 A 
HETATM   33  C   UNL     1      28.368  43.536  52.181  1.00  0.00     0.017 A 
ENDBRANCH  25  28
ENDBRANCH  21  24
ENDBRANCH  19  20
ENDBRANCH   1  19
TORSDOF 8
ENDMDL
MODEL 4
REMARK VINA RESULT:      -8.5      1.870      3.476
REMARK  8 active torsions:
REMARK  status: ('A' for Active; 'I' for Inactive)
REMARK    1  A    between atoms: N_2  and  C_4 
REMARK    2  A    between atoms: N_2  and  C_10 
REMARK    3  A    between atoms: C_10  and  C_11 
REMARK    4  A    between atoms: C_12  and  N_13 
REMARK    5  A    between atoms: N_13  and  C_14 
REMARK    6  A    between atoms: C_14  and  C_15 
REMARK       I    between atoms: C_15  and  N_16 
REMARK    7  A    between atoms: N_16  and  N_17 
REMARK       I    between atoms: N_17  and  C_18 
REMARK    8  A    between atoms: C_18  and  C_19 
ROOT
HETATM    1  N   UNL     1      22.840  48.218  49.563  1.00  0.00    -0.284 NA
HETATM    2  H   UNL     1      22.991  47.369  50.125  1.00  0.00     0.128 HD
ENDROOT
BRANCH   1   3
HETATM    3  C   UNL     1      21.947  47.892  48.518  1.00  0.00     0.016 A 
HETATM    4  C   UNL     1      20.814  48.717  48.318  1.00  0.00    -0.011 A 
HETATM    5  C   UNL     1      19.857  48.368  47.347  1.00  0.00     0.011 A 
HETATM    6  C   UNL     1      20.011  47.219  46.577  1.00  0.00     0.001 A 
HETATM    7  C   UNL     1      21.114  46.399  46.780  1.00  0.00     0.002 A 
HETATM    8  C   UNL     1      22.065  46.724  47.750  1.00  0.00     0.024 A 
BRANCH   4   9
HETATM    9  C   UNL     1      20.578  49.963  49.143  1.00  0.00     0.275 C 
BRANCH   9  10
HETATM   10  N   UNL     1      19.146  50.169  49.618  1.00  0.00    -0.067 N 
HETATM   11  C   UNL     1      18.908  49.428  50.914  1.00  0.00     0.270 C 
HETATM   12  H   UNL     1      18.599  49.666  48.894  1.00  0.00     0.280 HD
BRANCH  10  13
HETATM   13  C   UNL     1      18.716  51.638  49.695  1.00  0.00     0.188 C 
HETATM   14  C   UNL     1      19.046  52.425  48.415  1.00  0.00     0.033 C 
HETATM   15  C   UNL     1      18.230  51.973  47.208  1.00  0.00     0.002 C 
HETATM   16  C   UNL     1      16.730  52.030  47.492  1.00  0.00     0.000 C 
HETATM   17  C   UNL     1      16.355  51.295  48.776  1.00  0.00     0.002 C 
HETATM   18  C   UNL     1      17.202  51.765  49.957  1.00  0.00     0.033 C 
ENDBRANCH  10  13
ENDBRANCH   9  10
ENDBRANCH   4   9
ENDBRANCH   1   3
BRANCH   1  19
HETATM   19  C   UNL     1      24.196  48.694  49.174  1.00  0.00     0.197 C 
BRANCH  19  20
HETATM   20  C   UNL     1      25.245  47.880  49.935  1.00  0.00     0.249 C 
HETATM   21  N   UNL     1      24.750  47.127  50.974  1.00  0.00    -0.266 N 
HETATM   22  H   UNL     1      23.836  47.288  51.405  1.00  0.00     0.190 HD
HETATM   23  O   UNL     1      26.435  47.873  49.612  1.00  0.00    -0.270 OA
BRANCH  21  24
HETATM   24  N   UNL     1      25.661  46.420  51.773  1.00  0.00    -0.263 N 
HETATM   25  C   UNL     1      25.925  46.934  53.029  1.00  0.00     0.270 C 
HETATM   26  O   UNL     1      25.325  47.914  53.463  1.00  0.00    -0.266 OA
HETATM   27  H   UNL     1      26.318  45.810  51.287  1.00  0.00     0.190 HD
BRANCH  25  28
HETATM   28  C   UNL     1      26.997  46.264  53.812  1.00  0.00     0.033 A 
HETATM   29  C   UNL     1      27.661  47.003  54.799  1.00  0.00     0.017 A 
HETATM   30  C   UNL     1      28.673  46.409  55.557  1.00  0.00     0.001 A 
HETATM   31  C   UNL     1      29.017  45.076  55.340  1.00  0.00     0.000 A 
HETATM   32  C   UNL     1      28.348  44.331  54.370  1.00  0.00     0.001 A 
HETATM   33  C   UNL     1      27.337  44.919  53.608  1.00  0.00     0.017 A 
ENDBRANCH  25  28
ENDBRANCH  21  24
ENDBRANCH  19  20
ENDBRANCH   1  19
TORSDOF 8
ENDMDL
MODEL 5
REMARK VINA RESULT:      -8.4      2.443     10.011
REMARK  8 active torsions:
REMARK  status: ('A' for Active; 'I' for Inactive)
REMARK    1  A    between atoms: N_2  and  C_4 
REMARK    2  A    between atoms: N_2  and  C_10 
REMARK    3  A    between atoms: C_10  and  C_11 
REMARK    4  A    between atoms: C_12  and  N_13 
REMARK    5  A    between atoms: N_13  and  C_14 
REMARK    6  A    between atoms: C_14  and  C_15 
REMARK       I    between atoms: C_15  and  N_16 
REMARK    7  A    between atoms: N_16  and  N_17 
REMARK       I    between atoms: N_17  and  C_18 
REMARK    8  A    between atoms: C_18  and  C_19 
ROOT
HETATM    1  N   UNL     1      25.468  46.425  49.141  1.00  0.00    -0.284 NA
HETATM    2  H   UNL     1      25.165  46.599  48.172  1.00  0.00     0.128 HD
ENDROOT
BRANCH   1   3
HETATM    3  C   UNL     1      24.779  45.285  49.610  1.00  0.00     0.016 A 
HETATM    4  C   UNL     1      25.508  44.307  50.329  1.00  0.00    -0.011 A 
HETATM    5  C   UNL     1      24.873  43.116  50.732  1.00  0.00     0.011 A 
HETATM    6  C   UNL     1      23.534  42.889  50.431  1.00  0.00     0.001 A 
HETATM    7  C   UNL     1      22.819  43.839  49.714  1.00  0.00     0.002 A 
HETATM    8  C   UNL     1      23.439  45.019  49.295  1.00  0.00     0.024 A 
BRANCH   4   9
HETATM    9  C   UNL     1      26.973  44.485  50.661  1.00  0.00     0.275 C 
BRANCH   9  10
HETATM   10  N   UNL     1      27.293  44.634  52.143  1.00  0.00    -0.067 N 
HETATM   11  C   UNL     1      26.358  45.631  52.787  1.00  0.00     0.270 C 
HETATM   12  H   UNL     1      28.227  45.086  52.121  1.00  0.00     0.280 HD
BRANCH  10  13
HETATM   13  C   UNL     1      27.354  43.308  52.907  1.00  0.00     0.188 C 
HETATM   14  C   UNL     1      28.492  42.391  52.426  1.00  0.00     0.033 C 
HETATM   15  C   UNL     1      29.879  42.944  52.744  1.00  0.00     0.002 C 
HETATM   16  C   UNL     1      30.035  43.244  54.233  1.00  0.00     0.000 C 
HETATM   17  C   UNL     1      28.905  44.119  54.769  1.00  0.00     0.002 C 
HETATM   18  C   UNL     1      27.535  43.541  54.420  1.00  0.00     0.033 C 
ENDBRANCH  10  13
ENDBRANCH   9  10
ENDBRANCH   4   9
ENDBRANCH   1   3
BRANCH   1  19
HETATM   19  C   UNL     1      25.246  47.702  49.872  1.00  0.00     0.197 C 
BRANCH  19  20
HETATM   20  C   UNL     1      24.053  48.430  49.249  1.00  0.00     0.249 C 
HETATM   21  N   UNL     1      22.996  48.644  50.103  1.00  0.00    -0.266 N 
HETATM   22  H   UNL     1      22.866  48.136  50.981  1.00  0.00     0.190 HD
HETATM   23  O   UNL     1      24.059  48.826  48.081  1.00  0.00    -0.270 OA
BRANCH  21  24
HETATM   24  N   UNL     1      21.832  49.229  49.583  1.00  0.00    -0.263 N 
HETATM   25  C   UNL     1      21.515  50.499  50.031  1.00  0.00     0.270 C 
HETATM   26  O   UNL     1      22.261  51.122  50.782  1.00  0.00    -0.266 OA
HETATM   27  H   UNL     1      21.128  48.594  49.209  1.00  0.00     0.190 HD
BRANCH  25  28
HETATM   28  C   UNL     1      20.207  51.054  49.589  1.00  0.00     0.033 A 
HETATM   29  C   UNL     1      20.188  51.910  48.481  1.00  0.00     0.017 A 
HETATM   30  C   UNL     1      18.981  52.451  48.034  1.00  0.00     0.001 A 
HETATM   31  C   UNL     1      17.790  52.132  48.684  1.00  0.00     0.000 A 
HETATM   32  C   UNL     1      17.801  51.268  49.778  1.00  0.00     0.001 A 
HETATM   33  C   UNL     1      19.004  50.725  50.231  1.00  0.00     0.017 A 
ENDBRANCH  25  28
ENDBRANCH  21  24
ENDBRANCH  19  20
ENDBRANCH   1  19
TORSDOF 8
ENDMDL
MODEL 6
REMARK VINA RESULT:      -8.2      2.346      4.314
REMARK  8 active torsions:
REMARK  status: ('A' for Active; 'I' for Inactive)
REMARK    1  A    between atoms: N_2  and  C_4 
REMARK    2  A    between atoms: N_2  and  C_10 
REMARK    3  A    between atoms: C_10  and  C_11 
REMARK    4  A    between atoms: C_12  and  N_13 
REMARK    5  A    between atoms: N_13  and  C_14 
REMARK    6  A    between atoms: C_14  and  C_15 
REMARK       I    between atoms: C_15  and  N_16 
REMARK    7  A    between atoms: N_16  and  N_17 
REMARK       I    between atoms: N_17  and  C_18 
REMARK    8  A    between atoms: C_18  and  C_19 
ROOT
HETATM    1  N   UNL     1      21.772  48.302  49.437  1.00  0.00    -0.284 NA
HETATM    2  H   UNL     1      21.241  47.449  49.212  1.00  0.00     0.128 HD
ENDROOT
BRANCH   1   3
HETATM    3  C   UNL     1      20.913  49.407  49.249  1.00  0.00     0.016 A 
HETATM    4  C   UNL     1      19.516  49.191  49.310  1.00  0.00    -0.011 A 
HETATM    5  C   UNL     1      18.630  50.251  49.037  1.00  0.00     0.011 A 
HETATM    6  C   UNL     1      19.114  51.514  48.709  1.00  0.00     0.001 A 
HETATM    7  C   UNL     1      20.484  51.727  48.634  1.00  0.00     0.002 A 
HETATM    8  C   UNL     1      21.376  50.681  48.888  1.00  0.00     0.024 A 
BRANCH   4   9
HETATM    9  C   UNL     1      18.930  47.834  49.634  1.00  0.00     0.275 C 
BRANCH   9  10
HETATM   10  N   UNL     1      18.883  46.848  48.475  1.00  0.00    -0.067 N 
HETATM   11  C   UNL     1      19.873  45.727  48.695  1.00  0.00     0.270 C 
HETATM   12  H   UNL     1      19.259  47.415  47.690  1.00  0.00     0.280 HD
BRANCH  10  13
HETATM   13  C   UNL     1      17.479  46.334  48.144  1.00  0.00     0.188 C 
HETATM   14  C   UNL     1      16.479  47.468  47.859  1.00  0.00     0.033 C 
HETATM   15  C   UNL     1      16.790  48.230  46.574  1.00  0.00     0.002 C 
HETATM   16  C   UNL     1      16.882  47.291  45.373  1.00  0.00     0.000 C 
HETATM   17  C   UNL     1      17.835  46.124  45.622  1.00  0.00     0.002 C 
HETATM   18  C   UNL     1      17.499  45.395  46.922  1.00  0.00     0.033 C 
ENDBRANCH  10  13
ENDBRANCH   9  10
ENDBRANCH   4   9
ENDBRANCH   1   3
BRANCH   1  19
HETATM   19  C   UNL     1      23.001  48.247  48.599  1.00  0.00     0.197 C 
BRANCH  19  20
HETATM   20  C   UNL     1      24.226  48.200  49.515  1.00  0.00     0.249 C 
HETATM   21  N   UNL     1      24.139  47.297  50.549  1.00  0.00    -0.266 N 
HETATM   22  H   UNL     1      23.258  46.891  50.874  1.00  0.00     0.190 HD
HETATM   23  O   UNL     1      25.226  48.893  49.314  1.00  0.00    -0.270 OA
BRANCH  21  24
HETATM   24  N   UNL     1      25.187  47.256  51.482  1.00  0.00    -0.263 N 
HETATM   25  C   UNL     1      25.326  46.093  52.217  1.00  0.00     0.270 C 
HETATM   26  O   UNL     1      24.623  45.108  52.004  1.00  0.00    -0.266 OA
HETATM   27  H   UNL     1      25.540  48.153  51.813  1.00  0.00     0.190 HD
BRANCH  25  28
HETATM   28  C   UNL     1      26.343  46.108  53.303  1.00  0.00     0.033 A 
HETATM   29  C   UNL     1      26.910  44.891  53.700  1.00  0.00     0.017 A 
HETATM   30  C   UNL     1      27.870  44.863  54.714  1.00  0.00     0.001 A 
HETATM   31  C   UNL     1      28.272  46.049  55.327  1.00  0.00     0.000 A 
HETATM   32  C   UNL     1      27.723  47.265  54.924  1.00  0.00     0.001 A 
HETATM   33  C   UNL     1      26.762  47.300  53.912  1.00  0.00     0.017 A 
ENDBRANCH  25  28
ENDBRANCH  21  24
ENDBRANCH  19  20
ENDBRANCH   1  19
TORSDOF 8
ENDMDL
MODEL 7
REMARK VINA RESULT:      -8.2      2.954      9.349
REMARK  8 active torsions:
REMARK  status: ('A' for Active; 'I' for Inactive)
REMARK    1  A    between atoms: N_2  and  C_4 
REMARK    2  A    between atoms: N_2  and  C_10 
REMARK    3  A    between atoms: C_10  and  C_11 
REMARK    4  A    between atoms: C_12  and  N_13 
REMARK    5  A    between atoms: N_13  and  C_14 
REMARK    6  A    between atoms: C_14  and  C_15 
REMARK       I    between atoms: C_15  and  N_16 
REMARK    7  A    between atoms: N_16  and  N_17 
REMARK       I    between atoms: N_17  and  C_18 
REMARK    8  A    between atoms: C_18  and  C_19 
ROOT
HETATM    1  N   UNL     1      22.926  43.244  49.930  1.00  0.00    -0.284 NA
HETATM    2  H   UNL     1      22.776  44.052  50.551  1.00  0.00     0.128 HD
ENDROOT
BRANCH   1   3
HETATM    3  C   UNL     1      24.272  42.839  50.069  1.00  0.00     0.016 A 
HETATM    4  C   UNL     1      25.152  43.665  50.808  1.00  0.00    -0.011 A 
HETATM    5  C   UNL     1      26.519  43.338  50.888  1.00  0.00     0.011 A 
HETATM    6  C   UNL     1      27.017  42.208  50.248  1.00  0.00     0.001 A 
HETATM    7  C   UNL     1      26.161  41.402  49.509  1.00  0.00     0.002 A 
HETATM    8  C   UNL     1      24.804  41.721  49.409  1.00  0.00     0.024 A 
BRANCH   4   9
HETATM    9  C   UNL     1      24.674  44.921  51.502  1.00  0.00     0.275 C 
BRANCH   9  10
HETATM   10  N   UNL     1      25.739  45.684  52.279  1.00  0.00    -0.067 N 
HETATM   11  C   UNL     1      25.960  47.049  51.669  1.00  0.00     0.270 C 
HETATM   12  H   UNL     1      26.595  45.135  52.074  1.00  0.00     0.280 HD
BRANCH  10  13
HETATM   13  C   UNL     1      25.489  45.749  53.789  1.00  0.00     0.188 C 
HETATM   14  C   UNL     1      25.411  44.359  54.443  1.00  0.00     0.033 C 
HETATM   15  C   UNL     1      26.745  43.617  54.428  1.00  0.00     0.002 C 
HETATM   16  C   UNL     1      27.855  44.444  55.073  1.00  0.00     0.000 C 
HETATM   17  C   UNL     1      27.946  45.850  54.484  1.00  0.00     0.002 C 
HETATM   18  C   UNL     1      26.590  46.554  54.505  1.00  0.00     0.033 C 
ENDBRANCH  10  13
ENDBRANCH   9  10
ENDBRANCH   4   9
ENDBRANCH   1   3
BRANCH   1  19
HETATM   19  C   UNL     1      22.484  43.683  48.579  1.00  0.00     0.197 C 
BRANCH  19  20
HETATM   20  C   UNL     1      21.500  44.845  48.731  1.00  0.00     0.249 C 
HETATM   21  N   UNL     1      22.085  46.073  48.939  1.00  0.00    -0.266 N 
HETATM   22  H   UNL     1      23.051  46.195  49.251  1.00  0.00     0.190 HD
HETATM   23  O   UNL     1      20.281  44.693  48.635  1.00  0.00    -0.270 OA
BRANCH  21  24
HETATM   24  N   UNL     1      21.247  47.174  49.173  1.00  0.00    -0.263 N 
HETATM   25  C   UNL     1      21.488  48.314  48.428  1.00  0.00     0.270 C 
HETATM   26  O   UNL     1      22.337  48.337  47.540  1.00  0.00    -0.266 OA
HETATM   27  H   UNL     1      20.773  47.205  50.074  1.00  0.00     0.190 HD
BRANCH  25  28
HETATM   28  C   UNL     1      20.694  49.522  48.781  1.00  0.00     0.033 A 
HETATM   29  C   UNL     1      19.774  49.429  49.832  1.00  0.00     0.017 A 
HETATM   30  C   UNL     1      19.010  50.541  50.195  1.00  0.00     0.001 A 
HETATM   31  C   UNL     1      19.170  51.748  49.518  1.00  0.00     0.000 A 
HETATM   32  C   UNL     1      20.096  51.851  48.481  1.00  0.00     0.001 A 
HETATM   33  C   UNL     1      20.862  50.743  48.112  1.00  0.00     0.017 A 
ENDBRANCH  25  28
ENDBRANCH  21  24
ENDBRANCH  19  20
ENDBRANCH   1  19
TORSDOF 8
ENDMDL
MODEL 8
REMARK VINA RESULT:      -8.0      5.228      8.802
REMARK  8 active torsions:
REMARK  status: ('A' for Active; 'I' for Inactive)
REMARK    1  A    between atoms: N_2  and  C_4 
REMARK    2  A    between atoms: N_2  and  C_10 
REMARK    3  A    between atoms: C_10  and  C_11 
REMARK    4  A    between atoms: C_12  and  N_13 
REMARK    5  A    between atoms: N_13  and  C_14 
REMARK    6  A    between atoms: C_14  and  C_15 
REMARK       I    between atoms: C_15  and  N_16 
REMARK    7  A    between atoms: N_16  and  N_17 
REMARK       I    between atoms: N_17  and  C_18 
REMARK    8  A    between atoms: C_18  and  C_19 
ROOT
HETATM    1  N   UNL     1      29.229  43.585  53.373  1.00  0.00    -0.284 NA
HETATM    2  H   UNL     1      29.719  44.138  52.654  1.00  0.00     0.128 HD
ENDROOT
BRANCH   1   3
HETATM    3  C   UNL     1      29.377  44.256  54.607  1.00  0.00     0.016 A 
HETATM    4  C   UNL     1      28.511  45.338  54.894  1.00  0.00    -0.011 A 
HETATM    5  C   UNL     1      28.690  46.085  56.073  1.00  0.00     0.011 A 
HETATM    6  C   UNL     1      29.711  45.771  56.964  1.00  0.00     0.001 A 
HETATM    7  C   UNL     1      30.573  44.720  56.680  1.00  0.00     0.002 A 
HETATM    8  C   UNL     1      30.416  43.977  55.507  1.00  0.00     0.024 A 
BRANCH   4   9
HETATM    9  C   UNL     1      27.400  45.743  53.950  1.00  0.00     0.275 C 
BRANCH   9  10
HETATM   10  N   UNL     1      26.520  44.606  53.449  1.00  0.00    -0.067 N 
HETATM   11  C   UNL     1      25.769  43.974  54.599  1.00  0.00     0.270 C 
HETATM   12  H   UNL     1      27.222  43.905  53.143  1.00  0.00     0.280 HD
BRANCH  10  13
HETATM   13  C   UNL     1      25.599  44.990  52.287  1.00  0.00     0.188 C 
HETATM   14  C   UNL     1      26.355  45.633  51.112  1.00  0.00     0.033 C 
HETATM   15  C   UNL     1      27.289  44.660  50.398  1.00  0.00     0.002 C 
HETATM   16  C   UNL     1      26.546  43.411  49.929  1.00  0.00     0.000 C 
HETATM   17  C   UNL     1      25.746  42.757  51.052  1.00  0.00     0.002 C 
HETATM   18  C   UNL     1      24.834  43.765  51.750  1.00  0.00     0.033 C 
ENDBRANCH  10  13
ENDBRANCH   9  10
ENDBRANCH   4   9
ENDBRANCH   1   3
BRANCH   1  19
HETATM   19  C   UNL     1      29.786  42.209  53.276  1.00  0.00     0.197 C 
BRANCH  19  20
HETATM   20  C   UNL     1      28.735  41.290  52.650  1.00  0.00     0.249 C 
HETATM   21  N   UNL     1      29.006  40.896  51.360  1.00  0.00    -0.266 N 
HETATM   22  H   UNL     1      29.677  41.372  50.751  1.00  0.00     0.190 HD
HETATM   23  O   UNL     1      27.742  40.905  53.272  1.00  0.00    -0.270 OA
BRANCH  21  24
HETATM   24  N   UNL     1      28.047  40.123  50.688  1.00  0.00    -0.263 N 
HETATM   25  C   UNL     1      28.505  39.008  50.009  1.00  0.00     0.270 C 
HETATM   26  O   UNL     1      29.682  38.660  50.063  1.00  0.00    -0.266 OA
HETATM   27  H   UNL     1      27.175  40.588  50.441  1.00  0.00     0.190 HD
BRANCH  25  28
HETATM   28  C   UNL     1      27.509  38.276  49.182  1.00  0.00     0.033 A 
HETATM   29  C   UNL     1      26.884  38.960  48.132  1.00  0.00     0.017 A 
HETATM   30  C   UNL     1      25.945  38.307  47.331  1.00  0.00     0.001 A 
HETATM   31  C   UNL     1      25.635  36.969  47.569  1.00  0.00     0.000 A 
HETATM   32  C   UNL     1      26.266  36.278  48.602  1.00  0.00     0.001 A 
HETATM   33  C   UNL     1      27.205  36.925  49.408  1.00  0.00     0.017 A 
ENDBRANCH  25  28
ENDBRANCH  21  24
ENDBRANCH  19  20
ENDBRANCH   1  19
TORSDOF 8
ENDMDL
MODEL 9
REMARK VINA RESULT:      -8.0      4.727      8.301
REMARK  8 active torsions:
REMARK  status: ('A' for Active; 'I' for Inactive)
REMARK    1  A    between atoms: N_2  and  C_4 
REMARK    2  A    between atoms: N_2  and  C_10 
REMARK    3  A    between atoms: C_10  and  C_11 
REMARK    4  A    between atoms: C_12  and  N_13 
REMARK    5  A    between atoms: N_13  and  C_14 
REMARK    6  A    between atoms: C_14  and  C_15 
REMARK       I    between atoms: C_15  and  N_16 
REMARK    7  A    between atoms: N_16  and  N_17 
REMARK       I    between atoms: N_17  and  C_18 
REMARK    8  A    between atoms: C_18  and  C_19 
ROOT
HETATM    1  N   UNL     1      27.508  41.834  53.565  1.00  0.00    -0.284 NA
HETATM    2  H   UNL     1      27.008  42.109  52.707  1.00  0.00     0.128 HD
ENDROOT
BRANCH   1   3
HETATM    3  C   UNL     1      27.985  43.011  54.183  1.00  0.00     0.016 A 
HETATM    4  C   UNL     1      27.137  44.144  54.216  1.00  0.00    -0.011 A 
HETATM    5  C   UNL     1      27.614  45.360  54.743  1.00  0.00     0.011 A 
HETATM    6  C   UNL     1      28.912  45.462  55.233  1.00  0.00     0.001 A 
HETATM    7  C   UNL     1      29.752  44.356  55.189  1.00  0.00     0.002 A 
HETATM    8  C   UNL     1      29.298  43.147  54.657  1.00  0.00     0.024 A 
BRANCH   4   9
HETATM    9  C   UNL     1      25.726  44.103  53.673  1.00  0.00     0.275 C 
BRANCH   9  10
HETATM   10  N   UNL     1      25.595  44.350  52.176  1.00  0.00    -0.067 N 
HETATM   11  C   UNL     1      25.164  43.085  51.469  1.00  0.00     0.270 C 
HETATM   12  H   UNL     1      26.579  44.517  51.894  1.00  0.00     0.280 HD
BRANCH  10  13
HETATM   13  C   UNL     1      24.718  45.552  51.813  1.00  0.00     0.188 C 
HETATM   14  C   UNL     1      25.279  46.883  52.343  1.00  0.00     0.033 C 
HETATM   15  C   UNL     1      26.584  47.293  51.665  1.00  0.00     0.002 C 
HETATM   16  C   UNL     1      26.433  47.349  50.147  1.00  0.00     0.000 C 
HETATM   17  C   UNL     1      25.842  46.063  49.575  1.00  0.00     0.002 C 
HETATM   18  C   UNL     1      24.545  45.679  50.287  1.00  0.00     0.033 C 
ENDBRANCH  10  13
ENDBRANCH   9  10
ENDBRANCH   4   9
ENDBRANCH   1   3
BRANCH   1  19
HETATM   19  C   UNL     1      28.522  40.831  53.140  1.00  0.00     0.197 C 
BRANCH  19  20
HETATM   20  C   UNL     1      28.537  40.757  51.611  1.00  0.00     0.249 C 
HETATM   21  N   UNL     1      28.923  39.541  51.096  1.00  0.00    -0.266 N 
HETATM   22  H   UNL     1      29.428  38.832  51.634  1.00  0.00     0.190 HD
HETATM   23  O   UNL     1      28.191  41.704  50.902  1.00  0.00    -0.270 OA
BRANCH  21  24
HETATM   24  N   UNL     1      29.043  39.420  49.703  1.00  0.00    -0.263 N 
HETATM   25  C   UNL     1      27.994  38.818  49.033  1.00  0.00     0.270 C 
HETATM   26  O   UNL     1      26.965  38.485  49.616  1.00  0.00    -0.266 OA
HETATM   27  H   UNL     1      29.988  39.444  49.322  1.00  0.00     0.190 HD
BRANCH  25  28
HETATM   28  C   UNL     1      28.188  38.563  47.581  1.00  0.00     0.033 A 
HETATM   29  C   UNL     1      27.723  39.517  46.669  1.00  0.00     0.017 A 
HETATM   30  C   UNL     1      27.888  39.315  45.297  1.00  0.00     0.001 A 
HETATM   31  C   UNL     1      28.527  38.166  44.833  1.00  0.00     0.000 A 
HETATM   32  C   UNL     1      29.007  37.220  45.737  1.00  0.00     0.001 A 
HETATM   33  C   UNL     1      28.844  37.415  47.110  1.00  0.00     0.017 A 
ENDBRANCH  25  28
ENDBRANCH  21  24
ENDBRANCH  19  20
ENDBRANCH   1  19
TORSDOF 8
ENDMDL
MODEL 10
REMARK VINA RESULT:      -7.9      2.610      4.478
REMARK  8 active torsions:
REMARK  status: ('A' for Active; 'I' for Inactive)
REMARK    1  A    between atoms: N_2  and  C_4 
REMARK    2  A    between atoms: N_2  and  C_10 
REMARK    3  A    between atoms: C_10  and  C_11 
REMARK    4  A    between atoms: C_12  and  N_13 
REMARK    5  A    between atoms: N_13  and  C_14 
REMARK    6  A    between atoms: C_14  and  C_15 
REMARK       I    between atoms: C_15  and  N_16 
REMARK    7  A    between atoms: N_16  and  N_17 
REMARK       I    between atoms: N_17  and  C_18 
REMARK    8  A    between atoms: C_18  and  C_19 
ROOT
HETATM    1  N   UNL     1      20.481  45.010  49.261  1.00  0.00    -0.284 NA
HETATM    2  H   UNL     1      19.994  44.221  49.709  1.00  0.00     0.128 HD
ENDROOT
BRANCH   1   3
HETATM    3  C   UNL     1      19.614  45.557  48.290  1.00  0.00     0.016 A 
HETATM    4  C   UNL     1      19.403  46.956  48.286  1.00  0.00    -0.011 A 
HETATM    5  C   UNL     1      18.476  47.523  47.392  1.00  0.00     0.011 A 
HETATM    6  C   UNL     1      17.761  46.722  46.507  1.00  0.00     0.001 A 
HETATM    7  C   UNL     1      17.953  45.346  46.517  1.00  0.00     0.002 A 
HETATM    8  C   UNL     1      18.860  44.767  47.409  1.00  0.00     0.024 A 
BRANCH   4   9
HETATM    9  C   UNL     1      20.130  47.876  49.243  1.00  0.00     0.275 C 
BRANCH   9  10
HETATM   10  N   UNL     1      19.351  49.108  49.683  1.00  0.00    -0.067 N 
HETATM   11  C   UNL     1      18.748  48.889  51.052  1.00  0.00     0.270 C 
HETATM   12  H   UNL     1      18.556  49.115  49.016  1.00  0.00     0.280 HD
BRANCH  10  13
HETATM   13  C   UNL     1      20.142  50.416  49.593  1.00  0.00     0.188 C 
HETATM   14  C   UNL     1      20.608  50.736  48.162  1.00  0.00     0.033 C 
HETATM   15  C   UNL     1      19.454  51.060  47.217  1.00  0.00     0.002 C 
HETATM   16  C   UNL     1      18.588  52.195  47.757  1.00  0.00     0.000 C 
HETATM   17  C   UNL     1      18.132  51.943  49.192  1.00  0.00     0.002 C 
HETATM   18  C   UNL     1      19.312  51.610  50.104  1.00  0.00     0.033 C 
ENDBRANCH  10  13
ENDBRANCH   9  10
ENDBRANCH   4   9
ENDBRANCH   1   3
BRANCH   1  19
HETATM   19  C   UNL     1      21.781  44.466  48.783  1.00  0.00     0.197 C 
BRANCH  19  20
HETATM   20  C   UNL     1      22.671  44.171  49.992  1.00  0.00     0.249 C 
HETATM   21  N   UNL     1      23.427  45.235  50.427  1.00  0.00    -0.266 N 
HETATM   22  H   UNL     1      23.618  46.064  49.859  1.00  0.00     0.190 HD
HETATM   23  O   UNL     1      22.678  43.072  50.552  1.00  0.00    -0.270 OA
BRANCH  21  24
HETATM   24  N   UNL     1      24.331  45.019  51.477  1.00  0.00    -0.263 N 
HETATM   25  C   UNL     1      25.607  45.529  51.320  1.00  0.00     0.270 C 
HETATM   26  O   UNL     1      25.912  46.215  50.347  1.00  0.00    -0.266 OA
HETATM   27  H   UNL     1      24.132  44.236  52.099  1.00  0.00     0.190 HD
BRANCH  25  28
HETATM   28  C   UNL     1      26.601  45.174  52.369  1.00  0.00     0.033 A 
HETATM   29  C   UNL     1      26.564  45.868  53.583  1.00  0.00     0.017 A 
HETATM   30  C   UNL     1      27.479  45.563  54.593  1.00  0.00     0.001 A 
HETATM   31  C   UNL     1      28.425  44.558  54.398  1.00  0.00     0.000 A 
HETATM   32  C   UNL     1      28.457  43.852  53.196  1.00  0.00     0.001 A 
HETATM   33  C   UNL     1      27.546  44.153  52.182  1.00  0.00     0.017 A 
ENDBRANCH  25  28
ENDBRANCH  21  24
ENDBRANCH  19  20
ENDBRANCH   1  19
TORSDOF 8
ENDMDL
