MODEL 1
REMARK VINA RESULT:      -9.8      0.000      0.000
REMARK  6 active torsions:
REMARK  status: ('A' for Active; 'I' for Inactive)
REMARK    1  A    between atoms: O_2  and  C_3 
REMARK    2  A    between atoms: C_5  and  N_6 
REMARK    3  A    between atoms: C_7  and  C_9 
REMARK    4  A    between atoms: C_7  and  O_8 
REMARK       I    between atoms: C_9  and  N_10 
REMARK    5  A    between atoms: N_10  and  C_11 
REMARK    6  A    between atoms: C_11  and  C_12 
ROOT
HETATM    1  N   UNL     1      26.646  42.791  51.922  1.00  0.00    -0.254 N 
HETATM    2  C   UNL     1      27.709  41.923  52.464  1.00  0.00     0.256 C 
HETATM    3  C   UNL     1      28.141  40.778  51.568  1.00  0.00     0.034 A 
HETATM    4  C   UNL     1      27.414  40.511  50.420  1.00  0.00     0.048 A 
HETATM    5  N   UNL     1      26.312  41.293  50.131  1.00  0.00    -0.308 N 
HETATM    6  C   UNL     1      25.893  42.380  50.830  1.00  0.00     0.330 C 
HETATM    7  O   UNL     1      24.846  42.900  50.441  1.00  0.00    -0.246 OA
HETATM    8  C   UNL     1      29.226  39.934  51.876  1.00  0.00     0.015 A 
HETATM    9  C   UNL     1      29.579  38.881  51.028  1.00  0.00     0.001 A 
HETATM   10  C   UNL     1      28.843  38.644  49.871  1.00  0.00     0.002 A 
HETATM   11  C   UNL     1      27.752  39.455  49.569  1.00  0.00     0.030 A 
HETATM   12  H   UNL     1      25.737  41.078  49.326  1.00  0.00     0.170 HD
ENDROOT
BRANCH   2  13
HETATM   13  C   UNL     1      29.013  42.780  52.794  1.00  0.00     0.279 C 
HETATM   14  N   UNL     1      29.346  42.759  54.140  1.00  0.00    -0.352 N 
HETATM   15  H   UNL     1      28.819  42.116  54.727  1.00  0.00     0.162 HD
HETATM   16  O   UNL     1      29.679  43.383  51.955  1.00  0.00    -0.268 OA
BRANCH  14  17
HETATM   17  C   UNL     1      30.567  43.332  54.647  1.00  0.00     0.163 C 
BRANCH  17  18
HETATM   18  C   UNL     1      30.288  44.282  55.782  1.00  0.00    -0.019 A 
HETATM   19  C   UNL     1      30.995  44.246  56.994  1.00  0.00     0.042 A 
HETATM   20 CL   UNL     1      32.251  43.093  57.279  1.00  0.00    -0.084 Cl
HETATM   21  C   UNL     1      30.691  45.143  58.024  1.00  0.00     0.024 A 
HETATM   22  C   UNL     1      29.675  46.084  57.857  1.00  0.00     0.002 A 
HETATM   23  C   UNL     1      28.959  46.126  56.665  1.00  0.00     0.001 A 
HETATM   24  C   UNL     1      29.259  45.229  55.637  1.00  0.00     0.010 A 
ENDBRANCH  17  18
ENDBRANCH  14  17
ENDBRANCH   2  13
BRANCH   2  25
HETATM   25  O   UNL     1      27.170  41.285  53.627  1.00  0.00    -0.359 OA
HETATM   26  H   UNL     1      26.692  42.003  54.074  1.00  0.00     0.213 HD
ENDBRANCH   2  25
BRANCH   1  27
HETATM   27  C   UNL     1      26.347  44.063  52.566  1.00  0.00     0.045 A 
HETATM   28  C   UNL     1      26.443  45.271  51.853  1.00  0.00     0.066 A 
HETATM   29  C   UNL     1      26.151  46.511  52.438  1.00  0.00     0.070 A 
HETATM   30  C   UNL     1      25.789  46.570  53.778  1.00  0.00     0.037 A 
HETATM   31  C   UNL     1      25.706  45.393  54.516  1.00  0.00     0.005 A 
HETATM   32  C   UNL     1      25.977  44.157  53.917  1.00  0.00     0.030 A 
BRANCH  29  33
HETATM   33  O   UNL     1      26.285  47.588  51.603  1.00  0.00    -0.356 OA
HETATM   34  C   UNL     1      26.244  47.313  50.208  1.00  0.00     0.210 C 
ENDBRANCH  29  33
ENDBRANCH   1  27
TORSDOF 6
ENDMDL
MODEL 2
REMARK VINA RESULT:      -9.2      1.748      2.444
REMARK  6 active torsions:
REMARK  status: ('A' for Active; 'I' for Inactive)
REMARK    1  A    between atoms: O_2  and  C_3 
REMARK    2  A    between atoms: C_5  and  N_6 
REMARK    3  A    between atoms: C_7  and  C_9 
REMARK    4  A    between atoms: C_7  and  O_8 
REMARK       I    between atoms: C_9  and  N_10 
REMARK    5  A    between atoms: N_10  and  C_11 
REMARK    6  A    between atoms: C_11  and  C_12 
ROOT
HETATM    1  N   UNL     1      26.909  41.938  49.991  1.00  0.00    -0.254 N 
HETATM    2  C   UNL     1      27.517  41.180  51.100  1.00  0.00     0.256 C 
HETATM    3  C   UNL     1      28.419  40.030  50.692  1.00  0.00     0.034 A 
HETATM    4  C   UNL     1      28.470  39.656  49.360  1.00  0.00     0.048 A 
HETATM    5  N   UNL     1      27.691  40.337  48.445  1.00  0.00    -0.308 N 
HETATM    6  C   UNL     1      26.912  41.421  48.702  1.00  0.00     0.330 C 
HETATM    7  O   UNL     1      26.244  41.842  47.756  1.00  0.00    -0.246 OA
HETATM    8  C   UNL     1      29.175  39.286  51.618  1.00  0.00     0.015 A 
HETATM    9  C   UNL     1      29.981  38.225  51.199  1.00  0.00     0.001 A 
HETATM   10  C   UNL     1      30.029  37.879  49.852  1.00  0.00     0.002 A 
HETATM   11  C   UNL     1      29.265  38.590  48.930  1.00  0.00     0.030 A 
HETATM   12  H   UNL     1      27.674  40.043  47.477  1.00  0.00     0.170 HD
ENDROOT
BRANCH   2  13
HETATM   13  C   UNL     1      28.380  42.147  52.029  1.00  0.00     0.279 C 
HETATM   14  N   UNL     1      27.947  42.158  53.347  1.00  0.00    -0.352 N 
HETATM   15  H   UNL     1      27.238  41.472  53.595  1.00  0.00     0.162 HD
HETATM   16  O   UNL     1      29.344  42.805  51.641  1.00  0.00    -0.268 OA
BRANCH  14  17
HETATM   17  C   UNL     1      28.667  42.835  54.395  1.00  0.00     0.163 C 
BRANCH  17  18
HETATM   18  C   UNL     1      28.203  44.262  54.534  1.00  0.00    -0.019 A 
HETATM   19  C   UNL     1      28.957  45.245  55.193  1.00  0.00     0.042 A 
HETATM   20 CL   UNL     1      30.491  44.887  55.906  1.00  0.00    -0.084 Cl
HETATM   21  C   UNL     1      28.477  46.555  55.307  1.00  0.00     0.024 A 
HETATM   22  C   UNL     1      27.239  46.897  54.766  1.00  0.00     0.002 A 
HETATM   23  C   UNL     1      26.475  45.931  54.118  1.00  0.00     0.001 A 
HETATM   24  C   UNL     1      26.950  44.622  54.007  1.00  0.00     0.010 A 
ENDBRANCH  17  18
ENDBRANCH  14  17
ENDBRANCH   2  13
BRANCH   2  25
HETATM   25  O   UNL     1      26.444  40.557  51.814  1.00  0.00    -0.359 OA
HETATM   26  H   UNL     1      26.823  40.402  52.696  1.00  0.00     0.213 HD
ENDBRANCH   2  25
BRANCH   1  27
HETATM   27  C   UNL     1      26.254  43.212  50.254  1.00  0.00     0.045 A 
HETATM   28  C   UNL     1      26.801  44.416  49.776  1.00  0.00     0.066 A 
HETATM   29  C   UNL     1      26.191  45.658  50.001  1.00  0.00     0.070 A 
HETATM   30  C   UNL     1      25.024  45.723  50.752  1.00  0.00     0.037 A 
HETATM   31  C   UNL     1      24.468  44.551  51.256  1.00  0.00     0.005 A 
HETATM   32  C   UNL     1      25.073  43.313  51.007  1.00  0.00     0.030 A 
BRANCH  29  33
HETATM   33  O   UNL     1      26.849  46.730  49.460  1.00  0.00    -0.356 OA
HETATM   34  C   UNL     1      26.253  48.004  49.665  1.00  0.00     0.210 C 
ENDBRANCH  29  33
ENDBRANCH   1  27
TORSDOF 6
ENDMDL
MODEL 3
REMARK VINA RESULT:      -8.9      2.259      6.466
REMARK  6 active torsions:
REMARK  status: ('A' for Active; 'I' for Inactive)
REMARK    1  A    between atoms: O_2  and  C_3 
REMARK    2  A    between atoms: C_5  and  N_6 
REMARK    3  A    between atoms: C_7  and  C_9 
REMARK    4  A    between atoms: C_7  and  O_8 
REMARK       I    between atoms: C_9  and  N_10 
REMARK    5  A    between atoms: N_10  and  C_11 
REMARK    6  A    between atoms: C_11  and  C_12 
ROOT
HETATM    1  N   UNL     1      27.900  44.497  53.039  1.00  0.00    -0.254 N 
HETATM    2  C   UNL     1      29.021  43.602  53.383  1.00  0.00     0.256 C 
HETATM    3  C   UNL     1      29.651  43.834  54.744  1.00  0.00     0.034 A 
HETATM    4  C   UNL     1      29.277  44.947  55.477  1.00  0.00     0.048 A 
HETATM    5  N   UNL     1      28.346  45.817  54.942  1.00  0.00    -0.308 N 
HETATM    6  C   UNL     1      27.676  45.656  53.771  1.00  0.00     0.330 C 
HETATM    7  O   UNL     1      26.934  46.582  53.442  1.00  0.00    -0.246 OA
HETATM    8  C   UNL     1      30.643  42.991  55.280  1.00  0.00     0.015 A 
HETATM    9  C   UNL     1      31.206  43.251  56.531  1.00  0.00     0.001 A 
HETATM   10  C   UNL     1      30.802  44.368  57.257  1.00  0.00     0.002 A 
HETATM   11  C   UNL     1      29.840  45.224  56.726  1.00  0.00     0.030 A 
HETATM   12  H   UNL     1      28.101  46.664  55.439  1.00  0.00     0.170 HD
ENDROOT
BRANCH   2  13
HETATM   13  C   UNL     1      28.551  42.079  53.336  1.00  0.00     0.279 C 
HETATM   14  N   UNL     1      29.123  41.371  52.289  1.00  0.00    -0.352 N 
HETATM   15  H   UNL     1      29.854  41.847  51.766  1.00  0.00     0.162 HD
HETATM   16  O   UNL     1      27.783  41.563  54.145  1.00  0.00    -0.268 OA
BRANCH  14  17
HETATM   17  C   UNL     1      28.968  39.945  52.140  1.00  0.00     0.163 C 
BRANCH  17  18
HETATM   18  C   UNL     1      28.789  39.571  50.692  1.00  0.00    -0.019 A 
HETATM   19  C   UNL     1      29.184  38.327  50.174  1.00  0.00     0.042 A 
HETATM   20 CL   UNL     1      29.918  37.121  51.171  1.00  0.00    -0.084 Cl
HETATM   21  C   UNL     1      29.007  38.030  48.818  1.00  0.00     0.024 A 
HETATM   22  C   UNL     1      28.436  38.972  47.963  1.00  0.00     0.002 A 
HETATM   23  C   UNL     1      28.048  40.213  48.459  1.00  0.00     0.001 A 
HETATM   24  C   UNL     1      28.226  40.513  49.811  1.00  0.00     0.010 A 
ENDBRANCH  17  18
ENDBRANCH  14  17
ENDBRANCH   2  13
BRANCH   2  25
HETATM   25  O   UNL     1      30.072  43.876  52.451  1.00  0.00    -0.359 OA
HETATM   26  H   UNL     1      30.539  43.026  52.385  1.00  0.00     0.213 HD
ENDBRANCH   2  25
BRANCH   1  27
HETATM   27  C   UNL     1      27.055  44.195  51.892  1.00  0.00     0.045 A 
HETATM   28  C   UNL     1      25.749  43.704  52.069  1.00  0.00     0.066 A 
HETATM   29  C   UNL     1      24.903  43.414  50.989  1.00  0.00     0.070 A 
HETATM   30  C   UNL     1      25.370  43.576  49.690  1.00  0.00     0.037 A 
HETATM   31  C   UNL     1      26.666  44.041  49.481  1.00  0.00     0.005 A 
HETATM   32  C   UNL     1      27.494  44.349  50.567  1.00  0.00     0.030 A 
BRANCH  29  33
HETATM   33  O   UNL     1      23.662  42.954  51.336  1.00  0.00    -0.356 OA
HETATM   34  C   UNL     1      22.693  42.911  50.296  1.00  0.00     0.210 C 
ENDBRANCH  29  33
ENDBRANCH   1  27
TORSDOF 6
ENDMDL
MODEL 4
REMARK VINA RESULT:      -8.7      3.487      6.669
REMARK  6 active torsions:
REMARK  status: ('A' for Active; 'I' for Inactive)
REMARK    1  A    between atoms: O_2  and  C_3 
REMARK    2  A    between atoms: C_5  and  N_6 
REMARK    3  A    between atoms: C_7  and  C_9 
REMARK    4  A    between atoms: C_7  and  O_8 
REMARK       I    between atoms: C_9  and  N_10 
REMARK    5  A    between atoms: N_10  and  C_11 
REMARK    6  A    between atoms: C_11  and  C_12 
ROOT
HETATM    1  N   UNL     1      25.756  42.438  50.824  1.00  0.00    -0.254 N 
HETATM    2  C   UNL     1      26.197  43.584  51.641  1.00  0.00     0.256 C 
HETATM    3  C   UNL     1      27.358  43.312  52.579  1.00  0.00     0.034 A 
HETATM    4  C   UNL     1      27.798  42.009  52.745  1.00  0.00     0.048 A 
HETATM    5  N   UNL     1      27.159  40.997  52.055  1.00  0.00    -0.308 N 
HETATM    6  C   UNL     1      26.164  41.150  51.142  1.00  0.00     0.330 C 
HETATM    7  O   UNL     1      25.685  40.110  50.688  1.00  0.00    -0.246 OA
HETATM    8  C   UNL     1      27.983  44.323  53.335  1.00  0.00     0.015 A 
HETATM    9  C   UNL     1      29.040  44.023  54.198  1.00  0.00     0.001 A 
HETATM   10  C   UNL     1      29.475  42.709  54.334  1.00  0.00     0.002 A 
HETATM   11  C   UNL     1      28.848  41.696  53.612  1.00  0.00     0.030 A 
HETATM   12  H   UNL     1      27.431  40.034  52.205  1.00  0.00     0.170 HD
ENDROOT
BRANCH   2  13
HETATM   13  C   UNL     1      26.624  44.803  50.706  1.00  0.00     0.279 C 
HETATM   14  N   UNL     1      26.026  46.000  51.075  1.00  0.00    -0.352 N 
HETATM   15  H   UNL     1      25.506  45.996  51.948  1.00  0.00     0.162 HD
HETATM   16  O   UNL     1      27.414  44.717  49.769  1.00  0.00    -0.268 OA
BRANCH  14  17
HETATM   17  C   UNL     1      26.380  47.261  50.474  1.00  0.00     0.163 C 
BRANCH  17  18
HETATM   18  C   UNL     1      25.219  47.839  49.707  1.00  0.00    -0.019 A 
HETATM   19  C   UNL     1      25.330  48.994  48.918  1.00  0.00     0.042 A 
HETATM   20 CL   UNL     1      26.823  49.853  48.768  1.00  0.00    -0.084 Cl
HETATM   21  C   UNL     1      24.218  49.499  48.234  1.00  0.00     0.024 A 
HETATM   22  C   UNL     1      22.984  48.859  48.332  1.00  0.00     0.002 A 
HETATM   23  C   UNL     1      22.857  47.718  49.118  1.00  0.00     0.001 A 
HETATM   24  C   UNL     1      23.963  47.214  49.805  1.00  0.00     0.010 A 
ENDBRANCH  17  18
ENDBRANCH  14  17
ENDBRANCH   2  13
BRANCH   2  25
HETATM   25  O   UNL     1      25.108  43.919  52.508  1.00  0.00    -0.359 OA
HETATM   26  H   UNL     1      25.498  43.847  53.395  1.00  0.00     0.213 HD
ENDBRANCH   2  25
BRANCH   1  27
HETATM   27  C   UNL     1      24.843  42.650  49.708  1.00  0.00     0.045 A 
HETATM   28  C   UNL     1      23.603  43.283  49.904  1.00  0.00     0.066 A 
HETATM   29  C   UNL     1      22.705  43.513  48.851  1.00  0.00     0.070 A 
HETATM   30  C   UNL     1      23.021  43.074  47.572  1.00  0.00     0.037 A 
HETATM   31  C   UNL     1      24.233  42.425  47.350  1.00  0.00     0.005 A 
HETATM   32  C   UNL     1      25.132  42.220  48.403  1.00  0.00     0.030 A 
BRANCH  29  33
HETATM   33  O   UNL     1      21.547  44.149  49.210  1.00  0.00    -0.356 OA
HETATM   34  C   UNL     1      20.895  44.895  48.190  1.00  0.00     0.210 C 
ENDBRANCH  29  33
ENDBRANCH   1  27
TORSDOF 6
ENDMDL
MODEL 5
REMARK VINA RESULT:      -8.6     12.602     14.545
REMARK  6 active torsions:
REMARK  status: ('A' for Active; 'I' for Inactive)
REMARK    1  A    between atoms: O_2  and  C_3 
REMARK    2  A    between atoms: C_5  and  N_6 
REMARK    3  A    between atoms: C_7  and  C_9 
REMARK    4  A    between atoms: C_7  and  O_8 
REMARK       I    between atoms: C_9  and  N_10 
REMARK    5  A    between atoms: N_10  and  C_11 
REMARK    6  A    between atoms: C_11  and  C_12 
ROOT
HETATM    1  N   UNL     1      28.051  50.183  39.708  1.00  0.00    -0.254 N 
HETATM    2  C   UNL     1      27.835  49.036  40.611  1.00  0.00     0.256 C 
HETATM    3  C   UNL     1      27.055  47.876  40.022  1.00  0.00     0.034 A 
HETATM    4  C   UNL     1      26.454  48.029  38.783  1.00  0.00     0.048 A 
HETATM    5  N   UNL     1      26.578  49.238  38.127  1.00  0.00    -0.308 N 
HETATM    6  C   UNL     1      27.312  50.305  38.539  1.00  0.00     0.330 C 
HETATM    7  O   UNL     1      27.236  51.315  37.838  1.00  0.00    -0.246 OA
HETATM    8  C   UNL     1      26.870  46.656  40.701  1.00  0.00     0.015 A 
HETATM    9  C   UNL     1      26.131  45.620  40.126  1.00  0.00     0.001 A 
HETATM   10  C   UNL     1      25.551  45.792  38.873  1.00  0.00     0.002 A 
HETATM   11  C   UNL     1      25.705  47.003  38.202  1.00  0.00     0.030 A 
HETATM   12  H   UNL     1      26.100  49.387  37.247  1.00  0.00     0.170 HD
ENDROOT
BRANCH   2  13
HETATM   13  C   UNL     1      29.231  48.456  41.117  1.00  0.00     0.279 C 
HETATM   14  N   UNL     1      29.700  49.095  42.255  1.00  0.00    -0.352 N 
HETATM   15  H   UNL     1      29.062  49.749  42.702  1.00  0.00     0.162 HD
HETATM   16  O   UNL     1      29.832  47.526  40.583  1.00  0.00    -0.268 OA
BRANCH  14  17
HETATM   17  C   UNL     1      30.860  48.640  42.980  1.00  0.00     0.163 C 
BRANCH  17  18
HETATM   18  C   UNL     1      32.036  49.551  42.743  1.00  0.00    -0.019 A 
HETATM   19  C   UNL     1      33.090  49.221  41.876  1.00  0.00     0.042 A 
HETATM   20 CL   UNL     1      33.118  47.726  41.009  1.00  0.00    -0.084 Cl
HETATM   21  C   UNL     1      34.167  50.096  41.699  1.00  0.00     0.024 A 
HETATM   22  C   UNL     1      34.207  51.309  42.386  1.00  0.00     0.002 A 
HETATM   23  C   UNL     1      33.174  51.645  43.256  1.00  0.00     0.001 A 
HETATM   24  C   UNL     1      32.099  50.772  43.438  1.00  0.00     0.010 A 
ENDBRANCH  17  18
ENDBRANCH  14  17
ENDBRANCH   2  13
BRANCH   2  25
HETATM   25  O   UNL     1      27.018  49.505  41.689  1.00  0.00    -0.359 OA
HETATM   26  H   UNL     1      26.340  48.814  41.773  1.00  0.00     0.213 HD
ENDBRANCH   2  25
BRANCH   1  27
HETATM   27  C   UNL     1      29.005  51.222  40.070  1.00  0.00     0.045 A 
HETATM   28  C   UNL     1      30.291  51.248  39.502  1.00  0.00     0.066 A 
HETATM   29  C   UNL     1      31.230  52.240  39.817  1.00  0.00     0.070 A 
HETATM   30  C   UNL     1      30.908  53.218  40.750  1.00  0.00     0.037 A 
HETATM   31  C   UNL     1      29.649  53.207  41.346  1.00  0.00     0.005 A 
HETATM   32  C   UNL     1      28.710  52.225  41.007  1.00  0.00     0.030 A 
BRANCH  29  33
HETATM   33  O   UNL     1      32.430  52.125  39.169  1.00  0.00    -0.356 OA
HETATM   34  C   UNL     1      32.500  51.147  38.140  1.00  0.00     0.210 C 
ENDBRANCH  29  33
ENDBRANCH   1  27
TORSDOF 6
ENDMDL
MODEL 6
REMARK VINA RESULT:      -8.6      2.789      6.166
REMARK  6 active torsions:
REMARK  status: ('A' for Active; 'I' for Inactive)
REMARK    1  A    between atoms: O_2  and  C_3 
REMARK    2  A    between atoms: C_5  and  N_6 
REMARK    3  A    between atoms: C_7  and  C_9 
REMARK    4  A    between atoms: C_7  and  O_8 
REMARK       I    between atoms: C_9  and  N_10 
REMARK    5  A    between atoms: N_10  and  C_11 
REMARK    6  A    between atoms: C_11  and  C_12 
ROOT
HETATM    1  N   UNL     1      24.917  43.707  49.054  1.00  0.00    -0.254 N 
HETATM    2  C   UNL     1      25.186  45.031  49.647  1.00  0.00     0.256 C 
HETATM    3  C   UNL     1      24.154  46.103  49.354  1.00  0.00     0.034 A 
HETATM    4  C   UNL     1      23.157  45.842  48.430  1.00  0.00     0.048 A 
HETATM    5  N   UNL     1      23.138  44.613  47.798  1.00  0.00    -0.308 N 
HETATM    6  C   UNL     1      23.972  43.569  48.047  1.00  0.00     0.330 C 
HETATM    7  O   UNL     1      23.829  42.581  47.325  1.00  0.00    -0.246 OA
HETATM    8  C   UNL     1      24.191  47.381  49.944  1.00  0.00     0.015 A 
HETATM    9  C   UNL     1      23.227  48.343  49.633  1.00  0.00     0.001 A 
HETATM   10  C   UNL     1      22.225  48.050  48.713  1.00  0.00     0.002 A 
HETATM   11  C   UNL     1      22.193  46.799  48.103  1.00  0.00     0.030 A 
HETATM   12  H   UNL     1      22.450  44.424  47.080  1.00  0.00     0.170 HD
ENDROOT
BRANCH   2  13
HETATM   13  C   UNL     1      25.306  44.915  51.234  1.00  0.00     0.279 C 
HETATM   14  N   UNL     1      26.598  45.123  51.694  1.00  0.00    -0.352 N 
HETATM   15  H   UNL     1      27.276  45.446  51.007  1.00  0.00     0.162 HD
HETATM   16  O   UNL     1      24.361  44.689  51.987  1.00  0.00    -0.268 OA
BRANCH  14  17
HETATM   17  C   UNL     1      26.917  45.221  53.096  1.00  0.00     0.163 C 
BRANCH  17  18
HETATM   18  C   UNL     1      28.125  44.387  53.434  1.00  0.00    -0.019 A 
HETATM   19  C   UNL     1      28.824  44.519  54.644  1.00  0.00     0.042 A 
HETATM   20 CL   UNL     1      28.346  45.663  55.849  1.00  0.00    -0.084 Cl
HETATM   21  C   UNL     1      29.949  43.729  54.908  1.00  0.00     0.024 A 
HETATM   22  C   UNL     1      30.391  42.802  53.965  1.00  0.00     0.002 A 
HETATM   23  C   UNL     1      29.714  42.666  52.756  1.00  0.00     0.001 A 
HETATM   24  C   UNL     1      28.593  43.455  52.490  1.00  0.00     0.010 A 
ENDBRANCH  17  18
ENDBRANCH  14  17
ENDBRANCH   2  13
BRANCH   2  25
HETATM   25  O   UNL     1      26.390  45.519  49.046  1.00  0.00    -0.359 OA
HETATM   26  H   UNL     1      26.743  46.129  49.716  1.00  0.00     0.213 HD
ENDBRANCH   2  25
BRANCH   1  27
HETATM   27  C   UNL     1      25.685  42.548  49.486  1.00  0.00     0.045 A 
HETATM   28  C   UNL     1      26.818  42.126  48.767  1.00  0.00     0.066 A 
HETATM   29  C   UNL     1      27.587  41.021  49.161  1.00  0.00     0.070 A 
HETATM   30  C   UNL     1      27.208  40.284  50.276  1.00  0.00     0.037 A 
HETATM   31  C   UNL     1      26.079  40.664  50.997  1.00  0.00     0.005 A 
HETATM   32  C   UNL     1      25.331  41.782  50.609  1.00  0.00     0.030 A 
BRANCH  29  33
HETATM   33  O   UNL     1      28.661  40.751  48.356  1.00  0.00    -0.356 OA
HETATM   34  C   UNL     1      28.400  40.674  46.961  1.00  0.00     0.210 C 
ENDBRANCH  29  33
ENDBRANCH   1  27
TORSDOF 6
ENDMDL
MODEL 7
REMARK VINA RESULT:      -8.4      3.151      6.231
REMARK  6 active torsions:
REMARK  status: ('A' for Active; 'I' for Inactive)
REMARK    1  A    between atoms: O_2  and  C_3 
REMARK    2  A    between atoms: C_5  and  N_6 
REMARK    3  A    between atoms: C_7  and  C_9 
REMARK    4  A    between atoms: C_7  and  O_8 
REMARK       I    between atoms: C_9  and  N_10 
REMARK    5  A    between atoms: N_10  and  C_11 
REMARK    6  A    between atoms: C_11  and  C_12 
ROOT
HETATM    1  N   UNL     1      25.702  44.073  51.780  1.00  0.00    -0.254 N 
HETATM    2  C   UNL     1      27.065  43.775  51.302  1.00  0.00     0.256 C 
HETATM    3  C   UNL     1      28.082  43.448  52.379  1.00  0.00     0.034 A 
HETATM    4  C   UNL     1      27.733  43.624  53.708  1.00  0.00     0.048 A 
HETATM    5  N   UNL     1      26.472  44.100  54.009  1.00  0.00    -0.308 N 
HETATM    6  C   UNL     1      25.473  44.349  53.122  1.00  0.00     0.330 C 
HETATM    7  O   UNL     1      24.442  44.833  53.591  1.00  0.00    -0.246 OA
HETATM    8  C   UNL     1      29.391  43.018  52.089  1.00  0.00     0.015 A 
HETATM    9  C   UNL     1      30.299  42.742  53.115  1.00  0.00     0.001 A 
HETATM   10  C   UNL     1      29.920  42.912  54.443  1.00  0.00     0.002 A 
HETATM   11  C   UNL     1      28.636  43.361  54.742  1.00  0.00     0.030 A 
HETATM   12  H   UNL     1      26.219  44.287  54.971  1.00  0.00     0.170 HD
ENDROOT
BRANCH   2  13
HETATM   13  C   UNL     1      27.042  42.543  50.288  1.00  0.00     0.279 C 
HETATM   14  N   UNL     1      26.731  41.341  50.907  1.00  0.00    -0.352 N 
HETATM   15  H   UNL     1      26.433  41.396  51.878  1.00  0.00     0.162 HD
HETATM   16  O   UNL     1      27.252  42.633  49.081  1.00  0.00    -0.268 OA
BRANCH  14  17
HETATM   17  C   UNL     1      26.501  40.124  50.169  1.00  0.00     0.163 C 
BRANCH  17  18
HETATM   18  C   UNL     1      27.792  39.388  49.926  1.00  0.00    -0.019 A 
HETATM   19  C   UNL     1      28.131  38.839  48.680  1.00  0.00     0.042 A 
HETATM   20 CL   UNL     1      27.077  38.966  47.315  1.00  0.00    -0.084 Cl
HETATM   21  C   UNL     1      29.338  38.153  48.507  1.00  0.00     0.024 A 
HETATM   22  C   UNL     1      30.220  38.004  49.576  1.00  0.00     0.002 A 
HETATM   23  C   UNL     1      29.894  38.535  50.821  1.00  0.00     0.001 A 
HETATM   24  C   UNL     1      28.688  39.217  50.997  1.00  0.00     0.010 A 
ENDBRANCH  17  18
ENDBRANCH  14  17
ENDBRANCH   2  13
BRANCH   2  25
HETATM   25  O   UNL     1      27.561  44.971  50.691  1.00  0.00    -0.359 OA
HETATM   26  H   UNL     1      28.010  45.426  51.424  1.00  0.00     0.213 HD
ENDBRANCH   2  25
BRANCH   1  27
HETATM   27  C   UNL     1      24.596  44.132  50.834  1.00  0.00     0.045 A 
HETATM   28  C   UNL     1      24.296  45.324  50.151  1.00  0.00     0.066 A 
HETATM   29  C   UNL     1      23.247  45.414  49.225  1.00  0.00     0.070 A 
HETATM   30  C   UNL     1      22.442  44.306  48.991  1.00  0.00     0.037 A 
HETATM   31  C   UNL     1      22.701  43.116  49.667  1.00  0.00     0.005 A 
HETATM   32  C   UNL     1      23.765  43.031  50.573  1.00  0.00     0.030 A 
BRANCH  29  33
HETATM   33  O   UNL     1      23.096  46.643  48.642  1.00  0.00    -0.356 OA
HETATM   34  C   UNL     1      23.649  47.747  49.347  1.00  0.00     0.210 C 
ENDBRANCH  29  33
ENDBRANCH   1  27
TORSDOF 6
ENDMDL
MODEL 8
REMARK VINA RESULT:      -8.3      3.857      8.049
REMARK  6 active torsions:
REMARK  status: ('A' for Active; 'I' for Inactive)
REMARK    1  A    between atoms: O_2  and  C_3 
REMARK    2  A    between atoms: C_5  and  N_6 
REMARK    3  A    between atoms: C_7  and  C_9 
REMARK    4  A    between atoms: C_7  and  O_8 
REMARK       I    between atoms: C_9  and  N_10 
REMARK    5  A    between atoms: N_10  and  C_11 
REMARK    6  A    between atoms: C_11  and  C_12 
ROOT
HETATM    1  N   UNL     1      26.489  43.523  52.067  1.00  0.00    -0.254 N 
HETATM    2  C   UNL     1      25.845  44.802  52.423  1.00  0.00     0.256 C 
HETATM    3  C   UNL     1      26.536  45.602  53.510  1.00  0.00     0.034 A 
HETATM    4  C   UNL     1      27.582  45.025  54.210  1.00  0.00     0.048 A 
HETATM    5  N   UNL     1      27.959  43.732  53.899  1.00  0.00    -0.308 N 
HETATM    6  C   UNL     1      27.452  42.966  52.898  1.00  0.00     0.330 C 
HETATM    7  O   UNL     1      27.881  41.814  52.830  1.00  0.00    -0.246 OA
HETATM    8  C   UNL     1      26.128  46.899  53.880  1.00  0.00     0.015 A 
HETATM    9  C   UNL     1      26.784  47.594  54.899  1.00  0.00     0.001 A 
HETATM   10  C   UNL     1      27.844  46.998  55.576  1.00  0.00     0.002 A 
HETATM   11  C   UNL     1      28.240  45.706  55.237  1.00  0.00     0.030 A 
HETATM   12  H   UNL     1      28.684  43.274  54.436  1.00  0.00     0.170 HD
ENDROOT
BRANCH   2  13
HETATM   13  C   UNL     1      25.737  45.745  51.141  1.00  0.00     0.279 C 
HETATM   14  N   UNL     1      24.429  46.098  50.841  1.00  0.00    -0.352 N 
HETATM   15  H   UNL     1      23.721  45.835  51.523  1.00  0.00     0.162 HD
HETATM   16  O   UNL     1      26.699  46.146  50.490  1.00  0.00    -0.268 OA
BRANCH  14  17
HETATM   17  C   UNL     1      24.100  47.065  49.824  1.00  0.00     0.163 C 
BRANCH  17  18
HETATM   18  C   UNL     1      23.198  46.463  48.778  1.00  0.00    -0.019 A 
HETATM   19  C   UNL     1      22.177  47.189  48.146  1.00  0.00     0.042 A 
HETATM   20 CL   UNL     1      21.872  48.847  48.528  1.00  0.00    -0.084 Cl
HETATM   21  C   UNL     1      21.358  46.582  47.188  1.00  0.00     0.024 A 
HETATM   22  C   UNL     1      21.546  45.241  46.852  1.00  0.00     0.002 A 
HETATM   23  C   UNL     1      22.548  44.506  47.478  1.00  0.00     0.001 A 
HETATM   24  C   UNL     1      23.365  45.109  48.436  1.00  0.00     0.010 A 
ENDBRANCH  17  18
ENDBRANCH  14  17
ENDBRANCH   2  13
BRANCH   2  25
HETATM   25  O   UNL     1      24.563  44.482  52.972  1.00  0.00    -0.359 OA
HETATM   26  H   UNL     1      23.969  44.547  52.205  1.00  0.00     0.213 HD
ENDBRANCH   2  25
BRANCH   1  27
HETATM   27  C   UNL     1      26.074  42.810  50.866  1.00  0.00     0.045 A 
HETATM   28  C   UNL     1      26.999  42.517  49.848  1.00  0.00     0.066 A 
HETATM   29  C   UNL     1      26.639  41.823  48.684  1.00  0.00     0.070 A 
HETATM   30  C   UNL     1      25.317  41.437  48.498  1.00  0.00     0.037 A 
HETATM   31  C   UNL     1      24.373  41.731  49.478  1.00  0.00     0.005 A 
HETATM   32  C   UNL     1      24.748  42.405  50.647  1.00  0.00     0.030 A 
BRANCH  29  33
HETATM   33  O   UNL     1      27.661  41.611  47.799  1.00  0.00    -0.356 OA
HETATM   34  C   UNL     1      28.537  40.531  48.094  1.00  0.00     0.210 C 
ENDBRANCH  29  33
ENDBRANCH   1  27
TORSDOF 6
ENDMDL
MODEL 9
REMARK VINA RESULT:      -8.2      1.991      3.091
REMARK  6 active torsions:
REMARK  status: ('A' for Active; 'I' for Inactive)
REMARK    1  A    between atoms: O_2  and  C_3 
REMARK    2  A    between atoms: C_5  and  N_6 
REMARK    3  A    between atoms: C_7  and  C_9 
REMARK    4  A    between atoms: C_7  and  O_8 
REMARK       I    between atoms: C_9  and  N_10 
REMARK    5  A    between atoms: N_10  and  C_11 
REMARK    6  A    between atoms: C_11  and  C_12 
ROOT
HETATM    1  N   UNL     1      26.403  44.384  50.957  1.00  0.00    -0.254 N 
HETATM    2  C   UNL     1      26.313  44.005  52.379  1.00  0.00     0.256 C 
HETATM    3  C   UNL     1      27.131  42.795  52.789  1.00  0.00     0.034 A 
HETATM    4  C   UNL     1      27.745  42.035  51.807  1.00  0.00     0.048 A 
HETATM    5  N   UNL     1      27.584  42.399  50.484  1.00  0.00    -0.308 N 
HETATM    6  C   UNL     1      26.934  43.501  50.027  1.00  0.00     0.330 C 
HETATM    7  O   UNL     1      26.849  43.608  48.802  1.00  0.00    -0.246 OA
HETATM    8  C   UNL     1      27.258  42.375  54.127  1.00  0.00     0.015 A 
HETATM    9  C   UNL     1      28.012  41.246  54.456  1.00  0.00     0.001 A 
HETATM   10  C   UNL     1      28.632  40.508  53.453  1.00  0.00     0.002 A 
HETATM   11  C   UNL     1      28.493  40.898  52.123  1.00  0.00     0.030 A 
HETATM   12  H   UNL     1      27.979  41.824  49.750  1.00  0.00     0.170 HD
ENDROOT
BRANCH   2  13
HETATM   13  C   UNL     1      26.768  45.218  53.309  1.00  0.00     0.279 C 
HETATM   14  N   UNL     1      27.990  44.994  53.928  1.00  0.00    -0.352 N 
HETATM   15  H   UNL     1      28.505  44.169  53.627  1.00  0.00     0.162 HD
HETATM   16  O   UNL     1      26.130  46.258  53.457  1.00  0.00    -0.268 OA
BRANCH  14  17
HETATM   17  C   UNL     1      28.673  46.009  54.688  1.00  0.00     0.163 C 
BRANCH  17  18
HETATM   18  C   UNL     1      29.549  45.394  55.748  1.00  0.00    -0.019 A 
HETATM   19  C   UNL     1      30.396  44.303  55.494  1.00  0.00     0.042 A 
HETATM   20 CL   UNL     1      30.494  43.575  53.929  1.00  0.00    -0.084 Cl
HETATM   21  C   UNL     1      31.182  43.759  56.515  1.00  0.00     0.024 A 
HETATM   22  C   UNL     1      31.131  44.294  57.801  1.00  0.00     0.002 A 
HETATM   23  C   UNL     1      30.289  45.369  58.071  1.00  0.00     0.001 A 
HETATM   24  C   UNL     1      29.501  45.912  57.054  1.00  0.00     0.010 A 
ENDBRANCH  17  18
ENDBRANCH  14  17
ENDBRANCH   2  13
BRANCH   2  25
HETATM   25  O   UNL     1      24.956  43.616  52.620  1.00  0.00    -0.359 OA
HETATM   26  H   UNL     1      24.972  42.654  52.485  1.00  0.00     0.213 HD
ENDBRANCH   2  25
BRANCH   1  27
HETATM   27  C   UNL     1      25.883  45.671  50.514  1.00  0.00     0.045 A 
HETATM   28  C   UNL     1      26.755  46.709  50.140  1.00  0.00     0.066 A 
HETATM   29  C   UNL     1      26.290  47.955  49.697  1.00  0.00     0.070 A 
HETATM   30  C   UNL     1      24.924  48.203  49.656  1.00  0.00     0.037 A 
HETATM   31  C   UNL     1      24.035  47.202  50.040  1.00  0.00     0.005 A 
HETATM   32  C   UNL     1      24.509  45.953  50.459  1.00  0.00     0.030 A 
BRANCH  29  33
HETATM   33  O   UNL     1      27.270  48.851  49.363  1.00  0.00    -0.356 OA
HETATM   34  C   UNL     1      26.881  49.925  48.516  1.00  0.00     0.210 C 
ENDBRANCH  29  33
ENDBRANCH   1  27
TORSDOF 6
ENDMDL
MODEL 10
REMARK VINA RESULT:      -8.2      3.700      7.391
REMARK  6 active torsions:
REMARK  status: ('A' for Active; 'I' for Inactive)
REMARK    1  A    between atoms: O_2  and  C_3 
REMARK    2  A    between atoms: C_5  and  N_6 
REMARK    3  A    between atoms: C_7  and  C_9 
REMARK    4  A    between atoms: C_7  and  O_8 
REMARK       I    between atoms: C_9  and  N_10 
REMARK    5  A    between atoms: N_10  and  C_11 
REMARK    6  A    between atoms: C_11  and  C_12 
ROOT
HETATM    1  N   UNL     1      27.300  41.859  50.738  1.00  0.00    -0.254 N 
HETATM    2  C   UNL     1      26.938  43.029  51.560  1.00  0.00     0.256 C 
HETATM    3  C   UNL     1      27.914  43.381  52.666  1.00  0.00     0.034 A 
HETATM    4  C   UNL     1      28.951  42.509  52.951  1.00  0.00     0.048 A 
HETATM    5  N   UNL     1      29.059  41.341  52.222  1.00  0.00    -0.308 N 
HETATM    6  C   UNL     1      28.281  40.975  51.169  1.00  0.00     0.330 C 
HETATM    7  O   UNL     1      28.502  39.859  50.697  1.00  0.00    -0.246 OA
HETATM    8  C   UNL     1      27.786  44.539  53.458  1.00  0.00     0.015 A 
HETATM    9  C   UNL     1      28.701  44.816  54.477  1.00  0.00     0.001 A 
HETATM   10  C   UNL     1      29.744  43.931  54.733  1.00  0.00     0.002 A 
HETATM   11  C   UNL     1      29.866  42.770  53.974  1.00  0.00     0.030 A 
HETATM   12  H   UNL     1      29.777  40.666  52.452  1.00  0.00     0.170 HD
ENDROOT
BRANCH   2  13
HETATM   13  C   UNL     1      26.779  44.325  50.642  1.00  0.00     0.279 C 
HETATM   14  N   UNL     1      25.510  44.881  50.709  1.00  0.00    -0.352 N 
HETATM   15  H   UNL     1      24.883  44.494  51.411  1.00  0.00     0.162 HD
HETATM   16  O   UNL     1      27.681  44.807  49.960  1.00  0.00    -0.268 OA
BRANCH  14  17
HETATM   17  C   UNL     1      25.180  46.139  50.089  1.00  0.00     0.163 C 
BRANCH  17  18
HETATM   18  C   UNL     1      23.994  45.995  49.172  1.00  0.00    -0.019 A 
HETATM   19  C   UNL     1      23.139  47.064  48.863  1.00  0.00     0.042 A 
HETATM   20 CL   UNL     1      23.384  48.644  49.521  1.00  0.00    -0.084 Cl
HETATM   21  C   UNL     1      22.042  46.877  48.014  1.00  0.00     0.024 A 
HETATM   22  C   UNL     1      21.784  45.621  47.468  1.00  0.00     0.002 A 
HETATM   23  C   UNL     1      22.617  44.549  47.773  1.00  0.00     0.001 A 
HETATM   24  C   UNL     1      23.710  44.732  48.622  1.00  0.00     0.010 A 
ENDBRANCH  17  18
ENDBRANCH  14  17
ENDBRANCH   2  13
BRANCH   2  25
HETATM   25  O   UNL     1      25.725  42.697  52.244  1.00  0.00    -0.359 OA
HETATM   26  H   UNL     1      26.027  42.125  52.969  1.00  0.00     0.213 HD
ENDBRANCH   2  25
BRANCH   1  27
HETATM   27  C   UNL     1      26.589  41.595  49.495  1.00  0.00     0.045 A 
HETATM   28  C   UNL     1      25.193  41.426  49.486  1.00  0.00     0.066 A 
HETATM   29  C   UNL     1      24.475  41.183  48.306  1.00  0.00     0.070 A 
HETATM   30  C   UNL     1      25.155  41.064  47.101  1.00  0.00     0.037 A 
HETATM   31  C   UNL     1      26.541  41.206  47.080  1.00  0.00     0.005 A 
HETATM   32  C   UNL     1      27.246  41.471  48.260  1.00  0.00     0.030 A 
BRANCH  29  33
HETATM   33  O   UNL     1      23.122  41.052  48.471  1.00  0.00    -0.356 OA
HETATM   34  C   UNL     1      22.381  40.668  47.320  1.00  0.00     0.210 C 
ENDBRANCH  29  33
ENDBRANCH   1  27
TORSDOF 6
ENDMDL
