MODEL 1
REMARK VINA RESULT:     -10.0      0.000      0.000
REMARK  5 active torsions:
REMARK  status: ('A' for Active; 'I' for Inactive)
REMARK    1  A    between atoms: C_6  and  O_7 
REMARK    2  A    between atoms: O_7  and  C_8 
REMARK    3  A    between atoms: C_8  and  C_9 
REMARK       I    between atoms: C_9  and  N_10 
REMARK    4  A    between atoms: N_10  and  N_11 
REMARK    5  A    between atoms: C_12  and  C_13 
ROOT
HETATM    1  C   UNL     1      26.030  46.652  53.741  1.00  0.00     0.261 C 
HETATM    2  N   UNL     1      25.985  46.471  52.367  1.00  0.00    -0.246 N 
HETATM    3  O   UNL     1      25.674  47.667  54.336  1.00  0.00    -0.269 OA
HETATM    4  H   UNL     1      26.268  45.578  51.970  1.00  0.00     0.192 HD
ENDROOT
BRANCH   2   5
HETATM    5  N   UNL     1      25.567  47.495  51.573  1.00  0.00    -0.184 NA
HETATM    6  C   UNL     1      25.712  47.346  50.298  1.00  0.00     0.153 C 
BRANCH   6   7
HETATM    7  C   UNL     1      25.309  48.419  49.406  1.00  0.00     0.018 A 
HETATM    8  C   UNL     1      23.984  48.774  48.974  1.00  0.00     0.004 A 
HETATM    9  C   UNL     1      24.100  49.882  48.134  1.00  0.00     0.043 A 
HETATM   10  C   UNL     1      22.693  48.259  49.218  1.00  0.00     0.014 A 
HETATM   11  C   UNL     1      22.996  50.500  47.532  1.00  0.00     0.030 A 
HETATM   12  N   UNL     1      25.436  50.189  48.054  1.00  0.00    -0.358 N 
HETATM   13  C   UNL     1      21.731  49.968  47.794  1.00  0.00     0.002 A 
HETATM   14  C   UNL     1      21.577  48.862  48.624  1.00  0.00     0.001 A 
HETATM   15  H   UNL     1      25.805  50.958  47.511  1.00  0.00     0.166 HD
HETATM   16  C   UNL     1      26.183  49.322  48.812  1.00  0.00     0.018 A 
HETATM   17  C   UNL     1      27.661  49.458  48.899  1.00  0.00     0.069 C 
ENDBRANCH   6   7
ENDBRANCH   2   5
BRANCH   1  18
HETATM   18  C   UNL     1      26.671  45.488  54.489  1.00  0.00     0.280 C 
BRANCH  18  19
HETATM   19  O   UNL     1      27.850  45.008  53.848  1.00  0.00    -0.341 OA
BRANCH  19  20
HETATM   20  C   UNL     1      28.869  44.656  54.700  1.00  0.00     0.086 A 
HETATM   21  C   UNL     1      29.592  43.490  54.414  1.00  0.00     0.044 A 
HETATM   22  C   UNL     1      30.649  43.084  55.237  1.00  0.00     0.028 A 
HETATM   23 BR   UNL     1      29.153  42.400  52.920  1.00  0.00    -0.048 Br
HETATM   24  C   UNL     1      31.017  43.854  56.346  1.00  0.00    -0.061 A 
HETATM   25  C   UNL     1      32.128  43.416  57.255  1.00  0.00     0.048 C 
HETATM   26  C   UNL     1      30.303  45.023  56.626  1.00  0.00     0.009 A 
HETATM   27  C   UNL     1      29.245  45.426  55.806  1.00  0.00     0.039 A 
ENDBRANCH  19  20
ENDBRANCH  18  19
ENDBRANCH   1  18
TORSDOF 5
ENDMDL
MODEL 2
REMARK VINA RESULT:      -9.3      1.900      2.409
REMARK  5 active torsions:
REMARK  status: ('A' for Active; 'I' for Inactive)
REMARK    1  A    between atoms: C_6  and  O_7 
REMARK    2  A    between atoms: O_7  and  C_8 
REMARK    3  A    between atoms: C_8  and  C_9 
REMARK       I    between atoms: C_9  and  N_10 
REMARK    4  A    between atoms: N_10  and  N_11 
REMARK    5  A    between atoms: C_12  and  C_13 
ROOT
HETATM    1  C   UNL     1      26.709  44.181  50.730  1.00  0.00     0.261 C 
HETATM    2  N   UNL     1      25.508  44.873  50.772  1.00  0.00    -0.246 N 
HETATM    3  O   UNL     1      27.659  44.450  49.997  1.00  0.00    -0.269 OA
HETATM    4  H   UNL     1      24.794  44.597  51.441  1.00  0.00     0.192 HD
ENDROOT
BRANCH   2   5
HETATM    5  N   UNL     1      25.306  45.908  49.912  1.00  0.00    -0.184 NA
HETATM    6  C   UNL     1      25.531  47.098  50.363  1.00  0.00     0.153 C 
BRANCH   6   7
HETATM    7  C   UNL     1      25.304  48.242  49.497  1.00  0.00     0.018 A 
HETATM    8  C   UNL     1      24.054  48.782  49.036  1.00  0.00     0.004 A 
HETATM    9  C   UNL     1      24.344  49.890  48.240  1.00  0.00     0.043 A 
HETATM   10  C   UNL     1      22.698  48.436  49.220  1.00  0.00     0.014 A 
HETATM   11  C   UNL     1      23.353  50.667  47.625  1.00  0.00     0.030 A 
HETATM   12  N   UNL     1      25.710  50.021  48.212  1.00  0.00    -0.358 N 
HETATM   13  C   UNL     1      22.020  50.299  47.827  1.00  0.00     0.002 A 
HETATM   14  C   UNL     1      21.693  49.199  48.613  1.00  0.00     0.001 A 
HETATM   15  H   UNL     1      26.196  50.750  47.708  1.00  0.00     0.166 HD
HETATM   16  C   UNL     1      26.310  49.040  48.963  1.00  0.00     0.018 A 
HETATM   17  C   UNL     1      27.789  48.976  49.102  1.00  0.00     0.069 C 
ENDBRANCH   6   7
ENDBRANCH   2   5
BRANCH   1  18
HETATM   18  C   UNL     1      26.736  42.949  51.629  1.00  0.00     0.280 C 
BRANCH  18  19
HETATM   19  O   UNL     1      26.520  43.269  53.001  1.00  0.00    -0.341 OA
BRANCH  19  20
HETATM   20  C   UNL     1      27.663  43.489  53.731  1.00  0.00     0.086 A 
HETATM   21  C   UNL     1      27.807  44.729  54.368  1.00  0.00     0.044 A 
HETATM   22  C   UNL     1      28.944  45.010  55.136  1.00  0.00     0.028 A 
HETATM   23 BR   UNL     1      26.486  46.085  54.198  1.00  0.00    -0.048 Br
HETATM   24  C   UNL     1      29.943  44.044  55.299  1.00  0.00    -0.061 A 
HETATM   25  C   UNL     1      31.181  44.342  56.093  1.00  0.00     0.048 C 
HETATM   26  C   UNL     1      29.795  42.804  54.671  1.00  0.00     0.009 A 
HETATM   27  C   UNL     1      28.662  42.525  53.902  1.00  0.00     0.039 A 
ENDBRANCH  19  20
ENDBRANCH  18  19
ENDBRANCH   1  18
TORSDOF 5
ENDMDL
MODEL 3
REMARK VINA RESULT:      -9.2      2.975      9.678
REMARK  5 active torsions:
REMARK  status: ('A' for Active; 'I' for Inactive)
REMARK    1  A    between atoms: C_6  and  O_7 
REMARK    2  A    between atoms: O_7  and  C_8 
REMARK    3  A    between atoms: C_8  and  C_9 
REMARK       I    between atoms: C_9  and  N_10 
REMARK    4  A    between atoms: N_10  and  N_11 
REMARK    5  A    between atoms: C_12  and  C_13 
ROOT
HETATM    1  C   UNL     1      24.883  46.880  50.526  1.00  0.00     0.261 C 
HETATM    2  N   UNL     1      25.416  45.726  51.080  1.00  0.00    -0.246 N 
HETATM    3  O   UNL     1      25.300  48.020  50.720  1.00  0.00    -0.269 OA
HETATM    4  H   UNL     1      25.024  44.822  50.829  1.00  0.00     0.192 HD
ENDROOT
BRANCH   2   5
HETATM    5  N   UNL     1      26.454  45.826  51.955  1.00  0.00    -0.184 NA
HETATM    6  C   UNL     1      26.196  45.593  53.200  1.00  0.00     0.153 C 
BRANCH   6   7
HETATM    7  C   UNL     1      27.259  45.713  54.182  1.00  0.00     0.018 A 
HETATM    8  C   UNL     1      28.357  44.817  54.427  1.00  0.00     0.004 A 
HETATM    9  C   UNL     1      29.122  45.364  55.457  1.00  0.00     0.043 A 
HETATM   10  C   UNL     1      28.775  43.589  53.871  1.00  0.00     0.014 A 
HETATM   11  C   UNL     1      30.281  44.751  55.952  1.00  0.00     0.030 A 
HETATM   12  N   UNL     1      28.520  46.541  55.826  1.00  0.00    -0.358 N 
HETATM   13  C   UNL     1      30.670  43.536  55.381  1.00  0.00     0.002 A 
HETATM   14  C   UNL     1      29.929  42.960  54.354  1.00  0.00     0.001 A 
HETATM   15  H   UNL     1      28.871  47.149  56.554  1.00  0.00     0.166 HD
HETATM   16  C   UNL     1      27.396  46.773  55.071  1.00  0.00     0.018 A 
HETATM   17  C   UNL     1      26.575  47.995  55.274  1.00  0.00     0.069 C 
ENDBRANCH   6   7
ENDBRANCH   2   5
BRANCH   1  18
HETATM   18  C   UNL     1      23.627  46.634  49.696  1.00  0.00     0.280 C 
BRANCH  18  19
HETATM   19  O   UNL     1      23.579  47.443  48.523  1.00  0.00    -0.341 OA
BRANCH  19  20
HETATM   20  C   UNL     1      22.678  48.479  48.571  1.00  0.00     0.086 A 
HETATM   21  C   UNL     1      23.152  49.774  48.321  1.00  0.00     0.044 A 
HETATM   22  C   UNL     1      22.282  50.870  48.343  1.00  0.00     0.028 A 
HETATM   23 BR   UNL     1      24.991  50.100  47.968  1.00  0.00    -0.048 Br
HETATM   24  C   UNL     1      20.917  50.685  48.591  1.00  0.00    -0.061 A 
HETATM   25  C   UNL     1      19.978  51.853  48.649  1.00  0.00     0.048 C 
HETATM   26  C   UNL     1      20.443  49.392  48.831  1.00  0.00     0.009 A 
HETATM   27  C   UNL     1      21.312  48.298  48.812  1.00  0.00     0.039 A 
ENDBRANCH  19  20
ENDBRANCH  18  19
ENDBRANCH   1  18
TORSDOF 5
ENDMDL
MODEL 4
REMARK VINA RESULT:      -9.1      2.672      9.633
REMARK  5 active torsions:
REMARK  status: ('A' for Active; 'I' for Inactive)
REMARK    1  A    between atoms: C_6  and  O_7 
REMARK    2  A    between atoms: O_7  and  C_8 
REMARK    3  A    between atoms: C_8  and  C_9 
REMARK       I    between atoms: C_9  and  N_10 
REMARK    4  A    between atoms: N_10  and  N_11 
REMARK    5  A    between atoms: C_12  and  C_13 
ROOT
HETATM    1  C   UNL     1      25.927  44.948  51.684  1.00  0.00     0.261 C 
HETATM    2  N   UNL     1      26.051  45.157  53.049  1.00  0.00    -0.246 N 
HETATM    3  O   UNL     1      26.612  44.175  51.018  1.00  0.00    -0.269 OA
HETATM    4  H   UNL     1      25.411  45.792  53.520  1.00  0.00     0.192 HD
ENDROOT
BRANCH   2   5
HETATM    5  N   UNL     1      27.033  44.510  53.735  1.00  0.00    -0.184 NA
HETATM    6  C   UNL     1      28.104  45.183  54.002  1.00  0.00     0.153 C 
BRANCH   6   7
HETATM    7  C   UNL     1      29.196  44.533  54.706  1.00  0.00     0.018 A 
HETATM    8  C   UNL     1      29.748  44.856  55.994  1.00  0.00     0.004 A 
HETATM    9  C   UNL     1      30.770  43.942  56.253  1.00  0.00     0.043 A 
HETATM   10  C   UNL     1      29.476  45.840  56.969  1.00  0.00     0.014 A 
HETATM   11  C   UNL     1      31.527  43.960  57.432  1.00  0.00     0.030 A 
HETATM   12  N   UNL     1      30.841  43.100  55.171  1.00  0.00    -0.358 N 
HETATM   13  C   UNL     1      31.233  44.945  58.378  1.00  0.00     0.002 A 
HETATM   14  C   UNL     1      30.223  45.875  58.153  1.00  0.00     0.001 A 
HETATM   15  H   UNL     1      31.498  42.335  55.096  1.00  0.00     0.166 HD
HETATM   16  C   UNL     1      29.902  43.436  54.227  1.00  0.00     0.018 A 
HETATM   17  C   UNL     1      29.770  42.661  52.966  1.00  0.00     0.069 C 
ENDBRANCH   6   7
ENDBRANCH   2   5
BRANCH   1  18
HETATM   18  C   UNL     1      24.898  45.857  51.020  1.00  0.00     0.280 C 
BRANCH  18  19
HETATM   19  O   UNL     1      25.390  46.457  49.823  1.00  0.00    -0.341 OA
BRANCH  19  20
HETATM   20  C   UNL     1      24.736  47.603  49.440  1.00  0.00     0.086 A 
HETATM   21  C   UNL     1      25.512  48.713  49.081  1.00  0.00     0.044 A 
HETATM   22  C   UNL     1      24.906  49.907  48.671  1.00  0.00     0.028 A 
HETATM   23 BR   UNL     1      27.410  48.657  49.160  1.00  0.00    -0.048 Br
HETATM   24  C   UNL     1      23.512  49.999  48.588  1.00  0.00    -0.061 A 
HETATM   25  C   UNL     1      22.847  51.281  48.180  1.00  0.00     0.048 C 
HETATM   26  C   UNL     1      22.738  48.889  48.938  1.00  0.00     0.009 A 
HETATM   27  C   UNL     1      23.344  47.699  49.351  1.00  0.00     0.039 A 
ENDBRANCH  19  20
ENDBRANCH  18  19
ENDBRANCH   1  18
TORSDOF 5
ENDMDL
MODEL 5
REMARK VINA RESULT:      -9.0      1.466      2.185
REMARK  5 active torsions:
REMARK  status: ('A' for Active; 'I' for Inactive)
REMARK    1  A    between atoms: C_6  and  O_7 
REMARK    2  A    between atoms: O_7  and  C_8 
REMARK    3  A    between atoms: C_8  and  C_9 
REMARK       I    between atoms: C_9  and  N_10 
REMARK    4  A    between atoms: N_10  and  N_11 
REMARK    5  A    between atoms: C_12  and  C_13 
ROOT
HETATM    1  C   UNL     1      26.164  47.256  53.540  1.00  0.00     0.261 C 
HETATM    2  N   UNL     1      25.984  46.706  52.280  1.00  0.00    -0.246 N 
HETATM    3  O   UNL     1      25.395  48.045  54.087  1.00  0.00    -0.269 OA
HETATM    4  H   UNL     1      26.658  46.031  51.927  1.00  0.00     0.192 HD
ENDROOT
BRANCH   2   5
HETATM    5  N   UNL     1      24.909  47.084  51.535  1.00  0.00    -0.184 NA
HETATM    6  C   UNL     1      24.917  46.757  50.285  1.00  0.00     0.153 C 
BRANCH   6   7
HETATM    7  C   UNL     1      23.808  47.159  49.437  1.00  0.00     0.018 A 
HETATM    8  C   UNL     1      23.476  48.474  48.962  1.00  0.00     0.004 A 
HETATM    9  C   UNL     1      22.334  48.357  48.168  1.00  0.00     0.043 A 
HETATM   10  C   UNL     1      24.038  49.758  49.129  1.00  0.00     0.014 A 
HETATM   11  C   UNL     1      21.732  49.452  47.534  1.00  0.00     0.030 A 
HETATM   12  N   UNL     1      21.982  47.030  48.160  1.00  0.00    -0.358 N 
HETATM   13  C   UNL     1      22.312  50.710  47.718  1.00  0.00     0.002 A 
HETATM   14  C   UNL     1      23.449  50.865  48.504  1.00  0.00     0.001 A 
HETATM   15  H   UNL     1      21.188  46.661  47.656  1.00  0.00     0.166 HD
HETATM   16  C   UNL     1      22.856  46.289  48.917  1.00  0.00     0.018 A 
HETATM   17  C   UNL     1      22.695  44.818  49.054  1.00  0.00     0.069 C 
ENDBRANCH   6   7
ENDBRANCH   2   5
BRANCH   1  18
HETATM   18  C   UNL     1      27.488  46.872  54.190  1.00  0.00     0.280 C 
BRANCH  18  19
HETATM   19  O   UNL     1      27.813  45.497  53.999  1.00  0.00    -0.341 OA
BRANCH  19  20
HETATM   20  C   UNL     1      28.824  45.024  54.801  1.00  0.00     0.086 A 
HETATM   21  C   UNL     1      29.502  43.869  54.391  1.00  0.00     0.044 A 
HETATM   22  C   UNL     1      30.549  43.344  55.158  1.00  0.00     0.028 A 
HETATM   23 BR   UNL     1      29.016  42.953  52.798  1.00  0.00    -0.048 Br
HETATM   24  C   UNL     1      30.951  43.983  56.336  1.00  0.00    -0.061 A 
HETATM   25  C   UNL     1      32.051  43.415  57.185  1.00  0.00     0.048 C 
HETATM   26  C   UNL     1      30.281  45.141  56.741  1.00  0.00     0.009 A 
HETATM   27  C   UNL     1      29.233  45.663  55.976  1.00  0.00     0.039 A 
ENDBRANCH  19  20
ENDBRANCH  18  19
ENDBRANCH   1  18
TORSDOF 5
ENDMDL
MODEL 6
REMARK VINA RESULT:      -8.8      3.036      9.218
REMARK  5 active torsions:
REMARK  status: ('A' for Active; 'I' for Inactive)
REMARK    1  A    between atoms: C_6  and  O_7 
REMARK    2  A    between atoms: O_7  and  C_8 
REMARK    3  A    between atoms: C_8  and  C_9 
REMARK       I    between atoms: C_9  and  N_10 
REMARK    4  A    between atoms: N_10  and  N_11 
REMARK    5  A    between atoms: C_12  and  C_13 
ROOT
HETATM    1  C   UNL     1      26.137  44.610  50.064  1.00  0.00     0.261 C 
HETATM    2  N   UNL     1      25.859  44.737  51.416  1.00  0.00    -0.246 N 
HETATM    3  O   UNL     1      27.262  44.603  49.566  1.00  0.00    -0.269 OA
HETATM    4  H   UNL     1      24.895  44.693  51.736  1.00  0.00     0.192 HD
ENDROOT
BRANCH   2   5
HETATM    5  N   UNL     1      26.885  44.922  52.292  1.00  0.00    -0.184 NA
HETATM    6  C   UNL     1      26.573  45.267  53.498  1.00  0.00     0.153 C 
BRANCH   6   7
HETATM    7  C   UNL     1      27.629  45.505  54.466  1.00  0.00     0.018 A 
HETATM    8  C   UNL     1      28.723  44.645  54.827  1.00  0.00     0.004 A 
HETATM    9  C   UNL     1      29.481  45.314  55.789  1.00  0.00     0.043 A 
HETATM   10  C   UNL     1      29.145  43.359  54.428  1.00  0.00     0.014 A 
HETATM   11  C   UNL     1      30.635  44.765  56.365  1.00  0.00     0.030 A 
HETATM   12  N   UNL     1      28.877  46.527  56.008  1.00  0.00    -0.358 N 
HETATM   13  C   UNL     1      31.027  43.490  55.948  1.00  0.00     0.002 A 
HETATM   14  C   UNL     1      30.294  42.793  54.993  1.00  0.00     0.001 A 
HETATM   15  H   UNL     1      29.223  47.218  56.659  1.00  0.00     0.166 HD
HETATM   16  C   UNL     1      27.760  46.665  55.221  1.00  0.00     0.018 A 
HETATM   17  C   UNL     1      26.938  47.903  55.267  1.00  0.00     0.069 C 
ENDBRANCH   6   7
ENDBRANCH   2   5
BRANCH   1  18
HETATM   18  C   UNL     1      24.891  44.574  49.186  1.00  0.00     0.280 C 
BRANCH  18  19
HETATM   19  O   UNL     1      23.790  45.266  49.770  1.00  0.00    -0.341 OA
BRANCH  19  20
HETATM   20  C   UNL     1      23.581  46.535  49.285  1.00  0.00     0.086 A 
HETATM   21  C   UNL     1      22.453  46.753  48.482  1.00  0.00     0.044 A 
HETATM   22  C   UNL     1      22.179  48.026  47.967  1.00  0.00     0.028 A 
HETATM   23 BR   UNL     1      21.268  45.335  48.039  1.00  0.00    -0.048 Br
HETATM   24  C   UNL     1      23.015  49.106  48.268  1.00  0.00    -0.061 A 
HETATM   25  C   UNL     1      22.751  50.469  47.698  1.00  0.00     0.048 C 
HETATM   26  C   UNL     1      24.135  48.890  49.077  1.00  0.00     0.009 A 
HETATM   27  C   UNL     1      24.411  47.619  49.588  1.00  0.00     0.039 A 
ENDBRANCH  19  20
ENDBRANCH  18  19
ENDBRANCH   1  18
TORSDOF 5
ENDMDL
MODEL 7
REMARK VINA RESULT:      -8.8      1.729      2.285
REMARK  5 active torsions:
REMARK  status: ('A' for Active; 'I' for Inactive)
REMARK    1  A    between atoms: C_6  and  O_7 
REMARK    2  A    between atoms: O_7  and  C_8 
REMARK    3  A    between atoms: C_8  and  C_9 
REMARK       I    between atoms: C_9  and  N_10 
REMARK    4  A    between atoms: N_10  and  N_11 
REMARK    5  A    between atoms: C_12  and  C_13 
ROOT
HETATM    1  C   UNL     1      25.735  46.527  52.248  1.00  0.00     0.261 C 
HETATM    2  N   UNL     1      25.066  46.530  51.033  1.00  0.00    -0.246 N 
HETATM    3  O   UNL     1      25.817  47.483  53.017  1.00  0.00    -0.269 OA
HETATM    4  H   UNL     1      25.023  45.676  50.483  1.00  0.00     0.192 HD
ENDROOT
BRANCH   2   5
HETATM    5  N   UNL     1      24.483  47.680  50.597  1.00  0.00    -0.184 NA
HETATM    6  C   UNL     1      24.064  47.699  49.374  1.00  0.00     0.153 C 
BRANCH   6   7
HETATM    7  C   UNL     1      23.459  48.910  48.848  1.00  0.00     0.018 A 
HETATM    8  C   UNL     1      22.077  49.306  48.877  1.00  0.00     0.004 A 
HETATM    9  C   UNL     1      21.987  50.555  48.261  1.00  0.00     0.043 A 
HETATM   10  C   UNL     1      20.890  48.722  49.370  1.00  0.00     0.014 A 
HETATM   11  C   UNL     1      20.776  51.247  48.118  1.00  0.00     0.030 A 
HETATM   12  N   UNL     1      23.255  50.906  47.871  1.00  0.00    -0.358 N 
HETATM   13  C   UNL     1      19.619  50.643  48.617  1.00  0.00     0.002 A 
HETATM   14  C   UNL     1      19.671  49.398  49.234  1.00  0.00     0.001 A 
HETATM   15  H   UNL     1      23.480  51.772  47.401  1.00  0.00     0.166 HD
HETATM   16  C   UNL     1      24.159  49.931  48.215  1.00  0.00     0.018 A 
HETATM   17  C   UNL     1      25.606  50.085  47.910  1.00  0.00     0.069 C 
ENDBRANCH   6   7
ENDBRANCH   2   5
BRANCH   1  18
HETATM   18  C   UNL     1      26.477  45.226  52.532  1.00  0.00     0.280 C 
BRANCH  18  19
HETATM   19  O   UNL     1      26.503  44.903  53.921  1.00  0.00    -0.341 OA
BRANCH  19  20
HETATM   20  C   UNL     1      27.729  44.509  54.400  1.00  0.00     0.086 A 
HETATM   21  C   UNL     1      28.426  45.396  55.231  1.00  0.00     0.044 A 
HETATM   22  C   UNL     1      29.674  45.049  55.761  1.00  0.00     0.028 A 
HETATM   23 BR   UNL     1      27.723  47.111  55.652  1.00  0.00    -0.048 Br
HETATM   24  C   UNL     1      30.234  43.796  55.488  1.00  0.00    -0.061 A 
HETATM   25  C   UNL     1      31.585  43.421  56.023  1.00  0.00     0.048 C 
HETATM   26  C   UNL     1      29.534  42.906  54.666  1.00  0.00     0.009 A 
HETATM   27  C   UNL     1      28.290  43.255  54.135  1.00  0.00     0.039 A 
ENDBRANCH  19  20
ENDBRANCH  18  19
ENDBRANCH   1  18
TORSDOF 5
ENDMDL
MODEL 8
REMARK VINA RESULT:      -8.7      3.120      9.841
REMARK  5 active torsions:
REMARK  status: ('A' for Active; 'I' for Inactive)
REMARK    1  A    between atoms: C_6  and  O_7 
REMARK    2  A    between atoms: O_7  and  C_8 
REMARK    3  A    between atoms: C_8  and  C_9 
REMARK       I    between atoms: C_9  and  N_10 
REMARK    4  A    between atoms: N_10  and  N_11 
REMARK    5  A    between atoms: C_12  and  C_13 
ROOT
HETATM    1  C   UNL     1      25.144  45.785  50.240  1.00  0.00     0.261 C 
HETATM    2  N   UNL     1      25.325  45.645  51.607  1.00  0.00    -0.246 N 
HETATM    3  O   UNL     1      25.955  45.454  49.377  1.00  0.00    -0.269 OA
HETATM    4  H   UNL     1      24.578  45.914  52.242  1.00  0.00     0.192 HD
ENDROOT
BRANCH   2   5
HETATM    5  N   UNL     1      26.505  45.151  52.075  1.00  0.00    -0.184 NA
HETATM    6  C   UNL     1      26.448  44.079  52.794  1.00  0.00     0.153 C 
BRANCH   6   7
HETATM    7  C   UNL     1      27.673  43.525  53.343  1.00  0.00     0.018 A 
HETATM    8  C   UNL     1      28.567  44.108  54.307  1.00  0.00     0.004 A 
HETATM    9  C   UNL     1      29.595  43.193  54.532  1.00  0.00     0.043 A 
HETATM   10  C   UNL     1      28.601  45.330  55.012  1.00  0.00     0.014 A 
HETATM   11  C   UNL     1      30.648  43.435  55.425  1.00  0.00     0.030 A 
HETATM   12  N   UNL     1      29.344  42.100  53.741  1.00  0.00    -0.358 N 
HETATM   13  C   UNL     1      30.653  44.653  56.110  1.00  0.00     0.002 A 
HETATM   14  C   UNL     1      29.645  45.591  55.908  1.00  0.00     0.001 A 
HETATM   15  H   UNL     1      29.933  41.279  53.710  1.00  0.00     0.166 HD
HETATM   16  C   UNL     1      28.190  42.276  53.016  1.00  0.00     0.018 A 
HETATM   17  C   UNL     1      27.696  41.222  52.092  1.00  0.00     0.069 C 
ENDBRANCH   6   7
ENDBRANCH   2   5
BRANCH   1  18
HETATM   18  C   UNL     1      23.849  46.499  49.866  1.00  0.00     0.280 C 
BRANCH  18  19
HETATM   19  O   UNL     1      24.018  47.403  48.777  1.00  0.00    -0.341 OA
BRANCH  19  20
HETATM   20  C   UNL     1      23.098  48.423  48.724  1.00  0.00     0.086 A 
HETATM   21  C   UNL     1      23.559  49.707  48.404  1.00  0.00     0.044 A 
HETATM   22  C   UNL     1      22.670  50.786  48.323  1.00  0.00     0.028 A 
HETATM   23 BR   UNL     1      25.404  50.044  48.094  1.00  0.00    -0.048 Br
HETATM   24  C   UNL     1      21.301  50.591  48.535  1.00  0.00    -0.061 A 
HETATM   25  C   UNL     1      20.340  51.743  48.482  1.00  0.00     0.048 C 
HETATM   26  C   UNL     1      20.840  49.308  48.845  1.00  0.00     0.009 A 
HETATM   27  C   UNL     1      21.728  48.232  48.929  1.00  0.00     0.039 A 
ENDBRANCH  19  20
ENDBRANCH  18  19
ENDBRANCH   1  18
TORSDOF 5
ENDMDL
MODEL 9
REMARK VINA RESULT:      -8.6      2.430      3.390
REMARK  5 active torsions:
REMARK  status: ('A' for Active; 'I' for Inactive)
REMARK    1  A    between atoms: C_6  and  O_7 
REMARK    2  A    between atoms: O_7  and  C_8 
REMARK    3  A    between atoms: C_8  and  C_9 
REMARK       I    between atoms: C_9  and  N_10 
REMARK    4  A    between atoms: N_10  and  N_11 
REMARK    5  A    between atoms: C_12  and  C_13 
ROOT
HETATM    1  C   UNL     1      25.195  44.004  51.308  1.00  0.00     0.261 C 
HETATM    2  N   UNL     1      25.365  45.285  50.806  1.00  0.00    -0.246 N 
HETATM    3  O   UNL     1      24.115  43.437  51.459  1.00  0.00    -0.269 OA
HETATM    4  H   UNL     1      26.304  45.655  50.683  1.00  0.00     0.192 HD
ENDROOT
BRANCH   2   5
HETATM    5  N   UNL     1      24.268  46.027  50.490  1.00  0.00    -0.184 NA
HETATM    6  C   UNL     1      24.031  46.219  49.234  1.00  0.00     0.153 C 
BRANCH   6   7
HETATM    7  C   UNL     1      22.890  47.026  48.840  1.00  0.00     0.018 A 
HETATM    8  C   UNL     1      22.800  48.457  48.733  1.00  0.00     0.004 A 
HETATM    9  C   UNL     1      21.508  48.765  48.305  1.00  0.00     0.043 A 
HETATM   10  C   UNL     1      23.696  49.525  48.959  1.00  0.00     0.014 A 
HETATM   11  C   UNL     1      21.071  50.079  48.089  1.00  0.00     0.030 A 
HETATM   12  N   UNL     1      20.838  47.577  48.159  1.00  0.00    -0.358 N 
HETATM   13  C   UNL     1      21.981  51.114  48.320  1.00  0.00     0.002 A 
HETATM   14  C   UNL     1      23.276  50.844  48.750  1.00  0.00     0.001 A 
HETATM   15  H   UNL     1      19.877  47.506  47.853  1.00  0.00     0.166 HD
HETATM   16  C   UNL     1      21.650  46.515  48.475  1.00  0.00     0.018 A 
HETATM   17  C   UNL     1      21.155  45.117  48.382  1.00  0.00     0.069 C 
ENDBRANCH   6   7
ENDBRANCH   2   5
BRANCH   1  18
HETATM   18  C   UNL     1      26.495  43.353  51.771  1.00  0.00     0.280 C 
BRANCH  18  19
HETATM   19  O   UNL     1      27.568  44.287  51.873  1.00  0.00    -0.341 OA
BRANCH  19  20
HETATM   20  C   UNL     1      28.461  44.032  52.886  1.00  0.00     0.086 A 
HETATM   21  C   UNL     1      28.335  44.765  54.073  1.00  0.00     0.044 A 
HETATM   22  C   UNL     1      29.207  44.544  55.146  1.00  0.00     0.028 A 
HETATM   23 BR   UNL     1      26.999  46.103  54.269  1.00  0.00    -0.048 Br
HETATM   24  C   UNL     1      30.204  43.566  55.056  1.00  0.00    -0.061 A 
HETATM   25  C   UNL     1      31.166  43.340  56.186  1.00  0.00     0.048 C 
HETATM   26  C   UNL     1      30.324  42.828  53.875  1.00  0.00     0.009 A 
HETATM   27  C   UNL     1      29.455  43.051  52.803  1.00  0.00     0.039 A 
ENDBRANCH  19  20
ENDBRANCH  18  19
ENDBRANCH   1  18
TORSDOF 5
ENDMDL
MODEL 10
REMARK VINA RESULT:      -8.5      5.742      9.898
REMARK  5 active torsions:
REMARK  status: ('A' for Active; 'I' for Inactive)
REMARK    1  A    between atoms: C_6  and  O_7 
REMARK    2  A    between atoms: O_7  and  C_8 
REMARK    3  A    between atoms: C_8  and  C_9 
REMARK       I    between atoms: C_9  and  N_10 
REMARK    4  A    between atoms: N_10  and  N_11 
REMARK    5  A    between atoms: C_12  and  C_13 
ROOT
HETATM    1  C   UNL     1      28.198  40.854  51.317  1.00  0.00     0.261 C 
HETATM    2  N   UNL     1      29.141  40.970  52.326  1.00  0.00    -0.246 N 
HETATM    3  O   UNL     1      27.167  41.519  51.227  1.00  0.00    -0.269 OA
HETATM    4  H   UNL     1      29.983  40.399  52.294  1.00  0.00     0.192 HD
ENDROOT
BRANCH   2   5
HETATM    5  N   UNL     1      28.921  41.844  53.346  1.00  0.00    -0.184 NA
HETATM    6  C   UNL     1      29.588  42.951  53.325  1.00  0.00     0.153 C 
BRANCH   6   7
HETATM    7  C   UNL     1      29.414  43.908  54.403  1.00  0.00     0.018 A 
HETATM    8  C   UNL     1      30.177  44.041  55.614  1.00  0.00     0.004 A 
HETATM    9  C   UNL     1      29.642  45.113  56.331  1.00  0.00     0.043 A 
HETATM   10  C   UNL     1      31.276  43.354  56.173  1.00  0.00     0.014 A 
HETATM   11  C   UNL     1      30.151  45.530  57.568  1.00  0.00     0.030 A 
HETATM   12  N   UNL     1      28.598  45.610  55.593  1.00  0.00    -0.358 N 
HETATM   13  C   UNL     1      31.239  44.830  58.094  1.00  0.00     0.002 A 
HETATM   14  C   UNL     1      31.797  43.755  57.409  1.00  0.00     0.001 A 
HETATM   15  H   UNL     1      28.032  46.398  55.878  1.00  0.00     0.166 HD
HETATM   16  C   UNL     1      28.441  44.901  54.427  1.00  0.00     0.018 A 
HETATM   17  C   UNL     1      27.381  45.258  53.448  1.00  0.00     0.069 C 
ENDBRANCH   6   7
ENDBRANCH   2   5
BRANCH   1  18
HETATM   18  C   UNL     1      28.492  39.726  50.333  1.00  0.00     0.280 C 
BRANCH  18  19
HETATM   19  O   UNL     1      27.380  39.430  49.491  1.00  0.00    -0.341 OA
BRANCH  19  20
HETATM   20  C   UNL     1      27.610  39.604  48.148  1.00  0.00     0.086 A 
HETATM   21  C   UNL     1      27.438  38.498  47.304  1.00  0.00     0.044 A 
HETATM   22  C   UNL     1      27.646  38.613  45.924  1.00  0.00     0.028 A 
HETATM   23 BR   UNL     1      26.944  36.798  47.994  1.00  0.00    -0.048 Br
HETATM   24  C   UNL     1      28.003  39.845  45.363  1.00  0.00    -0.061 A 
HETATM   25  C   UNL     1      28.259  39.976  43.890  1.00  0.00     0.048 C 
HETATM   26  C   UNL     1      28.166  40.950  46.204  1.00  0.00     0.009 A 
HETATM   27  C   UNL     1      27.962  40.833  47.582  1.00  0.00     0.039 A 
ENDBRANCH  19  20
ENDBRANCH  18  19
ENDBRANCH   1  18
TORSDOF 5
ENDMDL
