MODEL 1
REMARK VINA RESULT:      -7.3      0.000      0.000
REMARK  5 active torsions:
REMARK  status: ('A' for Active; 'I' for Inactive)
REMARK    1  A    between atoms: C_2  and  N_3 
REMARK    2  A    between atoms: N_3  and  C_5 
REMARK    3  A    between atoms: N_3  and  C_21 
REMARK    4  A    between atoms: C_8  and  N_9 
REMARK       I    between atoms: N_9  and  C_10 
REMARK    5  A    between atoms: C_10  and  C_11 
ROOT
HETATM    1  C   UNL     1      27.637  45.401  54.103  1.00  0.00     0.134 A 
HETATM    2  C   UNL     1      27.213  44.698  52.977  1.00  0.00     0.039 A 
HETATM    3  C   UNL     1      26.367  45.310  52.043  1.00  0.00     0.032 A 
HETATM    4  C   UNL     1      25.925  46.621  52.225  1.00  0.00     0.035 A 
HETATM    5  C   UNL     1      26.343  47.315  53.367  1.00  0.00     0.032 A 
HETATM    6  C   UNL     1      27.197  46.712  54.300  1.00  0.00     0.039 A 
ENDROOT
BRANCH   4   7
HETATM    7  N   UNL     1      25.080  47.305  51.323  1.00  0.00    -0.323 N 
HETATM    8  C   UNL     1      25.364  47.638  50.007  1.00  0.00     0.257 C 
HETATM    9  O   UNL     1      26.390  47.345  49.402  1.00  0.00    -0.267 OA
HETATM   10  H   UNL     1      24.160  47.537  51.672  1.00  0.00     0.169 HD
BRANCH   8  11
HETATM   11  C   UNL     1      24.315  48.397  49.275  1.00  0.00     0.050 A 
HETATM   12  C   UNL     1      23.018  47.891  49.269  1.00  0.00     0.135 A 
HETATM   13  N   UNL     1      21.972  48.484  48.643  1.00  0.00    -0.248 NA
HETATM   14  C   UNL     1      22.237  49.624  47.977  1.00  0.00     0.125 A 
HETATM   15 CL   UNL     1      20.889  50.335  47.196  1.00  0.00    -0.063 Cl
HETATM   16  C   UNL     1      23.492  50.204  47.902  1.00  0.00     0.045 A 
HETATM   17  C   UNL     1      24.553  49.576  48.560  1.00  0.00     0.022 A 
ENDBRANCH   8  11
ENDBRANCH   4   7
BRANCH   1  18
HETATM   18  N   UNL     1      28.552  44.808  55.105  1.00  0.00    -0.042 N 
HETATM   19  H   UNL     1      27.939  44.476  55.860  1.00  0.00     0.286 HD
BRANCH  18  20
HETATM   20  C   UNL     1      29.467  45.803  55.783  1.00  0.00     0.237 C 
HETATM   21  C   UNL     1      29.114  45.957  57.254  1.00  0.00     0.035 C 
ENDBRANCH  18  20
BRANCH  18  22
HETATM   22  C   UNL     1      29.225  43.556  54.590  1.00  0.00     0.237 C 
HETATM   23  C   UNL     1      30.620  43.332  55.142  1.00  0.00     0.035 C 
ENDBRANCH  18  22
ENDBRANCH   1  18
TORSDOF 5
ENDMDL
MODEL 2
REMARK VINA RESULT:      -7.3      4.138      8.960
REMARK  5 active torsions:
REMARK  status: ('A' for Active; 'I' for Inactive)
REMARK    1  A    between atoms: C_2  and  N_3 
REMARK    2  A    between atoms: N_3  and  C_5 
REMARK    3  A    between atoms: N_3  and  C_21 
REMARK    4  A    between atoms: C_8  and  N_9 
REMARK       I    between atoms: N_9  and  C_10 
REMARK    5  A    between atoms: C_10  and  C_11 
ROOT
HETATM    1  C   UNL     1      24.132  46.224  50.204  1.00  0.00     0.134 A 
HETATM    2  C   UNL     1      25.086  47.163  50.588  1.00  0.00     0.039 A 
HETATM    3  C   UNL     1      26.126  46.796  51.451  1.00  0.00     0.032 A 
HETATM    4  C   UNL     1      26.222  45.496  51.951  1.00  0.00     0.035 A 
HETATM    5  C   UNL     1      25.249  44.563  51.572  1.00  0.00     0.032 A 
HETATM    6  C   UNL     1      24.212  44.920  50.701  1.00  0.00     0.039 A 
ENDROOT
BRANCH   4   7
HETATM    7  N   UNL     1      27.246  45.053  52.816  1.00  0.00    -0.323 N 
HETATM    8  C   UNL     1      27.439  45.428  54.137  1.00  0.00     0.257 C 
HETATM    9  O   UNL     1      26.713  46.178  54.780  1.00  0.00    -0.267 OA
HETATM   10  H   UNL     1      27.875  44.361  52.433  1.00  0.00     0.169 HD
BRANCH   8  11
HETATM   11  C   UNL     1      28.622  44.843  54.824  1.00  0.00     0.050 A 
HETATM   12  C   UNL     1      29.207  45.567  55.860  1.00  0.00     0.135 A 
HETATM   13  N   UNL     1      30.285  45.148  56.568  1.00  0.00    -0.248 NA
HETATM   14  C   UNL     1      30.815  43.962  56.212  1.00  0.00     0.125 A 
HETATM   15 CL   UNL     1      32.178  43.476  57.127  1.00  0.00    -0.063 Cl
HETATM   16  C   UNL     1      30.325  43.171  55.186  1.00  0.00     0.045 A 
HETATM   17  C   UNL     1      29.210  43.623  54.475  1.00  0.00     0.022 A 
ENDBRANCH   8  11
ENDBRANCH   4   7
BRANCH   1  18
HETATM   18  N   UNL     1      23.029  46.555  49.273  1.00  0.00    -0.042 N 
HETATM   19  H   UNL     1      22.184  46.569  49.857  1.00  0.00     0.286 HD
BRANCH  18  20
HETATM   20  C   UNL     1      22.743  45.491  48.237  1.00  0.00     0.237 C 
HETATM   21  C   UNL     1      21.387  44.846  48.474  1.00  0.00     0.035 C 
ENDBRANCH  18  20
BRANCH  18  22
HETATM   22  C   UNL     1      23.140  47.965  48.738  1.00  0.00     0.237 C 
HETATM   23  C   UNL     1      21.895  48.454  48.022  1.00  0.00     0.035 C 
ENDBRANCH  18  22
ENDBRANCH   1  18
TORSDOF 5
ENDMDL
MODEL 3
REMARK VINA RESULT:      -7.2      1.276      2.135
REMARK  5 active torsions:
REMARK  status: ('A' for Active; 'I' for Inactive)
REMARK    1  A    between atoms: C_2  and  N_3 
REMARK    2  A    between atoms: N_3  and  C_5 
REMARK    3  A    between atoms: N_3  and  C_21 
REMARK    4  A    between atoms: C_8  and  N_9 
REMARK       I    between atoms: N_9  and  C_10 
REMARK    5  A    between atoms: C_10  and  C_11 
ROOT
HETATM    1  C   UNL     1      27.744  44.182  52.526  1.00  0.00     0.134 A 
HETATM    2  C   UNL     1      27.655  44.064  51.140  1.00  0.00     0.039 A 
HETATM    3  C   UNL     1      26.797  44.901  50.417  1.00  0.00     0.032 A 
HETATM    4  C   UNL     1      26.008  45.855  51.063  1.00  0.00     0.035 A 
HETATM    5  C   UNL     1      26.092  45.956  52.458  1.00  0.00     0.032 A 
HETATM    6  C   UNL     1      26.956  45.128  53.186  1.00  0.00     0.039 A 
ENDROOT
BRANCH   4   7
HETATM    7  N   UNL     1      25.128  46.738  50.400  1.00  0.00    -0.323 N 
HETATM    8  C   UNL     1      25.470  47.898  49.721  1.00  0.00     0.257 C 
HETATM    9  O   UNL     1      26.610  48.316  49.549  1.00  0.00    -0.267 OA
HETATM   10  H   UNL     1      24.155  46.467  50.395  1.00  0.00     0.169 HD
BRANCH   8  11
HETATM   11  C   UNL     1      24.346  48.678  49.137  1.00  0.00     0.050 A 
HETATM   12  C   UNL     1      23.051  48.193  49.301  1.00  0.00     0.135 A 
HETATM   13  N   UNL     1      21.941  48.806  48.822  1.00  0.00    -0.248 NA
HETATM   14  C   UNL     1      22.134  49.946  48.131  1.00  0.00     0.125 A 
HETATM   15 CL   UNL     1      20.707  50.683  47.538  1.00  0.00    -0.063 Cl
HETATM   16  C   UNL     1      23.378  50.506  47.892  1.00  0.00     0.045 A 
HETATM   17  C   UNL     1      24.507  49.856  48.401  1.00  0.00     0.022 A 
ENDBRANCH   8  11
ENDBRANCH   4   7
BRANCH   1  18
HETATM   18  N   UNL     1      28.656  43.339  53.332  1.00  0.00    -0.042 N 
HETATM   19  H   UNL     1      29.477  43.188  52.732  1.00  0.00     0.286 HD
BRANCH  18  20
HETATM   20  C   UNL     1      28.139  41.944  53.608  1.00  0.00     0.237 C 
HETATM   21  C   UNL     1      28.828  40.919  52.721  1.00  0.00     0.035 C 
ENDBRANCH  18  20
BRANCH  18  22
HETATM   22  C   UNL     1      29.199  44.077  54.534  1.00  0.00     0.237 C 
HETATM   23  C   UNL     1      30.421  43.428  55.158  1.00  0.00     0.035 C 
ENDBRANCH  18  22
ENDBRANCH   1  18
TORSDOF 5
ENDMDL
MODEL 4
REMARK VINA RESULT:      -7.2      0.998      1.773
REMARK  5 active torsions:
REMARK  status: ('A' for Active; 'I' for Inactive)
REMARK    1  A    between atoms: C_2  and  N_3 
REMARK    2  A    between atoms: N_3  and  C_5 
REMARK    3  A    between atoms: N_3  and  C_21 
REMARK    4  A    between atoms: C_8  and  N_9 
REMARK       I    between atoms: N_9  and  C_10 
REMARK    5  A    between atoms: C_10  and  C_11 
ROOT
HETATM    1  C   UNL     1      27.476  44.524  53.186  1.00  0.00     0.134 A 
HETATM    2  C   UNL     1      26.993  45.705  53.747  1.00  0.00     0.039 A 
HETATM    3  C   UNL     1      26.149  46.542  53.006  1.00  0.00     0.032 A 
HETATM    4  C   UNL     1      25.786  46.220  51.697  1.00  0.00     0.035 A 
HETATM    5  C   UNL     1      26.288  45.040  51.136  1.00  0.00     0.032 A 
HETATM    6  C   UNL     1      27.125  44.193  51.875  1.00  0.00     0.039 A 
ENDROOT
BRANCH   4   7
HETATM    7  N   UNL     1      24.933  47.010  50.894  1.00  0.00    -0.323 N 
HETATM    8  C   UNL     1      25.311  47.853  49.859  1.00  0.00     0.257 C 
HETATM    9  O   UNL     1      26.455  48.010  49.447  1.00  0.00    -0.267 OA
HETATM   10  H   UNL     1      23.944  46.912  51.076  1.00  0.00     0.169 HD
BRANCH   8  11
HETATM   11  C   UNL     1      24.218  48.608  49.190  1.00  0.00     0.050 A 
HETATM   12  C   UNL     1      22.925  48.095  49.257  1.00  0.00     0.135 A 
HETATM   13  N   UNL     1      21.842  48.684  48.693  1.00  0.00    -0.248 NA
HETATM   14  C   UNL     1      22.063  49.826  48.014  1.00  0.00     0.125 A 
HETATM   15 CL   UNL     1      20.669  50.532  47.312  1.00  0.00    -0.063 Cl
HETATM   16  C   UNL     1      23.309  50.412  47.868  1.00  0.00     0.045 A 
HETATM   17  C   UNL     1      24.409  49.788  48.463  1.00  0.00     0.022 A 
ENDBRANCH   8  11
ENDBRANCH   4   7
BRANCH   1  18
HETATM   18  N   UNL     1      28.348  43.594  53.938  1.00  0.00    -0.042 N 
HETATM   19  H   UNL     1      27.716  43.094  54.575  1.00  0.00     0.286 HD
BRANCH  18  20
HETATM   20  C   UNL     1      29.340  44.270  54.858  1.00  0.00     0.237 C 
HETATM   21  C   UNL     1      30.547  43.381  55.111  1.00  0.00     0.035 C 
ENDBRANCH  18  20
BRANCH  18  22
HETATM   22  C   UNL     1      28.922  42.511  53.052  1.00  0.00     0.237 C 
HETATM   23  C   UNL     1      28.376  41.125  53.338  1.00  0.00     0.035 C 
ENDBRANCH  18  22
ENDBRANCH   1  18
TORSDOF 5
ENDMDL
MODEL 5
REMARK VINA RESULT:      -7.2      1.607      2.125
REMARK  5 active torsions:
REMARK  status: ('A' for Active; 'I' for Inactive)
REMARK    1  A    between atoms: C_2  and  N_3 
REMARK    2  A    between atoms: N_3  and  C_5 
REMARK    3  A    between atoms: N_3  and  C_21 
REMARK    4  A    between atoms: C_8  and  N_9 
REMARK       I    between atoms: N_9  and  C_10 
REMARK    5  A    between atoms: C_10  and  C_11 
ROOT
HETATM    1  C   UNL     1      28.504  45.182  54.899  1.00  0.00     0.134 A 
HETATM    2  C   UNL     1      27.779  46.370  54.959  1.00  0.00     0.039 A 
HETATM    3  C   UNL     1      26.807  46.650  53.991  1.00  0.00     0.032 A 
HETATM    4  C   UNL     1      26.554  45.759  52.947  1.00  0.00     0.035 A 
HETATM    5  C   UNL     1      27.298  44.574  52.885  1.00  0.00     0.032 A 
HETATM    6  C   UNL     1      28.265  44.283  53.856  1.00  0.00     0.039 A 
ENDROOT
BRANCH   4   7
HETATM    7  N   UNL     1      25.585  45.969  51.941  1.00  0.00    -0.323 N 
HETATM    8  C   UNL     1      25.544  47.015  51.031  1.00  0.00     0.257 C 
HETATM    9  O   UNL     1      26.382  47.904  50.927  1.00  0.00    -0.267 OA
HETATM   10  H   UNL     1      24.872  45.257  51.862  1.00  0.00     0.169 HD
BRANCH   8  11
HETATM   11  C   UNL     1      24.390  47.030  50.092  1.00  0.00     0.050 A 
HETATM   12  C   UNL     1      23.929  45.815  49.594  1.00  0.00     0.135 A 
HETATM   13  N   UNL     1      22.888  45.689  48.735  1.00  0.00    -0.248 NA
HETATM   14  C   UNL     1      22.292  46.831  48.341  1.00  0.00     0.125 A 
HETATM   15 CL   UNL     1      20.986  46.627  47.252  1.00  0.00    -0.063 Cl
HETATM   16  C   UNL     1      22.681  48.093  48.759  1.00  0.00     0.045 A 
HETATM   17  C   UNL     1      23.755  48.194  49.648  1.00  0.00     0.022 A 
ENDBRANCH   8  11
ENDBRANCH   4   7
BRANCH   1  18
HETATM   18  N   UNL     1      29.523  44.828  55.914  1.00  0.00    -0.042 N 
HETATM   19  H   UNL     1      28.998  44.365  56.667  1.00  0.00     0.286 HD
BRANCH  18  20
HETATM   20  C   UNL     1      30.171  46.015  56.592  1.00  0.00     0.237 C 
HETATM   21  C   UNL     1      29.863  46.031  58.080  1.00  0.00     0.035 C 
ENDBRANCH  18  20
BRANCH  18  22
HETATM   22  C   UNL     1      30.478  43.767  55.415  1.00  0.00     0.237 C 
HETATM   23  C   UNL     1      31.299  43.111  56.509  1.00  0.00     0.035 C 
ENDBRANCH  18  22
ENDBRANCH   1  18
TORSDOF 5
ENDMDL
MODEL 6
REMARK VINA RESULT:      -7.1      6.226      7.955
REMARK  5 active torsions:
REMARK  status: ('A' for Active; 'I' for Inactive)
REMARK    1  A    between atoms: C_2  and  N_3 
REMARK    2  A    between atoms: N_3  and  C_5 
REMARK    3  A    between atoms: N_3  and  C_21 
REMARK    4  A    between atoms: C_8  and  N_9 
REMARK       I    between atoms: N_9  and  C_10 
REMARK    5  A    between atoms: C_10  and  C_11 
ROOT
HETATM    1  C   UNL     1      28.907  44.559  54.661  1.00  0.00     0.134 A 
HETATM    2  C   UNL     1      29.844  43.535  54.786  1.00  0.00     0.039 A 
HETATM    3  C   UNL     1      29.931  42.539  53.805  1.00  0.00     0.032 A 
HETATM    4  C   UNL     1      29.082  42.543  52.698  1.00  0.00     0.035 A 
HETATM    5  C   UNL     1      28.133  43.568  52.588  1.00  0.00     0.032 A 
HETATM    6  C   UNL     1      28.046  44.572  53.560  1.00  0.00     0.039 A 
ENDROOT
BRANCH   4   7
HETATM    7  N   UNL     1      29.119  41.579  51.666  1.00  0.00    -0.323 N 
HETATM    8  C   UNL     1      28.072  40.775  51.242  1.00  0.00     0.257 C 
HETATM    9  O   UNL     1      26.924  40.810  51.673  1.00  0.00    -0.267 OA
HETATM   10  H   UNL     1      29.994  41.503  51.167  1.00  0.00     0.169 HD
BRANCH   8  11
HETATM   11  C   UNL     1      28.380  39.806  50.156  1.00  0.00     0.050 A 
HETATM   12  C   UNL     1      27.850  40.045  48.890  1.00  0.00     0.135 A 
HETATM   13  N   UNL     1      28.055  39.244  47.815  1.00  0.00    -0.248 NA
HETATM   14  C   UNL     1      28.807  38.145  48.019  1.00  0.00     0.125 A 
HETATM   15 CL   UNL     1      29.034  37.159  46.637  1.00  0.00    -0.063 Cl
HETATM   16  C   UNL     1      29.365  37.803  49.239  1.00  0.00     0.045 A 
HETATM   17  C   UNL     1      29.143  38.647  50.330  1.00  0.00     0.022 A 
ENDBRANCH   8  11
ENDBRANCH   4   7
BRANCH   1  18
HETATM   18  N   UNL     1      28.793  45.649  55.657  1.00  0.00    -0.042 N 
HETATM   19  H   UNL     1      27.964  45.411  56.216  1.00  0.00     0.286 HD
BRANCH  18  20
HETATM   20  C   UNL     1      28.464  47.003  55.068  1.00  0.00     0.237 C 
HETATM   21  C   UNL     1      27.124  47.510  55.574  1.00  0.00     0.035 C 
ENDBRANCH  18  20
BRANCH  18  22
HETATM   22  C   UNL     1      29.933  45.635  56.650  1.00  0.00     0.237 C 
HETATM   23  C   UNL     1      29.527  46.010  58.062  1.00  0.00     0.035 C 
ENDBRANCH  18  22
ENDBRANCH   1  18
TORSDOF 5
ENDMDL
MODEL 7
REMARK VINA RESULT:      -7.0      5.194     10.587
REMARK  5 active torsions:
REMARK  status: ('A' for Active; 'I' for Inactive)
REMARK    1  A    between atoms: C_2  and  N_3 
REMARK    2  A    between atoms: N_3  and  C_5 
REMARK    3  A    between atoms: N_3  and  C_21 
REMARK    4  A    between atoms: C_8  and  N_9 
REMARK       I    between atoms: N_9  and  C_10 
REMARK    5  A    between atoms: C_10  and  C_11 
ROOT
HETATM    1  C   UNL     1      17.707  51.734  49.360  1.00  0.00     0.134 A 
HETATM    2  C   UNL     1      18.607  52.442  48.566  1.00  0.00     0.039 A 
HETATM    3  C   UNL     1      19.957  52.071  48.530  1.00  0.00     0.032 A 
HETATM    4  C   UNL     1      20.429  51.000  49.292  1.00  0.00     0.035 A 
HETATM    5  C   UNL     1      19.521  50.304  50.099  1.00  0.00     0.032 A 
HETATM    6  C   UNL     1      18.167  50.664  50.132  1.00  0.00     0.039 A 
ENDROOT
BRANCH   4   7
HETATM    7  N   UNL     1      21.772  50.563  49.299  1.00  0.00    -0.323 N 
HETATM    8  C   UNL     1      22.291  49.460  48.638  1.00  0.00     0.257 C 
HETATM    9  O   UNL     1      21.663  48.710  47.898  1.00  0.00    -0.267 OA
HETATM   10  H   UNL     1      22.420  51.144  49.812  1.00  0.00     0.169 HD
BRANCH   8  11
HETATM   11  C   UNL     1      23.740  49.190  48.838  1.00  0.00     0.050 A 
HETATM   12  C   UNL     1      24.659  50.040  48.229  1.00  0.00     0.135 A 
HETATM   13  N   UNL     1      26.005  49.907  48.332  1.00  0.00    -0.248 NA
HETATM   14  C   UNL     1      26.452  48.867  49.062  1.00  0.00     0.125 A 
HETATM   15 CL   UNL     1      28.157  48.732  49.160  1.00  0.00    -0.063 Cl
HETATM   16  C   UNL     1      25.627  47.951  49.693  1.00  0.00     0.045 A 
HETATM   17  C   UNL     1      24.244  48.113  49.575  1.00  0.00     0.022 A 
ENDBRANCH   8  11
ENDBRANCH   4   7
BRANCH   1  18
HETATM   18  N   UNL     1      16.266  52.071  49.412  1.00  0.00    -0.042 N 
HETATM   19  H   UNL     1      15.839  51.322  49.972  1.00  0.00     0.286 HD
BRANCH  18  20
HETATM   20  C   UNL     1      15.555  51.986  48.079  1.00  0.00     0.237 C 
HETATM   21  C   UNL     1      15.559  50.563  47.546  1.00  0.00     0.035 C 
ENDBRANCH  18  20
BRANCH  18  22
HETATM   22  C   UNL     1      16.004  53.330  50.206  1.00  0.00     0.237 C 
HETATM   23  C   UNL     1      14.881  54.187  49.653  1.00  0.00     0.035 C 
ENDBRANCH  18  22
ENDBRANCH   1  18
TORSDOF 5
ENDMDL
MODEL 8
REMARK VINA RESULT:      -6.9      5.484      8.968
REMARK  5 active torsions:
REMARK  status: ('A' for Active; 'I' for Inactive)
REMARK    1  A    between atoms: C_2  and  N_3 
REMARK    2  A    between atoms: N_3  and  C_5 
REMARK    3  A    between atoms: N_3  and  C_21 
REMARK    4  A    between atoms: C_8  and  N_9 
REMARK       I    between atoms: N_9  and  C_10 
REMARK    5  A    between atoms: C_10  and  C_11 
ROOT
HETATM    1  C   UNL     1      26.361  42.296  49.408  1.00  0.00     0.134 A 
HETATM    2  C   UNL     1      26.601  41.375  50.426  1.00  0.00     0.039 A 
HETATM    3  C   UNL     1      27.192  41.792  51.626  1.00  0.00     0.032 A 
HETATM    4  C   UNL     1      27.563  43.124  51.820  1.00  0.00     0.035 A 
HETATM    5  C   UNL     1      27.332  44.038  50.785  1.00  0.00     0.032 A 
HETATM    6  C   UNL     1      26.733  43.631  49.587  1.00  0.00     0.039 A 
ENDROOT
BRANCH   4   7
HETATM    7  N   UNL     1      28.154  43.617  53.004  1.00  0.00    -0.323 N 
HETATM    8  C   UNL     1      29.414  43.311  53.495  1.00  0.00     0.257 C 
HETATM    9  O   UNL     1      30.239  42.590  52.944  1.00  0.00    -0.267 OA
HETATM   10  H   UNL     1      27.606  44.293  53.520  1.00  0.00     0.169 HD
BRANCH   8  11
HETATM   11  C   UNL     1      29.790  43.937  54.791  1.00  0.00     0.050 A 
HETATM   12  C   UNL     1      29.131  45.102  55.176  1.00  0.00     0.135 A 
HETATM   13  N   UNL     1      29.376  45.769  56.330  1.00  0.00    -0.248 NA
HETATM   14  C   UNL     1      30.336  45.261  57.127  1.00  0.00     0.125 A 
HETATM   15 CL   UNL     1      30.618  46.139  58.570  1.00  0.00    -0.063 Cl
HETATM   16  C   UNL     1      31.065  44.121  56.832  1.00  0.00     0.045 A 
HETATM   17  C   UNL     1      30.790  43.449  55.638  1.00  0.00     0.022 A 
ENDBRANCH   8  11
ENDBRANCH   4   7
BRANCH   1  18
HETATM   18  N   UNL     1      25.715  41.910  48.133  1.00  0.00    -0.042 N 
HETATM   19  H   UNL     1      25.930  42.678  47.484  1.00  0.00     0.286 HD
BRANCH  18  20
HETATM   20  C   UNL     1      24.203  41.880  48.181  1.00  0.00     0.237 C 
HETATM   21  C   UNL     1      23.614  43.200  47.709  1.00  0.00     0.035 C 
ENDBRANCH  18  20
BRANCH  18  22
HETATM   22  C   UNL     1      26.366  40.697  47.508  1.00  0.00     0.237 C 
HETATM   23  C   UNL     1      27.712  40.979  46.868  1.00  0.00     0.035 C 
ENDBRANCH  18  22
ENDBRANCH   1  18
TORSDOF 5
ENDMDL
MODEL 9
REMARK VINA RESULT:      -6.7      3.895      8.711
REMARK  5 active torsions:
REMARK  status: ('A' for Active; 'I' for Inactive)
REMARK    1  A    between atoms: C_2  and  N_3 
REMARK    2  A    between atoms: N_3  and  C_5 
REMARK    3  A    between atoms: N_3  and  C_21 
REMARK    4  A    between atoms: C_8  and  N_9 
REMARK       I    between atoms: N_9  and  C_10 
REMARK    5  A    between atoms: C_10  and  C_11 
ROOT
HETATM    1  C   UNL     1      23.911  46.866  49.499  1.00  0.00     0.134 A 
HETATM    2  C   UNL     1      24.885  47.781  49.896  1.00  0.00     0.039 A 
HETATM    3  C   UNL     1      25.870  47.403  50.816  1.00  0.00     0.032 A 
HETATM    4  C   UNL     1      25.892  46.118  51.361  1.00  0.00     0.035 A 
HETATM    5  C   UNL     1      24.901  45.210  50.968  1.00  0.00     0.032 A 
HETATM    6  C   UNL     1      23.917  45.578  50.040  1.00  0.00     0.039 A 
ENDROOT
BRANCH   4   7
HETATM    7  N   UNL     1      26.859  45.664  52.285  1.00  0.00    -0.323 N 
HETATM    8  C   UNL     1      26.851  45.858  53.658  1.00  0.00     0.257 C 
HETATM    9  O   UNL     1      25.968  46.421  54.296  1.00  0.00    -0.267 OA
HETATM   10  H   UNL     1      27.610  45.109  51.898  1.00  0.00     0.169 HD
BRANCH   8  11
HETATM   11  C   UNL     1      28.012  45.310  54.410  1.00  0.00     0.050 A 
HETATM   12  C   UNL     1      28.414  44.004  54.142  1.00  0.00     0.135 A 
HETATM   13  N   UNL     1      29.455  43.386  54.753  1.00  0.00    -0.248 NA
HETATM   14  C   UNL     1      30.112  44.099  55.688  1.00  0.00     0.125 A 
HETATM   15 CL   UNL     1      31.414  43.279  56.440  1.00  0.00    -0.063 Cl
HETATM   16  C   UNL     1      29.785  45.396  56.046  1.00  0.00     0.045 A 
HETATM   17  C   UNL     1      28.711  46.012  55.398  1.00  0.00     0.022 A 
ENDBRANCH   8  11
ENDBRANCH   4   7
BRANCH   1  18
HETATM   18  N   UNL     1      22.864  47.208  48.509  1.00  0.00    -0.042 N 
HETATM   19  H   UNL     1      23.379  47.456  47.654  1.00  0.00     0.286 HD
BRANCH  18  20
HETATM   20  C   UNL     1      22.074  48.455  48.839  1.00  0.00     0.237 C 
HETATM   21  C   UNL     1      22.380  49.573  47.857  1.00  0.00     0.035 C 
ENDBRANCH  18  20
BRANCH  18  22
HETATM   22  C   UNL     1      22.039  46.004  48.114  1.00  0.00     0.237 C 
HETATM   23  C   UNL     1      20.569  46.119  48.469  1.00  0.00     0.035 C 
ENDBRANCH  18  22
ENDBRANCH   1  18
TORSDOF 5
ENDMDL
MODEL 10
REMARK VINA RESULT:      -6.7      6.942     10.347
REMARK  5 active torsions:
REMARK  status: ('A' for Active; 'I' for Inactive)
REMARK    1  A    between atoms: C_2  and  N_3 
REMARK    2  A    between atoms: N_3  and  C_5 
REMARK    3  A    between atoms: N_3  and  C_21 
REMARK    4  A    between atoms: C_8  and  N_9 
REMARK       I    between atoms: N_9  and  C_10 
REMARK    5  A    between atoms: C_10  and  C_11 
ROOT
HETATM    1  C   UNL     1      20.761  49.980  49.519  1.00  0.00     0.134 A 
HETATM    2  C   UNL     1      19.693  49.407  50.208  1.00  0.00     0.039 A 
HETATM    3  C   UNL     1      18.485  50.103  50.337  1.00  0.00     0.032 A 
HETATM    4  C   UNL     1      18.329  51.380  49.794  1.00  0.00     0.035 A 
HETATM    5  C   UNL     1      19.411  51.954  49.117  1.00  0.00     0.032 A 
HETATM    6  C   UNL     1      20.620  51.260  48.976  1.00  0.00     0.039 A 
ENDROOT
BRANCH   4   7
HETATM    7  N   UNL     1      17.139  52.137  49.876  1.00  0.00    -0.323 N 
HETATM    8  C   UNL     1      16.034  52.043  49.042  1.00  0.00     0.257 C 
HETATM    9  O   UNL     1      15.901  51.244  48.121  1.00  0.00    -0.267 OA
HETATM   10  H   UNL     1      17.082  52.784  50.650  1.00  0.00     0.169 HD
BRANCH   8  11
HETATM   11  C   UNL     1      14.916  52.984  49.318  1.00  0.00     0.050 A 
HETATM   12  C   UNL     1      14.305  52.935  50.568  1.00  0.00     0.135 A 
HETATM   13  N   UNL     1      13.279  53.736  50.947  1.00  0.00    -0.248 NA
HETATM   14  C   UNL     1      12.830  54.613  50.029  1.00  0.00     0.125 A 
HETATM   15 CL   UNL     1      11.530  55.600  50.547  1.00  0.00    -0.063 Cl
HETATM   16  C   UNL     1      13.351  54.733  48.751  1.00  0.00     0.045 A 
HETATM   17  C   UNL     1      14.411  53.898  48.387  1.00  0.00     0.022 A 
ENDBRANCH   8  11
ENDBRANCH   4   7
BRANCH   1  18
HETATM   18  N   UNL     1      22.049  49.274  49.333  1.00  0.00    -0.042 N 
HETATM   19  H   UNL     1      22.417  49.139  50.283  1.00  0.00     0.286 HD
BRANCH  18  20
HETATM   20  C   UNL     1      23.115  50.090  48.637  1.00  0.00     0.237 C 
HETATM   21  C   UNL     1      24.467  49.399  48.706  1.00  0.00     0.035 C 
ENDBRANCH  18  20
BRANCH  18  22
HETATM   22  C   UNL     1      21.858  47.872  48.801  1.00  0.00     0.237 C 
HETATM   23  C   UNL     1      21.334  47.816  47.379  1.00  0.00     0.035 C 
ENDBRANCH  18  22
ENDBRANCH   1  18
TORSDOF 5
ENDMDL
