MODEL 1
REMARK VINA RESULT:     -10.2      0.000      0.000
REMARK  8 active torsions:
REMARK  status: ('A' for Active; 'I' for Inactive)
REMARK    1  A    between atoms: O_2  and  C_3 
REMARK    2  A    between atoms: C_7  and  C_9 
REMARK    3  A    between atoms: C_9  and  C_10 
REMARK    4  A    between atoms: C_9  and  N_18 
REMARK    5  A    between atoms: C_10  and  C_11 
REMARK    6  A    between atoms: C_11  and  N_12 
REMARK       I    between atoms: N_18  and  C_19 
REMARK    7  A    between atoms: C_19  and  C_21 
REMARK    8  A    between atoms: C_24  and  C_27 
ROOT
HETATM    1  C   UNL     1      24.754  46.728  50.690  1.00  0.00     0.119 C 
ENDROOT
BRANCH   1   2
HETATM    2  C   UNL     1      25.434  47.790  49.839  1.00  0.00    -0.033 A 
HETATM    3  C   UNL     1      26.823  47.983  49.807  1.00  0.00     0.009 A 
HETATM    4  C   UNL     1      27.380  48.987  49.014  1.00  0.00     0.003 A 
HETATM    5  C   UNL     1      26.557  49.825  48.264  1.00  0.00     0.037 A 
HETATM    6  C   UNL     1      25.172  49.677  48.305  1.00  0.00     0.068 A 
HETATM    7  C   UNL     1      24.618  48.658  49.082  1.00  0.00     0.046 A 
BRANCH   6   8
HETATM    8  O   UNL     1      24.477  50.575  47.544  1.00  0.00    -0.356 OA
HETATM    9  C   UNL     1      23.061  50.579  47.681  1.00  0.00     0.210 C 
ENDBRANCH   6   8
ENDBRANCH   1   2
BRANCH   1  10
HETATM   10  C   UNL     1      24.194  45.522  49.899  1.00  0.00     0.057 C 
BRANCH  10  11
HETATM   11  C   UNL     1      23.928  44.318  50.802  1.00  0.00     0.237 C 
BRANCH  11  12
HETATM   12  N   UNL     1      24.798  43.144  50.409  1.00  0.00    -0.071 N 
HETATM   13  H   UNL     1      24.180  42.336  50.248  1.00  0.00     0.279 HD
HETATM   14  C   UNL     1      25.842  42.728  51.429  1.00  0.00     0.235 C 
HETATM   15  C   UNL     1      27.170  42.851  50.706  1.00  0.00     0.029 C 
HETATM   16  C   UNL     1      26.817  42.617  49.252  1.00  0.00     0.029 C 
HETATM   17  C   UNL     1      25.529  43.396  49.100  1.00  0.00     0.235 C 
ENDBRANCH  11  12
ENDBRANCH  10  11
ENDBRANCH   1  10
BRANCH   1  18
HETATM   18  N   UNL     1      25.696  46.298  51.714  1.00  0.00    -0.348 N 
HETATM   19  C   UNL     1      25.847  46.975  52.905  1.00  0.00     0.252 C 
HETATM   20  O   UNL     1      25.108  47.906  53.216  1.00  0.00    -0.268 OA
HETATM   21  H   UNL     1      26.280  45.499  51.501  1.00  0.00     0.163 HD
BRANCH  19  22
HETATM   22  C   UNL     1      26.877  46.469  53.854  1.00  0.00     0.032 A 
HETATM   23  C   UNL     1      27.548  47.298  54.757  1.00  0.00     0.018 A 
HETATM   24  C   UNL     1      28.560  46.773  55.570  1.00  0.00     0.013 A 
HETATM   25  C   UNL     1      28.916  45.415  55.507  1.00  0.00    -0.026 A 
HETATM   26  C   UNL     1      28.200  44.587  54.627  1.00  0.00     0.013 A 
HETATM   27  C   UNL     1      27.190  45.105  53.812  1.00  0.00     0.018 A 
BRANCH  25  28
HETATM   28  C   UNL     1      30.016  44.879  56.322  1.00  0.00    -0.023 A 
HETATM   29  C   UNL     1      30.783  43.790  55.890  1.00  0.00     0.031 A 
HETATM   30  C   UNL     1      31.799  43.318  56.705  1.00  0.00     0.117 A 
HETATM   31  N   UNL     1      32.102  43.846  57.909  1.00  0.00    -0.273 NA
HETATM   32  C   UNL     1      31.359  44.894  58.314  1.00  0.00     0.117 A 
HETATM   33  C   UNL     1      30.326  45.437  57.569  1.00  0.00     0.031 A 
ENDBRANCH  25  28
ENDBRANCH  19  22
ENDBRANCH   1  18
TORSDOF 8
ENDMDL
MODEL 2
REMARK VINA RESULT:     -10.0      1.020      1.746
REMARK  8 active torsions:
REMARK  status: ('A' for Active; 'I' for Inactive)
REMARK    1  A    between atoms: O_2  and  C_3 
REMARK    2  A    between atoms: C_7  and  C_9 
REMARK    3  A    between atoms: C_9  and  C_10 
REMARK    4  A    between atoms: C_9  and  N_18 
REMARK    5  A    between atoms: C_10  and  C_11 
REMARK    6  A    between atoms: C_11  and  N_12 
REMARK       I    between atoms: N_18  and  C_19 
REMARK    7  A    between atoms: C_19  and  C_21 
REMARK    8  A    between atoms: C_24  and  C_27 
ROOT
HETATM    1  C   UNL     1      24.799  46.706  50.680  1.00  0.00     0.119 C 
ENDROOT
BRANCH   1   2
HETATM    2  C   UNL     1      25.487  47.782  49.852  1.00  0.00    -0.033 A 
HETATM    3  C   UNL     1      26.877  47.973  49.834  1.00  0.00     0.009 A 
HETATM    4  C   UNL     1      27.441  48.990  49.063  1.00  0.00     0.003 A 
HETATM    5  C   UNL     1      26.624  49.842  48.320  1.00  0.00     0.037 A 
HETATM    6  C   UNL     1      25.239  49.694  48.347  1.00  0.00     0.068 A 
HETATM    7  C   UNL     1      24.677  48.663  49.103  1.00  0.00     0.046 A 
BRANCH   6   8
HETATM    8  O   UNL     1      24.551  50.606  47.597  1.00  0.00    -0.356 OA
HETATM    9  C   UNL     1      23.132  50.579  47.688  1.00  0.00     0.210 C 
ENDBRANCH   6   8
ENDBRANCH   1   2
BRANCH   1  10
HETATM   10  C   UNL     1      24.263  45.504  49.866  1.00  0.00     0.057 C 
BRANCH  10  11
HETATM   11  C   UNL     1      25.393  44.624  49.333  1.00  0.00     0.237 C 
BRANCH  11  12
HETATM   12  N   UNL     1      24.854  43.549  48.414  1.00  0.00    -0.071 N 
HETATM   13  H   UNL     1      25.574  43.354  47.705  1.00  0.00     0.279 HD
HETATM   14  C   UNL     1      23.569  43.891  47.683  1.00  0.00     0.235 C 
HETATM   15  C   UNL     1      22.579  42.821  48.105  1.00  0.00     0.029 C 
HETATM   16  C   UNL     1      23.448  41.621  48.414  1.00  0.00     0.029 C 
HETATM   17  C   UNL     1      24.613  42.243  49.155  1.00  0.00     0.235 C 
ENDBRANCH  11  12
ENDBRANCH  10  11
ENDBRANCH   1  10
BRANCH   1  18
HETATM   18  N   UNL     1      25.725  46.273  51.717  1.00  0.00    -0.348 N 
HETATM   19  C   UNL     1      25.854  46.944  52.913  1.00  0.00     0.252 C 
HETATM   20  O   UNL     1      25.109  47.872  53.218  1.00  0.00    -0.268 OA
HETATM   21  H   UNL     1      26.314  45.476  51.510  1.00  0.00     0.163 HD
BRANCH  19  22
HETATM   22  C   UNL     1      26.869  46.435  53.877  1.00  0.00     0.032 A 
HETATM   23  C   UNL     1      27.383  47.213  54.918  1.00  0.00     0.018 A 
HETATM   24  C   UNL     1      28.392  46.701  55.743  1.00  0.00     0.013 A 
HETATM   25  C   UNL     1      28.901  45.404  55.554  1.00  0.00    -0.026 A 
HETATM   26  C   UNL     1      28.341  44.620  54.533  1.00  0.00     0.013 A 
HETATM   27  C   UNL     1      27.335  45.126  53.706  1.00  0.00     0.018 A 
BRANCH  25  28
HETATM   28  C   UNL     1      29.998  44.889  56.387  1.00  0.00    -0.023 A 
HETATM   29  C   UNL     1      30.297  45.455  57.632  1.00  0.00     0.031 A 
HETATM   30  C   UNL     1      31.351  44.939  58.370  1.00  0.00     0.117 A 
HETATM   31  N   UNL     1      32.122  43.910  57.959  1.00  0.00    -0.273 NA
HETATM   32  C   UNL     1      31.823  43.373  56.760  1.00  0.00     0.117 A 
HETATM   33  C   UNL     1      30.789  43.819  55.953  1.00  0.00     0.031 A 
ENDBRANCH  25  28
ENDBRANCH  19  22
ENDBRANCH   1  18
TORSDOF 8
ENDMDL
MODEL 3
REMARK VINA RESULT:      -8.9      3.533      6.709
REMARK  8 active torsions:
REMARK  status: ('A' for Active; 'I' for Inactive)
REMARK    1  A    between atoms: O_2  and  C_3 
REMARK    2  A    between atoms: C_7  and  C_9 
REMARK    3  A    between atoms: C_9  and  C_10 
REMARK    4  A    between atoms: C_9  and  N_18 
REMARK    5  A    between atoms: C_10  and  C_11 
REMARK    6  A    between atoms: C_11  and  N_12 
REMARK       I    between atoms: N_18  and  C_19 
REMARK    7  A    between atoms: C_19  and  C_21 
REMARK    8  A    between atoms: C_24  and  C_27 
ROOT
HETATM    1  C   UNL     1      26.986  41.402  49.127  1.00  0.00     0.119 C 
ENDROOT
BRANCH   1   2
HETATM    2  C   UNL     1      27.729  40.151  48.682  1.00  0.00    -0.033 A 
HETATM    3  C   UNL     1      27.474  39.490  47.471  1.00  0.00     0.009 A 
HETATM    4  C   UNL     1      28.184  38.337  47.133  1.00  0.00     0.003 A 
HETATM    5  C   UNL     1      29.137  37.818  48.007  1.00  0.00     0.037 A 
HETATM    6  C   UNL     1      29.385  38.437  49.231  1.00  0.00     0.068 A 
HETATM    7  C   UNL     1      28.689  39.602  49.559  1.00  0.00     0.046 A 
BRANCH   6   8
HETATM    8  O   UNL     1      30.325  37.818  50.006  1.00  0.00    -0.356 OA
HETATM    9  C   UNL     1      29.851  37.060  51.113  1.00  0.00     0.210 C 
ENDBRANCH   6   8
ENDBRANCH   1   2
BRANCH   1  10
HETATM   10  C   UNL     1      25.444  41.274  49.134  1.00  0.00     0.057 C 
BRANCH  10  11
HETATM   11  C   UNL     1      24.814  41.873  47.877  1.00  0.00     0.237 C 
BRANCH  11  12
HETATM   12  N   UNL     1      23.639  42.760  48.230  1.00  0.00    -0.071 N 
HETATM   13  H   UNL     1      22.888  42.569  47.553  1.00  0.00     0.279 HD
HETATM   14  C   UNL     1      23.911  44.253  48.206  1.00  0.00     0.235 C 
HETATM   15  C   UNL     1      23.593  44.735  49.609  1.00  0.00     0.029 C 
HETATM   16  C   UNL     1      22.546  43.758  50.101  1.00  0.00     0.029 C 
HETATM   17  C   UNL     1      23.077  42.431  49.604  1.00  0.00     0.235 C 
ENDBRANCH  11  12
ENDBRANCH  10  11
ENDBRANCH   1  10
BRANCH   1  18
HETATM   18  N   UNL     1      27.492  41.785  50.438  1.00  0.00    -0.348 N 
HETATM   19  C   UNL     1      27.718  43.099  50.783  1.00  0.00     0.252 C 
HETATM   20  O   UNL     1      27.391  44.026  50.047  1.00  0.00    -0.268 OA
HETATM   21  H   UNL     1      27.718  41.039  51.084  1.00  0.00     0.163 HD
BRANCH  19  22
HETATM   22  C   UNL     1      28.283  43.364  52.136  1.00  0.00     0.032 A 
HETATM   23  C   UNL     1      27.723  44.287  53.024  1.00  0.00     0.018 A 
HETATM   24  C   UNL     1      28.346  44.545  54.251  1.00  0.00     0.013 A 
HETATM   25  C   UNL     1      29.530  43.884  54.621  1.00  0.00    -0.026 A 
HETATM   26  C   UNL     1      30.053  42.927  53.737  1.00  0.00     0.013 A 
HETATM   27  C   UNL     1      29.436  42.666  52.511  1.00  0.00     0.018 A 
BRANCH  25  28
HETATM   28  C   UNL     1      30.211  44.198  55.886  1.00  0.00    -0.023 A 
HETATM   29  C   UNL     1      29.906  45.354  56.614  1.00  0.00     0.031 A 
HETATM   30  C   UNL     1      30.588  45.607  57.793  1.00  0.00     0.117 A 
HETATM   31  N   UNL     1      31.547  44.799  58.293  1.00  0.00    -0.273 NA
HETATM   32  C   UNL     1      31.832  43.689  57.585  1.00  0.00     0.117 A 
HETATM   33  C   UNL     1      31.202  43.351  56.398  1.00  0.00     0.031 A 
ENDBRANCH  25  28
ENDBRANCH  19  22
ENDBRANCH   1  18
TORSDOF 8
ENDMDL
MODEL 4
REMARK VINA RESULT:      -8.9      2.693      8.262
REMARK  8 active torsions:
REMARK  status: ('A' for Active; 'I' for Inactive)
REMARK    1  A    between atoms: O_2  and  C_3 
REMARK    2  A    between atoms: C_7  and  C_9 
REMARK    3  A    between atoms: C_9  and  C_10 
REMARK    4  A    between atoms: C_9  and  N_18 
REMARK    5  A    between atoms: C_10  and  C_11 
REMARK    6  A    between atoms: C_11  and  N_12 
REMARK       I    between atoms: N_18  and  C_19 
REMARK    7  A    between atoms: C_19  and  C_21 
REMARK    8  A    between atoms: C_24  and  C_27 
ROOT
HETATM    1  C   UNL     1      28.291  43.291  52.428  1.00  0.00     0.119 C 
ENDROOT
BRANCH   1   2
HETATM    2  C   UNL     1      28.952  43.813  53.695  1.00  0.00    -0.033 A 
HETATM    3  C   UNL     1      30.078  43.217  54.283  1.00  0.00     0.009 A 
HETATM    4  C   UNL     1      30.625  43.740  55.455  1.00  0.00     0.003 A 
HETATM    5  C   UNL     1      30.041  44.848  56.067  1.00  0.00     0.037 A 
HETATM    6  C   UNL     1      28.902  45.438  55.523  1.00  0.00     0.068 A 
HETATM    7  C   UNL     1      28.369  44.926  54.338  1.00  0.00     0.046 A 
BRANCH   6   8
HETATM    8  O   UNL     1      28.414  46.501  56.230  1.00  0.00    -0.356 OA
HETATM    9  C   UNL     1      27.546  47.392  55.540  1.00  0.00     0.210 C 
ENDBRANCH   6   8
ENDBRANCH   1   2
BRANCH   1  10
HETATM   10  C   UNL     1      27.641  41.893  52.563  1.00  0.00     0.057 C 
BRANCH  10  11
HETATM   11  C   UNL     1      28.466  40.809  51.870  1.00  0.00     0.237 C 
BRANCH  11  12
HETATM   12  N   UNL     1      27.624  40.044  50.871  1.00  0.00    -0.071 N 
HETATM   13  H   UNL     1      27.493  39.090  51.237  1.00  0.00     0.279 HD
HETATM   14  C   UNL     1      28.205  39.925  49.474  1.00  0.00     0.235 C 
HETATM   15  C   UNL     1      27.171  40.559  48.563  1.00  0.00     0.029 C 
HETATM   16  C   UNL     1      25.862  40.346  49.292  1.00  0.00     0.029 C 
HETATM   17  C   UNL     1      26.234  40.645  50.728  1.00  0.00     0.235 C 
ENDBRANCH  11  12
ENDBRANCH  10  11
ENDBRANCH   1  10
BRANCH   1  18
HETATM   18  N   UNL     1      27.323  44.284  51.982  1.00  0.00    -0.348 N 
HETATM   19  C   UNL     1      27.026  44.473  50.651  1.00  0.00     0.252 C 
HETATM   20  O   UNL     1      27.470  43.732  49.778  1.00  0.00    -0.268 OA
HETATM   21  H   UNL     1      26.902  44.872  52.691  1.00  0.00     0.163 HD
BRANCH  19  22
HETATM   22  C   UNL     1      26.056  45.552  50.313  1.00  0.00     0.032 A 
HETATM   23  C   UNL     1      24.698  45.308  50.089  1.00  0.00     0.018 A 
HETATM   24  C   UNL     1      23.853  46.354  49.701  1.00  0.00     0.013 A 
HETATM   25  C   UNL     1      24.340  47.662  49.536  1.00  0.00    -0.026 A 
HETATM   26  C   UNL     1      25.696  47.899  49.810  1.00  0.00     0.013 A 
HETATM   27  C   UNL     1      26.545  46.858  50.197  1.00  0.00     0.018 A 
BRANCH  25  28
HETATM   28  C   UNL     1      23.461  48.748  49.075  1.00  0.00    -0.023 A 
HETATM   29  C   UNL     1      22.070  48.598  49.042  1.00  0.00     0.031 A 
HETATM   30  C   UNL     1      21.291  49.649  48.586  1.00  0.00     0.117 A 
HETATM   31  N   UNL     1      21.794  50.827  48.161  1.00  0.00    -0.273 NA
HETATM   32  C   UNL     1      23.134  50.960  48.198  1.00  0.00     0.117 A 
HETATM   33  C   UNL     1      23.994  49.968  48.640  1.00  0.00     0.031 A 
ENDBRANCH  25  28
ENDBRANCH  19  22
ENDBRANCH   1  18
TORSDOF 8
ENDMDL
MODEL 5
REMARK VINA RESULT:      -8.8      2.831      8.643
REMARK  8 active torsions:
REMARK  status: ('A' for Active; 'I' for Inactive)
REMARK    1  A    between atoms: O_2  and  C_3 
REMARK    2  A    between atoms: C_7  and  C_9 
REMARK    3  A    between atoms: C_9  and  C_10 
REMARK    4  A    between atoms: C_9  and  N_18 
REMARK    5  A    between atoms: C_10  and  C_11 
REMARK    6  A    between atoms: C_11  and  N_12 
REMARK       I    between atoms: N_18  and  C_19 
REMARK    7  A    between atoms: C_19  and  C_21 
REMARK    8  A    between atoms: C_24  and  C_27 
ROOT
HETATM    1  C   UNL     1      28.084  43.561  52.359  1.00  0.00     0.119 C 
ENDROOT
BRANCH   1   2
HETATM    2  C   UNL     1      28.671  44.093  53.658  1.00  0.00    -0.033 A 
HETATM    3  C   UNL     1      28.250  45.284  54.267  1.00  0.00     0.009 A 
HETATM    4  C   UNL     1      28.845  45.721  55.451  1.00  0.00     0.003 A 
HETATM    5  C   UNL     1      29.880  44.988  56.028  1.00  0.00     0.037 A 
HETATM    6  C   UNL     1      30.340  43.819  55.425  1.00  0.00     0.068 A 
HETATM    7  C   UNL     1      29.731  43.372  54.251  1.00  0.00     0.046 A 
BRANCH   6   8
HETATM    8  O   UNL     1      31.374  43.208  56.076  1.00  0.00    -0.356 OA
HETATM    9  C   UNL     1      31.672  43.666  57.390  1.00  0.00     0.210 C 
ENDBRANCH   6   8
ENDBRANCH   1   2
BRANCH   1  10
HETATM   10  C   UNL     1      27.388  42.184  52.477  1.00  0.00     0.057 C 
BRANCH  10  11
HETATM   11  C   UNL     1      28.272  41.049  51.960  1.00  0.00     0.237 C 
BRANCH  11  12
HETATM   12  N   UNL     1      27.544  40.228  50.918  1.00  0.00    -0.071 N 
HETATM   13  H   UNL     1      27.417  39.280  51.299  1.00  0.00     0.279 HD
HETATM   14  C   UNL     1      28.245  40.093  49.578  1.00  0.00     0.235 C 
HETATM   15  C   UNL     1      27.271  40.665  48.565  1.00  0.00     0.029 C 
HETATM   16  C   UNL     1      25.912  40.423  49.188  1.00  0.00     0.029 C 
HETATM   17  C   UNL     1      26.152  40.773  50.641  1.00  0.00     0.235 C 
ENDBRANCH  11  12
ENDBRANCH  10  11
ENDBRANCH   1  10
BRANCH   1  18
HETATM   18  N   UNL     1      27.176  44.569  51.828  1.00  0.00    -0.348 N 
HETATM   19  C   UNL     1      26.957  44.722  50.477  1.00  0.00     0.252 C 
HETATM   20  O   UNL     1      27.423  43.937  49.654  1.00  0.00    -0.268 OA
HETATM   21  H   UNL     1      26.738  45.194  52.493  1.00  0.00     0.163 HD
BRANCH  19  22
HETATM   22  C   UNL     1      26.045  45.819  50.051  1.00  0.00     0.032 A 
HETATM   23  C   UNL     1      26.465  47.145  49.919  1.00  0.00     0.018 A 
HETATM   24  C   UNL     1      25.539  48.144  49.588  1.00  0.00     0.013 A 
HETATM   25  C   UNL     1      24.184  47.840  49.376  1.00  0.00    -0.026 A 
HETATM   26  C   UNL     1      23.788  46.496  49.468  1.00  0.00     0.013 A 
HETATM   27  C   UNL     1      24.707  45.495  49.798  1.00  0.00     0.018 A 
BRANCH  25  28
HETATM   28  C   UNL     1      23.205  48.897  49.084  1.00  0.00    -0.023 A 
HETATM   29  C   UNL     1      23.607  50.210  48.809  1.00  0.00     0.031 A 
HETATM   30  C   UNL     1      22.640  51.170  48.554  1.00  0.00     0.117 A 
HETATM   31  N   UNL     1      21.315  50.919  48.555  1.00  0.00    -0.273 NA
HETATM   32  C   UNL     1      20.939  49.652  48.819  1.00  0.00     0.117 A 
HETATM   33  C   UNL     1      21.831  48.625  49.083  1.00  0.00     0.031 A 
ENDBRANCH  25  28
ENDBRANCH  19  22
ENDBRANCH   1  18
TORSDOF 8
ENDMDL
MODEL 6
REMARK VINA RESULT:      -8.6      1.991      3.092
REMARK  8 active torsions:
REMARK  status: ('A' for Active; 'I' for Inactive)
REMARK    1  A    between atoms: O_2  and  C_3 
REMARK    2  A    between atoms: C_7  and  C_9 
REMARK    3  A    between atoms: C_9  and  C_10 
REMARK    4  A    between atoms: C_9  and  N_18 
REMARK    5  A    between atoms: C_10  and  C_11 
REMARK    6  A    between atoms: C_11  and  N_12 
REMARK       I    between atoms: N_18  and  C_19 
REMARK    7  A    between atoms: C_19  and  C_21 
REMARK    8  A    between atoms: C_24  and  C_27 
ROOT
HETATM    1  C   UNL     1      24.494  43.698  50.130  1.00  0.00     0.119 C 
ENDROOT
BRANCH   1   2
HETATM    2  C   UNL     1      24.040  45.083  49.692  1.00  0.00    -0.033 A 
HETATM    3  C   UNL     1      22.848  45.321  48.991  1.00  0.00     0.009 A 
HETATM    4  C   UNL     1      22.501  46.616  48.607  1.00  0.00     0.003 A 
HETATM    5  C   UNL     1      23.348  47.684  48.895  1.00  0.00     0.037 A 
HETATM    6  C   UNL     1      24.554  47.471  49.560  1.00  0.00     0.068 A 
HETATM    7  C   UNL     1      24.890  46.177  49.963  1.00  0.00     0.046 A 
BRANCH   6   8
HETATM    8  O   UNL     1      25.304  48.595  49.762  1.00  0.00    -0.356 OA
HETATM    9  C   UNL     1      25.291  49.574  48.729  1.00  0.00     0.210 C 
ENDBRANCH   6   8
ENDBRANCH   1   2
BRANCH   1  10
HETATM   10  C   UNL     1      25.040  42.803  48.992  1.00  0.00     0.057 C 
BRANCH  10  11
HETATM   11  C   UNL     1      24.462  41.390  49.048  1.00  0.00     0.237 C 
BRANCH  11  12
HETATM   12  N   UNL     1      25.563  40.352  49.002  1.00  0.00    -0.071 N 
HETATM   13  H   UNL     1      25.156  39.479  48.638  1.00  0.00     0.279 HD
HETATM   14  C   UNL     1      26.224  40.033  50.330  1.00  0.00     0.235 C 
HETATM   15  C   UNL     1      27.693  40.353  50.126  1.00  0.00     0.029 C 
HETATM   16  C   UNL     1      27.912  40.133  48.645  1.00  0.00     0.029 C 
HETATM   17  C   UNL     1      26.669  40.746  48.036  1.00  0.00     0.235 C 
ENDBRANCH  11  12
ENDBRANCH  10  11
ENDBRANCH   1  10
BRANCH   1  18
HETATM   18  N   UNL     1      25.477  43.861  51.193  1.00  0.00    -0.348 N 
HETATM   19  C   UNL     1      26.832  43.818  50.953  1.00  0.00     0.252 C 
HETATM   20  O   UNL     1      27.285  43.763  49.813  1.00  0.00    -0.268 OA
HETATM   21  H   UNL     1      25.126  43.962  52.137  1.00  0.00     0.163 HD
BRANCH  19  22
HETATM   22  C   UNL     1      27.739  43.948  52.128  1.00  0.00     0.032 A 
HETATM   23  C   UNL     1      28.934  43.233  52.245  1.00  0.00     0.018 A 
HETATM   24  C   UNL     1      29.705  43.343  53.409  1.00  0.00     0.013 A 
HETATM   25  C   UNL     1      29.306  44.171  54.472  1.00  0.00    -0.026 A 
HETATM   26  C   UNL     1      28.126  44.917  54.319  1.00  0.00     0.013 A 
HETATM   27  C   UNL     1      27.353  44.811  53.159  1.00  0.00     0.018 A 
BRANCH  25  28
HETATM   28  C   UNL     1      30.088  44.242  55.716  1.00  0.00    -0.023 A 
HETATM   29  C   UNL     1      31.029  43.259  56.044  1.00  0.00     0.031 A 
HETATM   30  C   UNL     1      31.729  43.368  57.235  1.00  0.00     0.117 A 
HETATM   31  N   UNL     1      31.558  44.376  58.115  1.00  0.00    -0.273 NA
HETATM   32  C   UNL     1      30.651  45.318  57.789  1.00  0.00     0.117 A 
HETATM   33  C   UNL     1      29.906  45.295  56.621  1.00  0.00     0.031 A 
ENDBRANCH  25  28
ENDBRANCH  19  22
ENDBRANCH   1  18
TORSDOF 8
ENDMDL
MODEL 7
REMARK VINA RESULT:      -8.4      1.740      2.456
REMARK  8 active torsions:
REMARK  status: ('A' for Active; 'I' for Inactive)
REMARK    1  A    between atoms: O_2  and  C_3 
REMARK    2  A    between atoms: C_7  and  C_9 
REMARK    3  A    between atoms: C_9  and  C_10 
REMARK    4  A    between atoms: C_9  and  N_18 
REMARK    5  A    between atoms: C_10  and  C_11 
REMARK    6  A    between atoms: C_11  and  N_12 
REMARK       I    between atoms: N_18  and  C_19 
REMARK    7  A    between atoms: C_19  and  C_21 
REMARK    8  A    between atoms: C_24  and  C_27 
ROOT
HETATM    1  C   UNL     1      24.059  46.181  49.816  1.00  0.00     0.119 C 
ENDROOT
BRANCH   1   2
HETATM    2  C   UNL     1      24.178  47.578  49.223  1.00  0.00    -0.033 A 
HETATM    3  C   UNL     1      23.112  48.250  48.608  1.00  0.00     0.009 A 
HETATM    4  C   UNL     1      23.295  49.525  48.071  1.00  0.00     0.003 A 
HETATM    5  C   UNL     1      24.548  50.133  48.121  1.00  0.00     0.037 A 
HETATM    6  C   UNL     1      25.632  49.473  48.697  1.00  0.00     0.068 A 
HETATM    7  C   UNL     1      25.442  48.206  49.252  1.00  0.00     0.046 A 
BRANCH   6   8
HETATM    8  O   UNL     1      26.809  50.166  48.662  1.00  0.00    -0.356 OA
HETATM    9  C   UNL     1      27.977  49.478  49.095  1.00  0.00     0.210 C 
ENDBRANCH   6   8
ENDBRANCH   1   2
BRANCH   1  10
HETATM   10  C   UNL     1      24.191  45.028  48.793  1.00  0.00     0.057 C 
BRANCH  10  11
HETATM   11  C   UNL     1      22.855  44.331  48.541  1.00  0.00     0.237 C 
BRANCH  11  12
HETATM   12  N   UNL     1      22.978  42.835  48.744  1.00  0.00    -0.071 N 
HETATM   13  H   UNL     1      22.312  42.564  49.481  1.00  0.00     0.279 HD
HETATM   14  C   UNL     1      24.350  42.338  49.158  1.00  0.00     0.235 C 
HETATM   15  C   UNL     1      24.757  41.357  48.074  1.00  0.00     0.029 C 
HETATM   16  C   UNL     1      23.441  40.820  47.555  1.00  0.00     0.029 C 
HETATM   17  C   UNL     1      22.580  42.063  47.497  1.00  0.00     0.235 C 
ENDBRANCH  11  12
ENDBRANCH  10  11
ENDBRANCH   1  10
BRANCH   1  18
HETATM   18  N   UNL     1      25.045  46.059  50.882  1.00  0.00    -0.348 N 
HETATM   19  C   UNL     1      24.886  45.181  51.932  1.00  0.00     0.252 C 
HETATM   20  O   UNL     1      23.964  44.369  51.961  1.00  0.00    -0.268 OA
HETATM   21  H   UNL     1      25.842  46.682  50.851  1.00  0.00     0.163 HD
BRANCH  19  22
HETATM   22  C   UNL     1      25.936  45.179  52.988  1.00  0.00     0.032 A 
HETATM   23  C   UNL     1      26.373  46.345  53.624  1.00  0.00     0.018 A 
HETATM   24  C   UNL     1      27.418  46.285  54.554  1.00  0.00     0.013 A 
HETATM   25  C   UNL     1      28.040  45.067  54.874  1.00  0.00    -0.026 A 
HETATM   26  C   UNL     1      27.558  43.900  54.261  1.00  0.00     0.013 A 
HETATM   27  C   UNL     1      26.516  43.953  53.331  1.00  0.00     0.018 A 
BRANCH  25  28
HETATM   28  C   UNL     1      29.174  45.015  55.810  1.00  0.00    -0.023 A 
HETATM   29  C   UNL     1      30.210  44.087  55.653  1.00  0.00     0.031 A 
HETATM   30  C   UNL     1      31.247  44.075  56.572  1.00  0.00     0.117 A 
HETATM   31  N   UNL     1      31.324  44.911  57.628  1.00  0.00    -0.273 NA
HETATM   32  C   UNL     1      30.321  45.801  57.769  1.00  0.00     0.117 A 
HETATM   33  C   UNL     1      29.246  45.891  56.901  1.00  0.00     0.031 A 
ENDBRANCH  25  28
ENDBRANCH  19  22
ENDBRANCH   1  18
TORSDOF 8
ENDMDL
MODEL 8
REMARK VINA RESULT:      -8.3      2.413      3.575
REMARK  8 active torsions:
REMARK  status: ('A' for Active; 'I' for Inactive)
REMARK    1  A    between atoms: O_2  and  C_3 
REMARK    2  A    between atoms: C_7  and  C_9 
REMARK    3  A    between atoms: C_9  and  C_10 
REMARK    4  A    between atoms: C_9  and  N_18 
REMARK    5  A    between atoms: C_10  and  C_11 
REMARK    6  A    between atoms: C_11  and  N_12 
REMARK       I    between atoms: N_18  and  C_19 
REMARK    7  A    between atoms: C_19  and  C_21 
REMARK    8  A    between atoms: C_24  and  C_27 
ROOT
HETATM    1  C   UNL     1      23.813  46.366  49.932  1.00  0.00     0.119 C 
ENDROOT
BRANCH   1   2
HETATM    2  C   UNL     1      23.985  47.736  49.292  1.00  0.00    -0.033 A 
HETATM    3  C   UNL     1      22.932  48.454  48.706  1.00  0.00     0.009 A 
HETATM    4  C   UNL     1      23.164  49.700  48.123  1.00  0.00     0.003 A 
HETATM    5  C   UNL     1      24.452  50.233  48.097  1.00  0.00     0.037 A 
HETATM    6  C   UNL     1      25.521  49.525  48.642  1.00  0.00     0.068 A 
HETATM    7  C   UNL     1      25.283  48.288  49.244  1.00  0.00     0.046 A 
BRANCH   6   8
HETATM    8  O   UNL     1      26.734  50.145  48.531  1.00  0.00    -0.356 OA
HETATM    9  C   UNL     1      27.861  49.458  49.063  1.00  0.00     0.210 C 
ENDBRANCH   6   8
ENDBRANCH   1   2
BRANCH   1  10
HETATM   10  C   UNL     1      23.768  45.184  48.935  1.00  0.00     0.057 C 
BRANCH  10  11
HETATM   11  C   UNL     1      22.405  44.492  48.929  1.00  0.00     0.237 C 
BRANCH  11  12
HETATM   12  N   UNL     1      21.471  45.145  47.933  1.00  0.00    -0.071 N 
HETATM   13  H   UNL     1      22.011  45.851  47.413  1.00  0.00     0.279 HD
HETATM   14  C   UNL     1      20.258  45.839  48.526  1.00  0.00     0.235 C 
HETATM   15  C   UNL     1      19.063  45.150  47.895  1.00  0.00     0.029 C 
HETATM   16  C   UNL     1      19.581  44.674  46.555  1.00  0.00     0.029 C 
HETATM   17  C   UNL     1      20.958  44.150  46.904  1.00  0.00     0.235 C 
ENDBRANCH  11  12
ENDBRANCH  10  11
ENDBRANCH   1  10
BRANCH   1  18
HETATM   18  N   UNL     1      24.874  46.191  50.914  1.00  0.00    -0.348 N 
HETATM   19  C   UNL     1      24.816  45.224  51.894  1.00  0.00     0.252 C 
HETATM   20  O   UNL     1      23.924  44.380  51.917  1.00  0.00    -0.268 OA
HETATM   21  H   UNL     1      25.649  46.842  50.882  1.00  0.00     0.163 HD
BRANCH  19  22
HETATM   22  C   UNL     1      25.939  45.172  52.871  1.00  0.00     0.032 A 
HETATM   23  C   UNL     1      26.408  43.977  53.424  1.00  0.00     0.018 A 
HETATM   24  C   UNL     1      27.416  44.003  54.395  1.00  0.00     0.013 A 
HETATM   25  C   UNL     1      27.981  45.215  54.828  1.00  0.00    -0.026 A 
HETATM   26  C   UNL     1      27.529  46.402  54.230  1.00  0.00     0.013 A 
HETATM   27  C   UNL     1      26.523  46.383  53.260  1.00  0.00     0.018 A 
BRANCH  25  28
HETATM   28  C   UNL     1      29.000  45.243  55.888  1.00  0.00    -0.023 A 
HETATM   29  C   UNL     1      30.191  44.516  55.776  1.00  0.00     0.031 A 
HETATM   30  C   UNL     1      31.111  44.568  56.812  1.00  0.00     0.117 A 
HETATM   31  N   UNL     1      30.930  45.284  57.941  1.00  0.00    -0.273 NA
HETATM   32  C   UNL     1      29.780  45.981  58.037  1.00  0.00     0.117 A 
HETATM   33  C   UNL     1      28.804  45.993  57.055  1.00  0.00     0.031 A 
ENDBRANCH  25  28
ENDBRANCH  19  22
ENDBRANCH   1  18
TORSDOF 8
ENDMDL
MODEL 9
REMARK VINA RESULT:      -8.3      3.391      9.165
REMARK  8 active torsions:
REMARK  status: ('A' for Active; 'I' for Inactive)
REMARK    1  A    between atoms: O_2  and  C_3 
REMARK    2  A    between atoms: C_7  and  C_9 
REMARK    3  A    between atoms: C_9  and  C_10 
REMARK    4  A    between atoms: C_9  and  N_18 
REMARK    5  A    between atoms: C_10  and  C_11 
REMARK    6  A    between atoms: C_11  and  N_12 
REMARK       I    between atoms: N_18  and  C_19 
REMARK    7  A    between atoms: C_19  and  C_21 
REMARK    8  A    between atoms: C_24  and  C_27 
ROOT
HETATM    1  C   UNL     1      27.774  42.079  52.359  1.00  0.00     0.119 C 
ENDROOT
BRANCH   1   2
HETATM    2  C   UNL     1      27.730  40.891  51.410  1.00  0.00    -0.033 A 
HETATM    3  C   UNL     1      26.616  40.572  50.620  1.00  0.00     0.009 A 
HETATM    4  C   UNL     1      26.639  39.457  49.781  1.00  0.00     0.003 A 
HETATM    5  C   UNL     1      27.764  38.635  49.739  1.00  0.00     0.037 A 
HETATM    6  C   UNL     1      28.871  38.910  50.539  1.00  0.00     0.068 A 
HETATM    7  C   UNL     1      28.854  40.037  51.362  1.00  0.00     0.046 A 
BRANCH   6   8
HETATM    8  O   UNL     1      29.898  38.016  50.423  1.00  0.00    -0.356 OA
HETATM    9  C   UNL     1      29.854  36.868  51.263  1.00  0.00     0.210 C 
ENDBRANCH   6   8
ENDBRANCH   1   2
BRANCH   1  10
HETATM   10  C   UNL     1      29.185  42.448  52.874  1.00  0.00     0.057 C 
BRANCH  10  11
HETATM   11  C   UNL     1      29.220  42.597  54.394  1.00  0.00     0.237 C 
BRANCH  11  12
HETATM   12  N   UNL     1      30.098  43.760  54.805  1.00  0.00    -0.071 N 
HETATM   13  H   UNL     1      30.621  44.066  53.973  1.00  0.00     0.279 HD
HETATM   14  C   UNL     1      31.106  43.469  55.901  1.00  0.00     0.235 C 
HETATM   15  C   UNL     1      30.769  44.444  57.014  1.00  0.00     0.029 C 
HETATM   16  C   UNL     1      30.156  45.625  56.292  1.00  0.00     0.029 C 
HETATM   17  C   UNL     1      29.274  44.954  55.260  1.00  0.00     0.235 C 
ENDBRANCH  11  12
ENDBRANCH  10  11
ENDBRANCH   1  10
BRANCH   1  18
HETATM   18  N   UNL     1      27.140  43.210  51.696  1.00  0.00    -0.348 N 
HETATM   19  C   UNL     1      26.202  43.999  52.324  1.00  0.00     0.252 C 
HETATM   20  O   UNL     1      25.940  43.865  53.517  1.00  0.00    -0.268 OA
HETATM   21  H   UNL     1      27.381  43.373  50.726  1.00  0.00     0.163 HD
BRANCH  19  22
HETATM   22  C   UNL     1      25.587  45.097  51.528  1.00  0.00     0.032 A 
HETATM   23  C   UNL     1      24.492  44.899  50.683  1.00  0.00     0.018 A 
HETATM   24  C   UNL     1      24.008  45.957  49.903  1.00  0.00     0.013 A 
HETATM   25  C   UNL     1      24.599  47.231  49.956  1.00  0.00    -0.026 A 
HETATM   26  C   UNL     1      25.669  47.425  50.844  1.00  0.00     0.013 A 
HETATM   27  C   UNL     1      26.156  46.372  51.625  1.00  0.00     0.018 A 
BRANCH  25  28
HETATM   28  C   UNL     1      24.124  48.325  49.095  1.00  0.00    -0.023 A 
HETATM   29  C   UNL     1      22.804  48.370  48.631  1.00  0.00     0.031 A 
HETATM   30  C   UNL     1      22.414  49.418  47.812  1.00  0.00     0.117 A 
HETATM   31  N   UNL     1      23.238  50.413  47.423  1.00  0.00    -0.273 NA
HETATM   32  C   UNL     1      24.506  50.360  47.877  1.00  0.00     0.117 A 
HETATM   33  C   UNL     1      24.987  49.356  48.701  1.00  0.00     0.031 A 
ENDBRANCH  25  28
ENDBRANCH  19  22
ENDBRANCH   1  18
TORSDOF 8
ENDMDL
MODEL 10
REMARK VINA RESULT:      -8.1      2.979      8.101
REMARK  8 active torsions:
REMARK  status: ('A' for Active; 'I' for Inactive)
REMARK    1  A    between atoms: O_2  and  C_3 
REMARK    2  A    between atoms: C_7  and  C_9 
REMARK    3  A    between atoms: C_9  and  C_10 
REMARK    4  A    between atoms: C_9  and  N_18 
REMARK    5  A    between atoms: C_10  and  C_11 
REMARK    6  A    between atoms: C_11  and  N_12 
REMARK       I    between atoms: N_18  and  C_19 
REMARK    7  A    between atoms: C_19  and  C_21 
REMARK    8  A    between atoms: C_24  and  C_27 
ROOT
HETATM    1  C   UNL     1      26.184  45.779  52.791  1.00  0.00     0.119 C 
ENDROOT
BRANCH   1   2
HETATM    2  C   UNL     1      27.223  45.727  53.901  1.00  0.00    -0.033 A 
HETATM    3  C   UNL     1      27.382  46.738  54.860  1.00  0.00     0.009 A 
HETATM    4  C   UNL     1      28.368  46.633  55.842  1.00  0.00     0.003 A 
HETATM    5  C   UNL     1      29.220  45.530  55.865  1.00  0.00     0.037 A 
HETATM    6  C   UNL     1      29.105  44.528  54.903  1.00  0.00     0.068 A 
HETATM    7  C   UNL     1      28.105  44.625  53.934  1.00  0.00     0.046 A 
BRANCH   6   8
HETATM    8  O   UNL     1      30.013  43.514  55.021  1.00  0.00    -0.356 OA
HETATM    9  C   UNL     1      30.977  43.628  56.062  1.00  0.00     0.210 C 
ENDBRANCH   6   8
ENDBRANCH   1   2
BRANCH   1  10
HETATM   10  C   UNL     1      26.104  47.128  52.038  1.00  0.00     0.057 C 
BRANCH  10  11
HETATM   11  C   UNL     1      25.029  47.116  50.952  1.00  0.00     0.237 C 
BRANCH  11  12
HETATM   12  N   UNL     1      25.604  47.533  49.616  1.00  0.00    -0.071 N 
HETATM   13  H   UNL     1      25.273  46.861  48.909  1.00  0.00     0.279 HD
HETATM   14  C   UNL     1      27.119  47.577  49.536  1.00  0.00     0.235 C 
HETATM   15  C   UNL     1      27.451  49.008  49.156  1.00  0.00     0.029 C 
HETATM   16  C   UNL     1      26.239  49.470  48.377  1.00  0.00     0.029 C 
HETATM   17  C   UNL     1      25.094  48.899  49.184  1.00  0.00     0.235 C 
ENDBRANCH  11  12
ENDBRANCH  10  11
ENDBRANCH   1  10
BRANCH   1  18
HETATM   18  N   UNL     1      26.445  44.676  51.876  1.00  0.00    -0.348 N 
HETATM   19  C   UNL     1      25.520  43.685  51.636  1.00  0.00     0.252 C 
HETATM   20  O   UNL     1      24.379  43.743  52.089  1.00  0.00    -0.268 OA
HETATM   21  H   UNL     1      27.362  44.637  51.448  1.00  0.00     0.163 HD
BRANCH  19  22
HETATM   22  C   UNL     1      25.920  42.583  50.718  1.00  0.00     0.032 A 
HETATM   23  C   UNL     1      25.003  41.888  49.923  1.00  0.00     0.018 A 
HETATM   24  C   UNL     1      25.432  40.812  49.137  1.00  0.00     0.013 A 
HETATM   25  C   UNL     1      26.780  40.412  49.121  1.00  0.00    -0.026 A 
HETATM   26  C   UNL     1      27.694  41.150  49.889  1.00  0.00     0.013 A 
HETATM   27  C   UNL     1      27.272  42.225  50.676  1.00  0.00     0.018 A 
BRANCH  25  28
HETATM   28  C   UNL     1      27.217  39.247  48.337  1.00  0.00    -0.023 A 
HETATM   29  C   UNL     1      26.318  38.514  47.554  1.00  0.00     0.031 A 
HETATM   30  C   UNL     1      26.783  37.416  46.847  1.00  0.00     0.117 A 
HETATM   31  N   UNL     1      28.066  37.000  46.865  1.00  0.00    -0.273 NA
HETATM   32  C   UNL     1      28.923  37.714  47.621  1.00  0.00     0.117 A 
HETATM   33  C   UNL     1      28.553  38.826  48.360  1.00  0.00     0.031 A 
ENDBRANCH  25  28
ENDBRANCH  19  22
ENDBRANCH   1  18
TORSDOF 8
ENDMDL
