MODEL 1
REMARK VINA RESULT:      -9.9      0.000      0.000
REMARK  6 active torsions:
REMARK  status: ('A' for Active; 'I' for Inactive)
REMARK    1  A    between atoms: C_2  and  N_3 
REMARK    2  A    between atoms: C_2  and  C_16 
REMARK    3  A    between atoms: N_3  and  C_5 
REMARK    4  A    between atoms: C_5  and  C_6 
REMARK       I    between atoms: C_16  and  N_17 
REMARK    5  A    between atoms: N_17  and  C_18 
REMARK    6  A    between atoms: C_19  and  C_20 
ROOT
HETATM    1  C   UNL     1      27.419  43.257  53.656  1.00  0.00     0.253 C 
HETATM    2  N   UNL     1      27.942  44.525  53.526  1.00  0.00    -0.325 N 
HETATM    3  O   UNL     1      26.576  42.887  54.471  1.00  0.00    -0.271 OA
HETATM    4  H   UNL     1      28.765  44.648  52.943  1.00  0.00     0.169 HD
ENDROOT
BRANCH   1   5
HETATM    5  C   UNL     1      27.985  42.233  52.646  1.00  0.00     0.275 C 
HETATM    6  C   UNL     1      28.309  40.942  53.400  1.00  0.00     0.050 C 
BRANCH   5   7
HETATM    7  N   UNL     1      26.973  41.949  51.503  1.00  0.00    -0.059 N 
HETATM    8  H   UNL     1      26.076  42.298  51.872  1.00  0.00     0.280 HD
HETATM    9  C   UNL     1      26.800  40.498  51.172  1.00  0.00     0.271 C 
BRANCH   7  10
HETATM   10  C   UNL     1      27.185  42.805  50.255  1.00  0.00     0.274 C 
BRANCH  10  11
HETATM   11  C   UNL     1      26.501  44.146  50.254  1.00  0.00    -0.030 A 
HETATM   12  C   UNL     1      27.130  45.273  49.698  1.00  0.00     0.048 A 
HETATM   13  C   UNL     1      26.454  46.475  49.724  1.00  0.00     0.105 A 
HETATM   14  C   UNL     1      25.202  46.595  50.271  1.00  0.00     0.105 A 
HETATM   15  O   UNL     1      26.920  47.652  49.228  1.00  0.00    -0.323 OA
HETATM   16  O   UNL     1      24.719  47.862  50.189  1.00  0.00    -0.323 OA
HETATM   17  C   UNL     1      24.547  45.516  50.821  1.00  0.00     0.040 A 
HETATM   18  C   UNL     1      25.794  48.523  49.488  1.00  0.00     0.352 A 
HETATM   19  C   UNL     1      25.203  44.281  50.808  1.00  0.00     0.012 A 
ENDBRANCH  10  11
ENDBRANCH   7  10
ENDBRANCH   5   7
ENDBRANCH   1   5
BRANCH   2  20
HETATM   20  C   UNL     1      27.524  45.707  54.193  1.00  0.00     0.045 A 
HETATM   21  C   UNL     1      28.241  46.118  55.346  1.00  0.00     0.001 A 
HETATM   22  C   UNL     1      27.866  47.307  55.998  1.00  0.00     0.014 A 
HETATM   23  C   UNL     1      26.806  48.078  55.526  1.00  0.00     0.001 A 
HETATM   24  C   UNL     1      26.103  47.668  54.400  1.00  0.00     0.002 A 
HETATM   25  C   UNL     1      26.458  46.490  53.737  1.00  0.00     0.030 A 
BRANCH  21  26
HETATM   26  C   UNL     1      29.339  45.321  55.914  1.00  0.00    -0.024 A 
HETATM   27  C   UNL     1      29.891  44.241  55.208  1.00  0.00     0.012 A 
HETATM   28  C   UNL     1      30.910  43.472  55.771  1.00  0.00     0.001 A 
HETATM   29  C   UNL     1      31.394  43.774  57.043  1.00  0.00     0.000 A 
HETATM   30  C   UNL     1      30.862  44.849  57.753  1.00  0.00     0.001 A 
HETATM   31  C   UNL     1      29.839  45.617  57.192  1.00  0.00     0.012 A 
ENDBRANCH  21  26
ENDBRANCH   2  20
TORSDOF 6
ENDMDL
MODEL 2
REMARK VINA RESULT:      -9.8      1.300      3.589
REMARK  6 active torsions:
REMARK  status: ('A' for Active; 'I' for Inactive)
REMARK    1  A    between atoms: C_2  and  N_3 
REMARK    2  A    between atoms: C_2  and  C_16 
REMARK    3  A    between atoms: N_3  and  C_5 
REMARK    4  A    between atoms: C_5  and  C_6 
REMARK       I    between atoms: C_16  and  N_17 
REMARK    5  A    between atoms: N_17  and  C_18 
REMARK    6  A    between atoms: C_19  and  C_20 
ROOT
HETATM    1  C   UNL     1      28.750  42.659  53.290  1.00  0.00     0.253 C 
HETATM    2  N   UNL     1      29.526  43.733  53.670  1.00  0.00    -0.325 N 
HETATM    3  O   UNL     1      28.378  41.729  54.003  1.00  0.00    -0.271 OA
HETATM    4  H   UNL     1      29.918  44.324  52.944  1.00  0.00     0.169 HD
ENDROOT
BRANCH   1   5
HETATM    5  C   UNL     1      28.332  42.677  51.802  1.00  0.00     0.275 C 
HETATM    6  C   UNL     1      28.018  41.243  51.372  1.00  0.00     0.050 C 
BRANCH   5   7
HETATM    7  N   UNL     1      27.096  43.589  51.574  1.00  0.00    -0.059 N 
HETATM    8  H   UNL     1      27.301  44.430  52.136  1.00  0.00     0.280 HD
HETATM    9  C   UNL     1      25.801  43.016  52.062  1.00  0.00     0.271 C 
BRANCH   7  10
HETATM   10  C   UNL     1      26.984  44.145  50.156  1.00  0.00     0.274 C 
BRANCH  10  11
HETATM   11  C   UNL     1      26.210  45.428  50.011  1.00  0.00    -0.030 A 
HETATM   12  C   UNL     1      24.877  45.417  49.567  1.00  0.00     0.048 A 
HETATM   13  C   UNL     1      24.217  46.623  49.455  1.00  0.00     0.105 A 
HETATM   14  C   UNL     1      24.822  47.815  49.764  1.00  0.00     0.105 A 
HETATM   15  O   UNL     1      22.931  46.784  49.045  1.00  0.00    -0.323 OA
HETATM   16  O   UNL     1      23.994  48.878  49.588  1.00  0.00    -0.323 OA
HETATM   17  C   UNL     1      26.124  47.871  50.208  1.00  0.00     0.040 A 
HETATM   18  C   UNL     1      22.780  48.217  49.171  1.00  0.00     0.352 A 
HETATM   19  C   UNL     1      26.821  46.665  50.336  1.00  0.00     0.012 A 
ENDBRANCH  10  11
ENDBRANCH   7  10
ENDBRANCH   5   7
ENDBRANCH   1   5
BRANCH   2  20
HETATM   20  C   UNL     1      29.939  44.079  54.984  1.00  0.00     0.045 A 
HETATM   21  C   UNL     1      29.219  45.089  55.672  1.00  0.00     0.001 A 
HETATM   22  C   UNL     1      29.589  45.418  56.988  1.00  0.00     0.014 A 
HETATM   23  C   UNL     1      30.648  44.767  57.618  1.00  0.00     0.001 A 
HETATM   24  C   UNL     1      31.354  43.783  56.938  1.00  0.00     0.002 A 
HETATM   25  C   UNL     1      31.004  43.440  55.629  1.00  0.00     0.030 A 
BRANCH  21  26
HETATM   26  C   UNL     1      28.122  45.839  55.041  1.00  0.00    -0.024 A 
HETATM   27  C   UNL     1      28.267  47.197  54.717  1.00  0.00     0.012 A 
HETATM   28  C   UNL     1      27.208  47.907  54.149  1.00  0.00     0.001 A 
HETATM   29  C   UNL     1      25.995  47.270  53.893  1.00  0.00     0.000 A 
HETATM   30  C   UNL     1      25.840  45.919  54.202  1.00  0.00     0.001 A 
HETATM   31  C   UNL     1      26.897  45.209  54.774  1.00  0.00     0.012 A 
ENDBRANCH  21  26
ENDBRANCH   2  20
TORSDOF 6
ENDMDL
MODEL 3
REMARK VINA RESULT:      -9.5      2.682      5.226
REMARK  6 active torsions:
REMARK  status: ('A' for Active; 'I' for Inactive)
REMARK    1  A    between atoms: C_2  and  N_3 
REMARK    2  A    between atoms: C_2  and  C_16 
REMARK    3  A    between atoms: N_3  and  C_5 
REMARK    4  A    between atoms: C_5  and  C_6 
REMARK       I    between atoms: C_16  and  N_17 
REMARK    5  A    between atoms: N_17  and  C_18 
REMARK    6  A    between atoms: C_19  and  C_20 
ROOT
HETATM    1  C   UNL     1      25.110  45.055  51.984  1.00  0.00     0.253 C 
HETATM    2  N   UNL     1      26.332  45.636  52.246  1.00  0.00    -0.325 N 
HETATM    3  O   UNL     1      24.277  44.685  52.809  1.00  0.00    -0.271 OA
HETATM    4  H   UNL     1      26.999  45.716  51.484  1.00  0.00     0.169 HD
ENDROOT
BRANCH   1   5
HETATM    5  C   UNL     1      24.806  44.873  50.480  1.00  0.00     0.275 C 
HETATM    6  C   UNL     1      25.941  45.511  49.677  1.00  0.00     0.050 C 
BRANCH   5   7
HETATM    7  N   UNL     1      24.662  43.372  50.110  1.00  0.00    -0.059 N 
HETATM    8  H   UNL     1      25.022  43.318  49.145  1.00  0.00     0.280 HD
HETATM    9  C   UNL     1      23.252  42.866  50.102  1.00  0.00     0.271 C 
BRANCH   7  10
HETATM   10  C   UNL     1      25.605  42.447  50.878  1.00  0.00     0.274 C 
BRANCH  10  11
HETATM   11  C   UNL     1      26.344  41.428  50.053  1.00  0.00    -0.030 A 
HETATM   12  C   UNL     1      26.218  40.056  50.323  1.00  0.00     0.048 A 
HETATM   13  C   UNL     1      26.918  39.168  49.533  1.00  0.00     0.105 A 
HETATM   14  C   UNL     1      27.722  39.588  48.503  1.00  0.00     0.105 A 
HETATM   15  O   UNL     1      26.902  37.815  49.661  1.00  0.00    -0.323 OA
HETATM   16  O   UNL     1      28.314  38.553  47.852  1.00  0.00    -0.323 OA
HETATM   17  C   UNL     1      27.869  40.922  48.200  1.00  0.00     0.040 A 
HETATM   18  C   UNL     1      27.759  37.425  48.563  1.00  0.00     0.352 A 
HETATM   19  C   UNL     1      27.170  41.849  48.980  1.00  0.00     0.012 A 
ENDBRANCH  10  11
ENDBRANCH   7  10
ENDBRANCH   5   7
ENDBRANCH   1   5
BRANCH   2  20
HETATM   20  C   UNL     1      26.833  46.069  53.502  1.00  0.00     0.045 A 
HETATM   21  C   UNL     1      27.712  45.209  54.209  1.00  0.00     0.001 A 
HETATM   22  C   UNL     1      28.249  45.637  55.436  1.00  0.00     0.014 A 
HETATM   23  C   UNL     1      27.929  46.887  55.960  1.00  0.00     0.001 A 
HETATM   24  C   UNL     1      27.062  47.724  55.267  1.00  0.00     0.002 A 
HETATM   25  C   UNL     1      26.516  47.319  54.046  1.00  0.00     0.030 A 
BRANCH  21  26
HETATM   26  C   UNL     1      28.050  43.861  53.725  1.00  0.00    -0.024 A 
HETATM   27  C   UNL     1      27.343  42.734  54.171  1.00  0.00     0.012 A 
HETATM   28  C   UNL     1      27.695  41.457  53.730  1.00  0.00     0.001 A 
HETATM   29  C   UNL     1      28.751  41.291  52.836  1.00  0.00     0.000 A 
HETATM   30  C   UNL     1      29.456  42.402  52.378  1.00  0.00     0.001 A 
HETATM   31  C   UNL     1      29.108  43.680  52.821  1.00  0.00     0.012 A 
ENDBRANCH  21  26
ENDBRANCH   2  20
TORSDOF 6
ENDMDL
MODEL 4
REMARK VINA RESULT:      -9.4      2.509      3.928
REMARK  6 active torsions:
REMARK  status: ('A' for Active; 'I' for Inactive)
REMARK    1  A    between atoms: C_2  and  N_3 
REMARK    2  A    between atoms: C_2  and  C_16 
REMARK    3  A    between atoms: N_3  and  C_5 
REMARK    4  A    between atoms: C_5  and  C_6 
REMARK       I    between atoms: C_16  and  N_17 
REMARK    5  A    between atoms: N_17  and  C_18 
REMARK    6  A    between atoms: C_19  and  C_20 
ROOT
HETATM    1  C   UNL     1      25.936  45.158  50.948  1.00  0.00     0.253 C 
HETATM    2  N   UNL     1      25.768  44.995  52.306  1.00  0.00    -0.325 N 
HETATM    3  O   UNL     1      26.519  46.082  50.383  1.00  0.00    -0.271 OA
HETATM    4  H   UNL     1      25.107  44.294  52.628  1.00  0.00     0.169 HD
ENDROOT
BRANCH   1   5
HETATM    5  C   UNL     1      25.308  44.035  50.093  1.00  0.00     0.275 C 
HETATM    6  C   UNL     1      25.501  42.706  50.826  1.00  0.00     0.050 C 
BRANCH   5   7
HETATM    7  N   UNL     1      23.798  44.295  49.840  1.00  0.00    -0.059 N 
HETATM    8  H   UNL     1      23.536  44.972  50.572  1.00  0.00     0.280 HD
HETATM    9  C   UNL     1      22.924  43.088  49.998  1.00  0.00     0.271 C 
BRANCH   7  10
HETATM   10  C   UNL     1      23.504  45.056  48.549  1.00  0.00     0.274 C 
BRANCH  10  11
HETATM   11  C   UNL     1      22.819  46.386  48.712  1.00  0.00    -0.030 A 
HETATM   12  C   UNL     1      23.523  47.505  49.188  1.00  0.00     0.048 A 
HETATM   13  C   UNL     1      22.844  48.698  49.315  1.00  0.00     0.105 A 
HETATM   14  C   UNL     1      21.516  48.818  48.992  1.00  0.00     0.105 A 
HETATM   15  O   UNL     1      23.378  49.867  49.757  1.00  0.00    -0.323 OA
HETATM   16  O   UNL     1      21.046  50.077  49.187  1.00  0.00    -0.323 OA
HETATM   17  C   UNL     1      20.789  47.750  48.516  1.00  0.00     0.040 A 
HETATM   18  C   UNL     1      22.241  50.753  49.633  1.00  0.00     0.352 A 
HETATM   19  C   UNL     1      21.449  46.525  48.372  1.00  0.00     0.012 A 
ENDBRANCH  10  11
ENDBRANCH   7  10
ENDBRANCH   5   7
ENDBRANCH   1   5
BRANCH   2  20
HETATM   20  C   UNL     1      26.350  45.764  53.349  1.00  0.00     0.045 A 
HETATM   21  C   UNL     1      27.486  45.241  54.018  1.00  0.00     0.001 A 
HETATM   22  C   UNL     1      28.099  46.006  55.026  1.00  0.00     0.014 A 
HETATM   23  C   UNL     1      27.605  47.262  55.372  1.00  0.00     0.001 A 
HETATM   24  C   UNL     1      26.488  47.768  54.717  1.00  0.00     0.002 A 
HETATM   25  C   UNL     1      25.863  47.025  53.712  1.00  0.00     0.030 A 
BRANCH  21  26
HETATM   26  C   UNL     1      28.024  43.904  53.725  1.00  0.00    -0.024 A 
HETATM   27  C   UNL     1      29.147  43.739  52.901  1.00  0.00     0.012 A 
HETATM   28  C   UNL     1      29.628  42.463  52.604  1.00  0.00     0.001 A 
HETATM   29  C   UNL     1      28.997  41.337  53.131  1.00  0.00     0.000 A 
HETATM   30  C   UNL     1      27.886  41.485  53.959  1.00  0.00     0.001 A 
HETATM   31  C   UNL     1      27.401  42.761  54.254  1.00  0.00     0.012 A 
ENDBRANCH  21  26
ENDBRANCH   2  20
TORSDOF 6
ENDMDL
MODEL 5
REMARK VINA RESULT:      -8.9      3.661      5.081
REMARK  6 active torsions:
REMARK  status: ('A' for Active; 'I' for Inactive)
REMARK    1  A    between atoms: C_2  and  N_3 
REMARK    2  A    between atoms: C_2  and  C_16 
REMARK    3  A    between atoms: N_3  and  C_5 
REMARK    4  A    between atoms: C_5  and  C_6 
REMARK       I    between atoms: C_16  and  N_17 
REMARK    5  A    between atoms: N_17  and  C_18 
REMARK    6  A    between atoms: C_19  and  C_20 
ROOT
HETATM    1  C   UNL     1      27.871  43.396  52.118  1.00  0.00     0.253 C 
HETATM    2  N   UNL     1      27.687  43.832  53.412  1.00  0.00    -0.325 N 
HETATM    3  O   UNL     1      27.662  44.035  51.088  1.00  0.00    -0.271 OA
HETATM    4  H   UNL     1      27.714  43.144  54.159  1.00  0.00     0.169 HD
ENDROOT
BRANCH   1   5
HETATM    5  C   UNL     1      28.395  41.947  52.007  1.00  0.00     0.275 C 
HETATM    6  C   UNL     1      28.088  41.220  53.317  1.00  0.00     0.050 C 
BRANCH   5   7
HETATM    7  N   UNL     1      27.743  41.200  50.812  1.00  0.00    -0.059 N 
HETATM    8  H   UNL     1      27.770  41.888  50.044  1.00  0.00     0.280 HD
HETATM    9  C   UNL     1      26.313  40.811  51.029  1.00  0.00     0.271 C 
BRANCH   7  10
HETATM   10  C   UNL     1      28.580  40.045  50.265  1.00  0.00     0.274 C 
BRANCH  10  11
HETATM   11  C   UNL     1      28.408  39.743  48.801  1.00  0.00    -0.030 A 
HETATM   12  C   UNL     1      28.504  38.426  48.322  1.00  0.00     0.048 A 
HETATM   13  C   UNL     1      28.336  38.210  46.970  1.00  0.00     0.105 A 
HETATM   14  C   UNL     1      28.081  39.236  46.095  1.00  0.00     0.105 A 
HETATM   15  O   UNL     1      28.395  37.001  46.351  1.00  0.00    -0.323 OA
HETATM   16  O   UNL     1      27.946  38.803  44.814  1.00  0.00    -0.323 OA
HETATM   17  C   UNL     1      27.973  40.539  46.522  1.00  0.00     0.040 A 
HETATM   18  C   UNL     1      28.104  37.378  44.985  1.00  0.00     0.352 A 
HETATM   19  C   UNL     1      28.135  40.793  47.888  1.00  0.00     0.012 A 
ENDBRANCH  10  11
ENDBRANCH   7  10
ENDBRANCH   5   7
ENDBRANCH   1   5
BRANCH   2  20
HETATM   20  C   UNL     1      27.364  45.145  53.846  1.00  0.00     0.045 A 
HETATM   21  C   UNL     1      28.183  45.748  54.834  1.00  0.00     0.001 A 
HETATM   22  C   UNL     1      27.902  47.063  55.248  1.00  0.00     0.014 A 
HETATM   23  C   UNL     1      26.835  47.772  54.700  1.00  0.00     0.001 A 
HETATM   24  C   UNL     1      26.032  47.175  53.736  1.00  0.00     0.002 A 
HETATM   25  C   UNL     1      26.293  45.869  53.311  1.00  0.00     0.030 A 
BRANCH  21  26
HETATM   26  C   UNL     1      29.294  45.031  55.479  1.00  0.00    -0.024 A 
HETATM   27  C   UNL     1      29.863  43.894  54.885  1.00  0.00     0.012 A 
HETATM   28  C   UNL     1      30.895  43.203  55.522  1.00  0.00     0.001 A 
HETATM   29  C   UNL     1      31.375  43.641  56.755  1.00  0.00     0.000 A 
HETATM   30  C   UNL     1      30.826  44.774  57.352  1.00  0.00     0.001 A 
HETATM   31  C   UNL     1      29.791  45.465  56.718  1.00  0.00     0.012 A 
ENDBRANCH  21  26
ENDBRANCH   2  20
TORSDOF 6
ENDMDL
MODEL 6
REMARK VINA RESULT:      -8.8     12.692     15.253
REMARK  6 active torsions:
REMARK  status: ('A' for Active; 'I' for Inactive)
REMARK    1  A    between atoms: C_2  and  N_3 
REMARK    2  A    between atoms: C_2  and  C_16 
REMARK    3  A    between atoms: N_3  and  C_5 
REMARK    4  A    between atoms: C_5  and  C_6 
REMARK       I    between atoms: C_16  and  N_17 
REMARK    5  A    between atoms: N_17  and  C_18 
REMARK    6  A    between atoms: C_19  and  C_20 
ROOT
HETATM    1  C   UNL     1      29.621  50.613  38.694  1.00  0.00     0.253 C 
HETATM    2  N   UNL     1      28.590  49.853  39.202  1.00  0.00    -0.325 N 
HETATM    3  O   UNL     1      30.542  50.223  37.979  1.00  0.00    -0.271 OA
HETATM    4  H   UNL     1      28.008  50.258  39.930  1.00  0.00     0.169 HD
ENDROOT
BRANCH   1   5
HETATM    5  C   UNL     1      29.565  52.105  39.095  1.00  0.00     0.275 C 
HETATM    6  C   UNL     1      28.393  52.758  38.360  1.00  0.00     0.050 C 
BRANCH   5   7
HETATM    7  N   UNL     1      29.398  52.271  40.630  1.00  0.00    -0.059 N 
HETATM    8  H   UNL     1      29.594  51.331  41.005  1.00  0.00     0.280 HD
HETATM    9  C   UNL     1      28.018  52.660  41.066  1.00  0.00     0.271 C 
BRANCH   7  10
HETATM   10  C   UNL     1      30.475  53.132  41.286  1.00  0.00     0.274 C 
BRANCH  10  11
HETATM   11  C   UNL     1      31.762  52.429  41.627  1.00  0.00    -0.030 A 
HETATM   12  C   UNL     1      32.670  52.063  40.620  1.00  0.00     0.048 A 
HETATM   13  C   UNL     1      33.833  51.422  40.992  1.00  0.00     0.105 A 
HETATM   14  C   UNL     1      34.120  51.138  42.304  1.00  0.00     0.105 A 
HETATM   15  O   UNL     1      34.812  51.007  40.145  1.00  0.00    -0.323 OA
HETATM   16  O   UNL     1      35.315  50.509  42.449  1.00  0.00    -0.323 OA
HETATM   17  C   UNL     1      33.261  51.484  43.322  1.00  0.00     0.040 A 
HETATM   18  C   UNL     1      35.772  50.464  41.080  1.00  0.00     0.352 A 
HETATM   19  C   UNL     1      32.074  52.138  42.979  1.00  0.00     0.012 A 
ENDBRANCH  10  11
ENDBRANCH   7  10
ENDBRANCH   5   7
ENDBRANCH   1   5
BRANCH   2  20
HETATM   20  C   UNL     1      28.280  48.501  38.897  1.00  0.00     0.045 A 
HETATM   21  C   UNL     1      28.976  47.478  39.591  1.00  0.00     0.001 A 
HETATM   22  C   UNL     1      28.654  46.134  39.331  1.00  0.00     0.014 A 
HETATM   23  C   UNL     1      27.668  45.800  38.406  1.00  0.00     0.001 A 
HETATM   24  C   UNL     1      26.993  46.806  37.724  1.00  0.00     0.002 A 
HETATM   25  C   UNL     1      27.296  48.149  37.967  1.00  0.00     0.030 A 
BRANCH  21  26
HETATM   26  C   UNL     1      30.057  47.771  40.544  1.00  0.00    -0.024 A 
HETATM   27  C   UNL     1      29.782  48.332  41.801  1.00  0.00     0.012 A 
HETATM   28  C   UNL     1      30.819  48.635  42.684  1.00  0.00     0.001 A 
HETATM   29  C   UNL     1      32.141  48.378  42.327  1.00  0.00     0.000 A 
HETATM   30  C   UNL     1      32.429  47.813  41.086  1.00  0.00     0.001 A 
HETATM   31  C   UNL     1      31.393  47.512  40.199  1.00  0.00     0.012 A 
ENDBRANCH  21  26
ENDBRANCH   2  20
TORSDOF 6
ENDMDL
MODEL 7
REMARK VINA RESULT:      -8.7      8.258     12.630
REMARK  6 active torsions:
REMARK  status: ('A' for Active; 'I' for Inactive)
REMARK    1  A    between atoms: C_2  and  N_3 
REMARK    2  A    between atoms: C_2  and  C_16 
REMARK    3  A    between atoms: N_3  and  C_5 
REMARK    4  A    between atoms: C_5  and  C_6 
REMARK       I    between atoms: C_16  and  N_17 
REMARK    5  A    between atoms: N_17  and  C_18 
REMARK    6  A    between atoms: C_19  and  C_20 
ROOT
HETATM    1  C   UNL     1      18.786  51.376  49.392  1.00  0.00     0.253 C 
HETATM    2  N   UNL     1      17.421  51.205  49.473  1.00  0.00    -0.325 N 
HETATM    3  O   UNL     1      19.382  52.368  48.975  1.00  0.00    -0.271 OA
HETATM    4  H   UNL     1      17.063  50.272  49.655  1.00  0.00     0.169 HD
ENDROOT
BRANCH   1   5
HETATM    5  C   UNL     1      19.606  50.165  49.892  1.00  0.00     0.275 C 
HETATM    6  C   UNL     1      18.662  49.216  50.632  1.00  0.00     0.050 C 
BRANCH   5   7
HETATM    7  N   UNL     1      20.296  49.426  48.713  1.00  0.00    -0.059 N 
HETATM    8  H   UNL     1      20.796  50.174  48.209  1.00  0.00     0.280 HD
HETATM    9  C   UNL     1      19.353  48.773  47.750  1.00  0.00     0.271 C 
BRANCH   7  10
HETATM   10  C   UNL     1      21.426  48.490  49.140  1.00  0.00     0.274 C 
BRANCH  10  11
HETATM   11  C   UNL     1      22.822  48.960  48.831  1.00  0.00    -0.030 A 
HETATM   12  C   UNL     1      23.936  48.349  49.431  1.00  0.00     0.048 A 
HETATM   13  C   UNL     1      25.191  48.821  49.109  1.00  0.00     0.105 A 
HETATM   14  C   UNL     1      25.375  49.858  48.229  1.00  0.00     0.105 A 
HETATM   15  O   UNL     1      26.364  48.339  49.598  1.00  0.00    -0.323 OA
HETATM   16  O   UNL     1      26.688  50.160  48.051  1.00  0.00    -0.323 OA
HETATM   17  C   UNL     1      24.313  50.481  47.615  1.00  0.00     0.040 A 
HETATM   18  C   UNL     1      27.316  49.167  48.889  1.00  0.00     0.352 A 
HETATM   19  C   UNL     1      23.026  50.024  47.917  1.00  0.00     0.012 A 
ENDBRANCH  10  11
ENDBRANCH   7  10
ENDBRANCH   5   7
ENDBRANCH   1   5
BRANCH   2  20
HETATM   20  C   UNL     1      16.412  52.176  49.238  1.00  0.00     0.045 A 
HETATM   21  C   UNL     1      15.878  52.288  47.929  1.00  0.00     0.001 A 
HETATM   22  C   UNL     1      14.850  53.217  47.685  1.00  0.00     0.014 A 
HETATM   23  C   UNL     1      14.356  54.022  48.709  1.00  0.00     0.001 A 
HETATM   24  C   UNL     1      14.887  53.913  49.989  1.00  0.00     0.002 A 
HETATM   25  C   UNL     1      15.908  52.997  50.254  1.00  0.00     0.030 A 
BRANCH  21  26
HETATM   26  C   UNL     1      16.391  51.497  46.800  1.00  0.00    -0.024 A 
HETATM   27  C   UNL     1      15.856  50.235  46.498  1.00  0.00     0.012 A 
HETATM   28  C   UNL     1      16.374  49.479  45.445  1.00  0.00     0.001 A 
HETATM   29  C   UNL     1      17.427  49.975  44.679  1.00  0.00     0.000 A 
HETATM   30  C   UNL     1      17.963  51.230  44.962  1.00  0.00     0.001 A 
HETATM   31  C   UNL     1      17.449  51.986  46.017  1.00  0.00     0.012 A 
ENDBRANCH  21  26
ENDBRANCH   2  20
TORSDOF 6
ENDMDL
MODEL 8
REMARK VINA RESULT:      -8.5      2.705      5.777
REMARK  6 active torsions:
REMARK  status: ('A' for Active; 'I' for Inactive)
REMARK    1  A    between atoms: C_2  and  N_3 
REMARK    2  A    between atoms: C_2  and  C_16 
REMARK    3  A    between atoms: N_3  and  C_5 
REMARK    4  A    between atoms: C_5  and  C_6 
REMARK       I    between atoms: C_16  and  N_17 
REMARK    5  A    between atoms: N_17  and  C_18 
REMARK    6  A    between atoms: C_19  and  C_20 
ROOT
HETATM    1  C   UNL     1      26.711  44.259  50.770  1.00  0.00     0.253 C 
HETATM    2  N   UNL     1      26.832  43.965  52.111  1.00  0.00    -0.325 N 
HETATM    3  O   UNL     1      27.627  44.444  49.970  1.00  0.00    -0.271 OA
HETATM    4  H   UNL     1      26.001  44.026  52.692  1.00  0.00     0.169 HD
ENDROOT
BRANCH   1   5
HETATM    5  C   UNL     1      25.251  44.352  50.271  1.00  0.00     0.275 C 
HETATM    6  C   UNL     1      25.025  45.752  49.699  1.00  0.00     0.050 C 
BRANCH   5   7
HETATM    7  N   UNL     1      24.954  43.275  49.193  1.00  0.00    -0.059 N 
HETATM    8  H   UNL     1      25.834  43.205  48.661  1.00  0.00     0.280 HD
HETATM    9  C   UNL     1      23.865  43.643  48.231  1.00  0.00     0.271 C 
BRANCH   7  10
HETATM   10  C   UNL     1      24.778  41.864  49.751  1.00  0.00     0.274 C 
BRANCH  10  11
HETATM   11  C   UNL     1      25.836  40.866  49.360  1.00  0.00    -0.030 A 
HETATM   12  C   UNL     1      26.880  40.544  50.243  1.00  0.00     0.048 A 
HETATM   13  C   UNL     1      27.820  39.621  49.831  1.00  0.00     0.105 A 
HETATM   14  C   UNL     1      27.759  39.020  48.599  1.00  0.00     0.105 A 
HETATM   15  O   UNL     1      28.885  39.201  50.563  1.00  0.00    -0.323 OA
HETATM   16  O   UNL     1      28.778  38.144  48.399  1.00  0.00    -0.323 OA
HETATM   17  C   UNL     1      26.750  39.303  47.707  1.00  0.00     0.040 A 
HETATM   18  C   UNL     1      29.468  38.229  49.664  1.00  0.00     0.352 A 
HETATM   19  C   UNL     1      25.779  40.231  48.094  1.00  0.00     0.012 A 
ENDBRANCH  10  11
ENDBRANCH   7  10
ENDBRANCH   5   7
ENDBRANCH   1   5
BRANCH   2  20
HETATM   20  C   UNL     1      28.021  43.668  52.828  1.00  0.00     0.045 A 
HETATM   21  C   UNL     1      28.380  44.508  53.913  1.00  0.00     0.001 A 
HETATM   22  C   UNL     1      29.533  44.206  54.660  1.00  0.00     0.014 A 
HETATM   23  C   UNL     1      30.319  43.100  54.347  1.00  0.00     0.001 A 
HETATM   24  C   UNL     1      29.966  42.283  53.279  1.00  0.00     0.002 A 
HETATM   25  C   UNL     1      28.825  42.564  52.523  1.00  0.00     0.030 A 
BRANCH  21  26
HETATM   26  C   UNL     1      27.612  45.713  54.261  1.00  0.00    -0.024 A 
HETATM   27  C   UNL     1      26.480  46.089  53.522  1.00  0.00     0.012 A 
HETATM   28  C   UNL     1      25.779  47.253  53.842  1.00  0.00     0.001 A 
HETATM   29  C   UNL     1      26.196  48.052  54.905  1.00  0.00     0.000 A 
HETATM   30  C   UNL     1      27.314  47.687  55.653  1.00  0.00     0.001 A 
HETATM   31  C   UNL     1      28.018  46.524  55.333  1.00  0.00     0.012 A 
ENDBRANCH  21  26
ENDBRANCH   2  20
TORSDOF 6
ENDMDL
MODEL 9
REMARK VINA RESULT:      -8.5      4.262      7.348
REMARK  6 active torsions:
REMARK  status: ('A' for Active; 'I' for Inactive)
REMARK    1  A    between atoms: C_2  and  N_3 
REMARK    2  A    between atoms: C_2  and  C_16 
REMARK    3  A    between atoms: N_3  and  C_5 
REMARK    4  A    between atoms: C_5  and  C_6 
REMARK       I    between atoms: C_16  and  N_17 
REMARK    5  A    between atoms: N_17  and  C_18 
REMARK    6  A    between atoms: C_19  and  C_20 
ROOT
HETATM    1  C   UNL     1      23.132  44.789  49.040  1.00  0.00     0.253 C 
HETATM    2  N   UNL     1      24.373  45.266  49.402  1.00  0.00    -0.325 N 
HETATM    3  O   UNL     1      22.266  44.343  49.790  1.00  0.00    -0.271 OA
HETATM    4  H   UNL     1      25.059  45.426  48.670  1.00  0.00     0.169 HD
ENDROOT
BRANCH   1   5
HETATM    5  C   UNL     1      22.850  44.847  47.522  1.00  0.00     0.275 C 
HETATM    6  C   UNL     1      23.634  43.722  46.843  1.00  0.00     0.050 C 
BRANCH   5   7
HETATM    7  N   UNL     1      21.334  44.701  47.222  1.00  0.00    -0.059 N 
HETATM    8  H   UNL     1      20.900  44.647  48.156  1.00  0.00     0.280 HD
HETATM    9  C   UNL     1      20.964  43.459  46.472  1.00  0.00     0.271 C 
BRANCH   7  10
HETATM   10  C   UNL     1      20.694  45.952  46.620  1.00  0.00     0.274 C 
BRANCH  10  11
HETATM   11  C   UNL     1      20.461  47.094  47.572  1.00  0.00    -0.030 A 
HETATM   12  C   UNL     1      19.543  46.975  48.628  1.00  0.00     0.048 A 
HETATM   13  C   UNL     1      19.372  48.055  49.470  1.00  0.00     0.105 A 
HETATM   14  C   UNL     1      20.069  49.225  49.302  1.00  0.00     0.105 A 
HETATM   15  O   UNL     1      18.529  48.099  50.534  1.00  0.00    -0.323 OA
HETATM   16  O   UNL     1      19.753  50.155  50.241  1.00  0.00    -0.323 OA
HETATM   17  C   UNL     1      20.982  49.383  48.285  1.00  0.00     0.040 A 
HETATM   18  C   UNL     1      18.806  49.423  51.048  1.00  0.00     0.352 A 
HETATM   19  C   UNL     1      21.182  48.305  47.415  1.00  0.00     0.012 A 
ENDBRANCH  10  11
ENDBRANCH   7  10
ENDBRANCH   5   7
ENDBRANCH   1   5
BRANCH   2  20
HETATM   20  C   UNL     1      24.866  45.484  50.716  1.00  0.00     0.045 A 
HETATM   21  C   UNL     1      25.415  46.755  51.026  1.00  0.00     0.001 A 
HETATM   22  C   UNL     1      25.873  47.003  52.333  1.00  0.00     0.014 A 
HETATM   23  C   UNL     1      25.793  46.020  53.317  1.00  0.00     0.001 A 
HETATM   24  C   UNL     1      25.260  44.775  53.007  1.00  0.00     0.002 A 
HETATM   25  C   UNL     1      24.800  44.506  51.715  1.00  0.00     0.030 A 
BRANCH  21  26
HETATM   26  C   UNL     1      25.565  47.814  50.016  1.00  0.00    -0.024 A 
HETATM   27  C   UNL     1      26.834  48.229  49.585  1.00  0.00     0.012 A 
HETATM   28  C   UNL     1      26.964  49.257  48.650  1.00  0.00     0.001 A 
HETATM   29  C   UNL     1      25.829  49.880  48.132  1.00  0.00     0.000 A 
HETATM   30  C   UNL     1      24.562  49.473  48.545  1.00  0.00     0.001 A 
HETATM   31  C   UNL     1      24.430  48.446  49.482  1.00  0.00     0.012 A 
ENDBRANCH  21  26
ENDBRANCH   2  20
TORSDOF 6
ENDMDL
MODEL 10
REMARK VINA RESULT:      -8.4      6.991     10.661
REMARK  6 active torsions:
REMARK  status: ('A' for Active; 'I' for Inactive)
REMARK    1  A    between atoms: C_2  and  N_3 
REMARK    2  A    between atoms: C_2  and  C_16 
REMARK    3  A    between atoms: N_3  and  C_5 
REMARK    4  A    between atoms: C_5  and  C_6 
REMARK       I    between atoms: C_16  and  N_17 
REMARK    5  A    between atoms: N_17  and  C_18 
REMARK    6  A    between atoms: C_19  and  C_20 
ROOT
HETATM    1  C   UNL     1      18.187  48.149  48.971  1.00  0.00     0.253 C 
HETATM    2  N   UNL     1      17.882  49.283  48.250  1.00  0.00    -0.325 N 
HETATM    3  O   UNL     1      18.170  48.025  50.194  1.00  0.00    -0.271 OA
HETATM    4  H   UNL     1      18.120  49.305  47.263  1.00  0.00     0.169 HD
ENDROOT
BRANCH   1   5
HETATM    5  C   UNL     1      18.586  46.935  48.101  1.00  0.00     0.275 C 
HETATM    6  C   UNL     1      17.464  45.898  48.177  1.00  0.00     0.050 C 
BRANCH   5   7
HETATM    7  N   UNL     1      18.832  47.354  46.626  1.00  0.00    -0.059 N 
HETATM    8  H   UNL     1      18.886  48.383  46.665  1.00  0.00     0.280 HD
HETATM    9  C   UNL     1      17.726  46.989  45.683  1.00  0.00     0.271 C 
BRANCH   7  10
HETATM   10  C   UNL     1      20.205  46.960  46.086  1.00  0.00     0.274 C 
BRANCH  10  11
HETATM   11  C   UNL     1      21.214  46.521  47.113  1.00  0.00    -0.030 A 
HETATM   12  C   UNL     1      22.004  47.463  47.793  1.00  0.00     0.048 A 
HETATM   13  C   UNL     1      22.911  47.003  48.725  1.00  0.00     0.105 A 
HETATM   14  C   UNL     1      23.058  45.667  48.999  1.00  0.00     0.105 A 
HETATM   15  O   UNL     1      23.743  47.781  49.467  1.00  0.00    -0.323 OA
HETATM   16  O   UNL     1      24.001  45.433  49.949  1.00  0.00    -0.323 OA
HETATM   17  C   UNL     1      22.302  44.711  48.360  1.00  0.00     0.040 A 
HETATM   18  C   UNL     1      24.405  46.780  50.275  1.00  0.00     0.352 A 
HETATM   19  C   UNL     1      21.370  45.144  47.412  1.00  0.00     0.012 A 
ENDBRANCH  10  11
ENDBRANCH   7  10
ENDBRANCH   5   7
ENDBRANCH   1   5
BRANCH   2  20
HETATM   20  C   UNL     1      17.342  50.501  48.742  1.00  0.00     0.045 A 
HETATM   21  C   UNL     1      18.240  51.499  49.200  1.00  0.00     0.001 A 
HETATM   22  C   UNL     1      17.726  52.727  49.654  1.00  0.00     0.014 A 
HETATM   23  C   UNL     1      16.354  52.971  49.658  1.00  0.00     0.001 A 
HETATM   24  C   UNL     1      15.478  51.988  49.213  1.00  0.00     0.002 A 
HETATM   25  C   UNL     1      15.967  50.760  48.758  1.00  0.00     0.030 A 
BRANCH  21  26
HETATM   26  C   UNL     1      19.693  51.280  49.261  1.00  0.00    -0.024 A 
HETATM   27  C   UNL     1      20.338  51.033  50.482  1.00  0.00     0.012 A 
HETATM   28  C   UNL     1      21.722  50.859  50.531  1.00  0.00     0.001 A 
HETATM   29  C   UNL     1      22.478  50.924  49.361  1.00  0.00     0.000 A 
HETATM   30  C   UNL     1      21.850  51.159  48.140  1.00  0.00     0.001 A 
HETATM   31  C   UNL     1      20.466  51.337  48.090  1.00  0.00     0.012 A 
ENDBRANCH  21  26
ENDBRANCH   2  20
TORSDOF 6
ENDMDL
