MODEL 1
REMARK VINA RESULT:     -10.1      0.000      0.000
REMARK  3 active torsions:
REMARK  status: ('A' for Active; 'I' for Inactive)
REMARK    1  A    between atoms: C_2  and  C_3 
REMARK    2  A    between atoms: C_12  and  C_13 
REMARK    3  A    between atoms: C_13  and  C_14 
ROOT
HETATM    1  C   UNL     1      30.160  44.510  55.750  1.00  0.00    -0.027 A 
HETATM    2  C   UNL     1      29.493  45.520  56.463  1.00  0.00     0.039 A 
HETATM    3  C   UNL     1      30.026  46.072  57.759  1.00  0.00     0.071 C 
HETATM    4  N   UNL     1      28.355  46.104  56.054  1.00  0.00    -0.245 NA
HETATM    5  C   UNL     1      27.835  45.632  54.911  1.00  0.00     0.111 A 
HETATM    6  C   UNL     1      28.337  44.609  54.115  1.00  0.00     0.034 A 
HETATM    7  C   UNL     1      29.594  44.048  54.522  1.00  0.00    -0.038 A 
HETATM    8  C   UNL     1      30.312  43.001  53.708  1.00  0.00     0.050 C 
HETATM    9  S   UNL     1      26.420  46.339  54.302  1.00  0.00    -0.063 SA
HETATM   10  C   UNL     1      26.365  45.268  52.971  1.00  0.00     0.085 A 
HETATM   11  C   UNL     1      27.418  44.367  53.009  1.00  0.00     0.061 A 
HETATM   12  N   UNL     1      27.590  43.384  52.092  1.00  0.00    -0.397 N 
HETATM   13  H   UNL     1      26.944  43.209  51.328  1.00  0.00     0.156 HD
HETATM   14  H   UNL     1      28.148  42.563  52.302  1.00  0.00     0.156 HD
ENDROOT
BRANCH  10  15
HETATM   15  C   UNL     1      25.277  45.460  52.026  1.00  0.00     0.201 C 
HETATM   16  O   UNL     1      24.285  44.732  51.978  1.00  0.00    -0.286 OA
BRANCH  15  17
HETATM   17  C   UNL     1      25.316  46.579  51.041  1.00  0.00     0.018 A 
HETATM   18  C   UNL     1      26.503  47.271  50.756  1.00  0.00     0.055 A 
HETATM   19  C   UNL     1      26.442  48.275  49.813  1.00  0.00     0.106 A 
HETATM   20  C   UNL     1      25.275  48.594  49.155  1.00  0.00     0.105 A 
HETATM   21  O   UNL     1      27.485  49.055  49.417  1.00  0.00    -0.323 OA
HETATM   22  O   UNL     1      25.440  49.609  48.266  1.00  0.00    -0.323 OA
HETATM   23  C   UNL     1      24.098  47.923  49.399  1.00  0.00     0.040 A 
HETATM   24  C   UNL     1      26.848  49.882  48.420  1.00  0.00     0.352 A 
HETATM   25  C   UNL     1      24.123  46.900  50.351  1.00  0.00     0.018 A 
ENDBRANCH  15  17
ENDBRANCH  10  15
BRANCH   1  26
HETATM   26  C   UNL     1      31.438  43.911  56.314  1.00  0.00     0.036 C 
HETATM   27  C   UNL     1      31.161  42.724  57.225  1.00  0.00     0.010 C 
ENDBRANCH   1  26
TORSDOF 3
ENDMDL
MODEL 2
REMARK VINA RESULT:      -8.8      3.959      5.342
REMARK  3 active torsions:
REMARK  status: ('A' for Active; 'I' for Inactive)
REMARK    1  A    between atoms: C_2  and  C_3 
REMARK    2  A    between atoms: C_12  and  C_13 
REMARK    3  A    between atoms: C_13  and  C_14 
ROOT
HETATM    1  C   UNL     1      29.747  45.060  55.830  1.00  0.00    -0.027 A 
HETATM    2  C   UNL     1      30.266  43.763  55.677  1.00  0.00     0.039 A 
HETATM    3  C   UNL     1      31.428  43.264  56.496  1.00  0.00     0.071 C 
HETATM    4  N   UNL     1      29.770  42.849  54.828  1.00  0.00    -0.245 NA
HETATM    5  C   UNL     1      28.743  43.256  54.067  1.00  0.00     0.111 A 
HETATM    6  C   UNL     1      28.147  44.511  54.056  1.00  0.00     0.034 A 
HETATM    7  C   UNL     1      28.635  45.453  55.022  1.00  0.00    -0.038 A 
HETATM    8  C   UNL     1      28.022  46.821  55.199  1.00  0.00     0.050 C 
HETATM    9  S   UNL     1      28.032  42.152  52.995  1.00  0.00    -0.063 SA
HETATM   10  C   UNL     1      26.927  43.317  52.408  1.00  0.00     0.085 A 
HETATM   11  C   UNL     1      27.119  44.545  53.022  1.00  0.00     0.061 A 
HETATM   12  N   UNL     1      26.401  45.652  52.714  1.00  0.00    -0.397 N 
HETATM   13  H   UNL     1      25.692  45.677  51.988  1.00  0.00     0.156 HD
HETATM   14  H   UNL     1      26.753  46.581  52.922  1.00  0.00     0.156 HD
ENDROOT
BRANCH  10  15
HETATM   15  C   UNL     1      25.977  42.865  51.405  1.00  0.00     0.201 C 
HETATM   16  O   UNL     1      24.815  43.269  51.341  1.00  0.00    -0.286 OA
BRANCH  15  17
HETATM   17  C   UNL     1      26.377  41.859  50.379  1.00  0.00     0.018 A 
HETATM   18  C   UNL     1      27.026  42.231  49.193  1.00  0.00     0.055 A 
HETATM   19  C   UNL     1      27.376  41.226  48.317  1.00  0.00     0.106 A 
HETATM   20  C   UNL     1      27.119  39.900  48.583  1.00  0.00     0.105 A 
HETATM   21  O   UNL     1      28.001  41.399  47.120  1.00  0.00    -0.323 OA
HETATM   22  O   UNL     1      27.550  39.077  47.590  1.00  0.00    -0.323 OA
HETATM   23  C   UNL     1      26.498  39.499  49.744  1.00  0.00     0.040 A 
HETATM   24  C   UNL     1      28.129  40.031  46.676  1.00  0.00     0.352 A 
HETATM   25  C   UNL     1      26.128  40.493  50.654  1.00  0.00     0.018 A 
ENDBRANCH  15  17
ENDBRANCH  10  15
BRANCH   1  26
HETATM   26  C   UNL     1      30.395  46.019  56.815  1.00  0.00     0.036 C 
HETATM   27  C   UNL     1      29.750  45.949  58.192  1.00  0.00     0.010 C 
ENDBRANCH   1  26
TORSDOF 3
ENDMDL
MODEL 3
REMARK VINA RESULT:      -8.7      1.516      2.702
REMARK  3 active torsions:
REMARK  status: ('A' for Active; 'I' for Inactive)
REMARK    1  A    between atoms: C_2  and  C_3 
REMARK    2  A    between atoms: C_12  and  C_13 
REMARK    3  A    between atoms: C_13  and  C_14 
ROOT
HETATM    1  C   UNL     1      29.411  45.370  55.981  1.00  0.00    -0.027 A 
HETATM    2  C   UNL     1      29.797  44.269  55.199  1.00  0.00     0.039 A 
HETATM    3  C   UNL     1      30.955  43.384  55.578  1.00  0.00     0.071 C 
HETATM    4  N   UNL     1      29.167  43.884  54.077  1.00  0.00    -0.245 NA
HETATM    5  C   UNL     1      28.137  44.654  53.693  1.00  0.00     0.111 A 
HETATM    6  C   UNL     1      27.661  45.800  54.319  1.00  0.00     0.034 A 
HETATM    7  C   UNL     1      28.293  46.154  55.558  1.00  0.00    -0.038 A 
HETATM    8  C   UNL     1      27.823  47.313  56.403  1.00  0.00     0.050 C 
HETATM    9  S   UNL     1      27.261  44.218  52.309  1.00  0.00    -0.063 SA
HETATM   10  C   UNL     1      26.235  45.580  52.436  1.00  0.00     0.085 A 
HETATM   11  C   UNL     1      26.579  46.367  53.524  1.00  0.00     0.061 A 
HETATM   12  N   UNL     1      25.949  47.527  53.832  1.00  0.00    -0.397 N 
HETATM   13  H   UNL     1      25.202  47.927  53.271  1.00  0.00     0.156 HD
HETATM   14  H   UNL     1      26.399  48.231  54.408  1.00  0.00     0.156 HD
ENDROOT
BRANCH  10  15
HETATM   15  C   UNL     1      25.188  45.700  51.435  1.00  0.00     0.201 C 
HETATM   16  O   UNL     1      24.277  44.881  51.306  1.00  0.00    -0.286 OA
BRANCH  15  17
HETATM   17  C   UNL     1      25.169  46.852  50.489  1.00  0.00     0.018 A 
HETATM   18  C   UNL     1      23.969  47.381  49.992  1.00  0.00     0.055 A 
HETATM   19  C   UNL     1      24.054  48.462  49.140  1.00  0.00     0.106 A 
HETATM   20  C   UNL     1      25.261  49.023  48.787  1.00  0.00     0.105 A 
HETATM   21  O   UNL     1      23.001  49.097  48.558  1.00  0.00    -0.323 OA
HETATM   22  O   UNL     1      25.116  50.079  47.943  1.00  0.00    -0.323 OA
HETATM   23  C   UNL     1      26.456  48.539  49.269  1.00  0.00     0.040 A 
HETATM   24  C   UNL     1      23.680  50.136  47.819  1.00  0.00     0.352 A 
HETATM   25  C   UNL     1      26.406  47.443  50.135  1.00  0.00     0.018 A 
ENDBRANCH  15  17
ENDBRANCH  10  15
BRANCH   1  26
HETATM   26  C   UNL     1      30.205  45.723  57.228  1.00  0.00     0.036 C 
HETATM   27  C   UNL     1      29.510  45.259  58.500  1.00  0.00     0.010 C 
ENDBRANCH   1  26
TORSDOF 3
ENDMDL
MODEL 4
REMARK VINA RESULT:      -8.2      3.007      4.059
REMARK  3 active torsions:
REMARK  status: ('A' for Active; 'I' for Inactive)
REMARK    1  A    between atoms: C_2  and  C_3 
REMARK    2  A    between atoms: C_12  and  C_13 
REMARK    3  A    between atoms: C_13  and  C_14 
ROOT
HETATM    1  C   UNL     1      30.028  44.973  56.154  1.00  0.00    -0.027 A 
HETATM    2  C   UNL     1      30.801  43.806  56.034  1.00  0.00     0.039 A 
HETATM    3  C   UNL     1      31.969  43.523  56.940  1.00  0.00     0.071 C 
HETATM    4  N   UNL     1      30.560  42.832  55.142  1.00  0.00    -0.245 NA
HETATM    5  C   UNL     1      29.536  43.049  54.302  1.00  0.00     0.111 A 
HETATM    6  C   UNL     1      28.709  44.165  54.252  1.00  0.00     0.034 A 
HETATM    7  C   UNL     1      28.928  45.162  55.261  1.00  0.00    -0.038 A 
HETATM    8  C   UNL     1      28.048  46.381  55.397  1.00  0.00     0.050 C 
HETATM    9  S   UNL     1      29.139  41.854  53.169  1.00  0.00    -0.063 SA
HETATM   10  C   UNL     1      27.878  42.795  52.502  1.00  0.00     0.085 A 
HETATM   11  C   UNL     1      27.778  44.023  53.139  1.00  0.00     0.061 A 
HETATM   12  N   UNL     1      26.884  44.976  52.781  1.00  0.00    -0.397 N 
HETATM   13  H   UNL     1      26.243  44.881  52.000  1.00  0.00     0.156 HD
HETATM   14  H   UNL     1      27.031  45.951  53.023  1.00  0.00     0.156 HD
ENDROOT
BRANCH  10  15
HETATM   15  C   UNL     1      27.116  42.190  51.422  1.00  0.00     0.201 C 
HETATM   16  O   UNL     1      27.296  41.037  51.029  1.00  0.00    -0.286 OA
BRANCH  15  17
HETATM   17  C   UNL     1      26.051  42.962  50.718  1.00  0.00     0.018 A 
HETATM   18  C   UNL     1      24.689  42.744  50.974  1.00  0.00     0.055 A 
HETATM   19  C   UNL     1      23.781  43.523  50.289  1.00  0.00     0.106 A 
HETATM   20  C   UNL     1      24.175  44.493  49.395  1.00  0.00     0.105 A 
HETATM   21  O   UNL     1      22.427  43.446  50.402  1.00  0.00    -0.323 OA
HETATM   22  O   UNL     1      23.120  45.145  48.837  1.00  0.00    -0.323 OA
HETATM   23  C   UNL     1      25.503  44.744  49.134  1.00  0.00     0.040 A 
HETATM   24  C   UNL     1      22.015  44.493  49.496  1.00  0.00     0.352 A 
HETATM   25  C   UNL     1      26.451  43.971  49.810  1.00  0.00     0.018 A 
ENDBRANCH  15  17
ENDBRANCH  10  15
BRANCH   1  26
HETATM   26  C   UNL     1      30.398  46.017  57.194  1.00  0.00     0.036 C 
HETATM   27  C   UNL     1      29.773  45.720  58.551  1.00  0.00     0.010 C 
ENDBRANCH   1  26
TORSDOF 3
ENDMDL
MODEL 5
REMARK VINA RESULT:      -8.1      3.338      8.065
REMARK  3 active torsions:
REMARK  status: ('A' for Active; 'I' for Inactive)
REMARK    1  A    between atoms: C_2  and  C_3 
REMARK    2  A    between atoms: C_12  and  C_13 
REMARK    3  A    between atoms: C_13  and  C_14 
ROOT
HETATM    1  C   UNL     1      23.746  49.099  48.445  1.00  0.00    -0.027 A 
HETATM    2  C   UNL     1      25.116  49.340  48.640  1.00  0.00     0.039 A 
HETATM    3  C   UNL     1      25.779  50.612  48.184  1.00  0.00     0.071 C 
HETATM    4  N   UNL     1      25.947  48.492  49.268  1.00  0.00    -0.245 NA
HETATM    5  C   UNL     1      25.402  47.337  49.679  1.00  0.00     0.111 A 
HETATM    6  C   UNL     1      24.085  46.922  49.521  1.00  0.00     0.034 A 
HETATM    7  C   UNL     1      23.190  47.870  48.918  1.00  0.00    -0.038 A 
HETATM    8  C   UNL     1      21.713  47.605  48.770  1.00  0.00     0.050 C 
HETATM    9  S   UNL     1      26.371  46.226  50.515  1.00  0.00    -0.063 SA
HETATM   10  C   UNL     1      25.094  45.098  50.652  1.00  0.00     0.085 A 
HETATM   11  C   UNL     1      23.941  45.570  50.045  1.00  0.00     0.061 A 
HETATM   12  N   UNL     1      22.791  44.857  49.977  1.00  0.00    -0.397 N 
HETATM   13  H   UNL     1      22.694  43.911  50.333  1.00  0.00     0.156 HD
HETATM   14  H   UNL     1      22.085  45.064  49.276  1.00  0.00     0.156 HD
ENDROOT
BRANCH  10  15
HETATM   15  C   UNL     1      25.388  43.868  51.369  1.00  0.00     0.201 C 
HETATM   16  O   UNL     1      24.761  42.820  51.202  1.00  0.00    -0.286 OA
BRANCH  15  17
HETATM   17  C   UNL     1      26.491  43.817  52.371  1.00  0.00     0.018 A 
HETATM   18  C   UNL     1      27.739  43.253  52.068  1.00  0.00     0.055 A 
HETATM   19  C   UNL     1      28.703  43.273  53.054  1.00  0.00     0.106 A 
HETATM   20  C   UNL     1      28.473  43.833  54.291  1.00  0.00     0.105 A 
HETATM   21  O   UNL     1      29.961  42.767  52.943  1.00  0.00    -0.323 OA
HETATM   22  O   UNL     1      29.557  43.749  55.107  1.00  0.00    -0.323 OA
HETATM   23  C   UNL     1      27.266  44.410  54.615  1.00  0.00     0.040 A 
HETATM   24  C   UNL     1      30.505  43.093  54.240  1.00  0.00     0.352 A 
HETATM   25  C   UNL     1      26.266  44.404  53.638  1.00  0.00     0.018 A 
ENDBRANCH  15  17
ENDBRANCH  10  15
BRANCH   1  26
HETATM   26  C   UNL     1      22.900  50.125  47.710  1.00  0.00     0.036 C 
HETATM   27  C   UNL     1      22.236  51.109  48.663  1.00  0.00     0.010 C 
ENDBRANCH   1  26
TORSDOF 3
ENDMDL
MODEL 6
REMARK VINA RESULT:      -8.1      4.172      5.873
REMARK  3 active torsions:
REMARK  status: ('A' for Active; 'I' for Inactive)
REMARK    1  A    between atoms: C_2  and  C_3 
REMARK    2  A    between atoms: C_12  and  C_13 
REMARK    3  A    between atoms: C_13  and  C_14 
ROOT
HETATM    1  C   UNL     1      28.414  45.818  55.011  1.00  0.00    -0.027 A 
HETATM    2  C   UNL     1      27.446  46.746  54.593  1.00  0.00     0.039 A 
HETATM    3  C   UNL     1      27.376  48.140  55.158  1.00  0.00     0.071 C 
HETATM    4  N   UNL     1      26.527  46.499  53.645  1.00  0.00    -0.245 NA
HETATM    5  C   UNL     1      26.543  45.263  53.124  1.00  0.00     0.111 A 
HETATM    6  C   UNL     1      27.394  44.217  53.460  1.00  0.00     0.034 A 
HETATM    7  C   UNL     1      28.421  44.517  54.418  1.00  0.00    -0.038 A 
HETATM    8  C   UNL     1      29.479  43.515  54.809  1.00  0.00     0.050 C 
HETATM    9  S   UNL     1      25.442  44.879  51.894  1.00  0.00    -0.063 SA
HETATM   10  C   UNL     1      26.001  43.267  51.791  1.00  0.00     0.085 A 
HETATM   11  C   UNL     1      27.014  43.028  52.707  1.00  0.00     0.061 A 
HETATM   12  N   UNL     1      27.609  41.820  52.860  1.00  0.00    -0.397 N 
HETATM   13  H   UNL     1      27.337  40.990  52.343  1.00  0.00     0.156 HD
HETATM   14  H   UNL     1      28.095  41.580  53.718  1.00  0.00     0.156 HD
ENDROOT
BRANCH  10  15
HETATM   15  C   UNL     1      25.371  42.423  50.789  1.00  0.00     0.201 C 
HETATM   16  O   UNL     1      24.166  42.456  50.536  1.00  0.00    -0.286 OA
BRANCH  15  17
HETATM   17  C   UNL     1      26.178  41.448  50.000  1.00  0.00     0.018 A 
HETATM   18  C   UNL     1      26.134  40.070  50.262  1.00  0.00     0.055 A 
HETATM   19  C   UNL     1      26.899  39.246  49.464  1.00  0.00     0.106 A 
HETATM   20  C   UNL     1      27.673  39.735  48.436  1.00  0.00     0.105 A 
HETATM   21  O   UNL     1      26.987  37.893  49.577  1.00  0.00    -0.323 OA
HETATM   22  O   UNL     1      28.341  38.752  47.776  1.00  0.00    -0.323 OA
HETATM   23  C   UNL     1      27.726  41.079  48.142  1.00  0.00     0.040 A 
HETATM   24  C   UNL     1      27.885  37.584  48.489  1.00  0.00     0.352 A 
HETATM   25  C   UNL     1      26.963  41.943  48.933  1.00  0.00     0.018 A 
ENDBRANCH  15  17
ENDBRANCH  10  15
BRANCH   1  26
HETATM   26  C   UNL     1      29.400  46.200  56.102  1.00  0.00     0.036 C 
HETATM   27  C   UNL     1      28.818  46.004  57.495  1.00  0.00     0.010 C 
ENDBRANCH   1  26
TORSDOF 3
ENDMDL
MODEL 7
REMARK VINA RESULT:      -8.0      1.432      2.297
REMARK  3 active torsions:
REMARK  status: ('A' for Active; 'I' for Inactive)
REMARK    1  A    between atoms: C_2  and  C_3 
REMARK    2  A    between atoms: C_12  and  C_13 
REMARK    3  A    between atoms: C_13  and  C_14 
ROOT
HETATM    1  C   UNL     1      29.701  45.090  56.776  1.00  0.00    -0.027 A 
HETATM    2  C   UNL     1      30.385  44.100  56.051  1.00  0.00     0.039 A 
HETATM    3  C   UNL     1      31.604  43.406  56.598  1.00  0.00     0.071 C 
HETATM    4  N   UNL     1      30.012  43.662  54.838  1.00  0.00    -0.245 NA
HETATM    5  C   UNL     1      28.938  44.264  54.305  1.00  0.00     0.111 A 
HETATM    6  C   UNL     1      28.182  45.289  54.862  1.00  0.00     0.034 A 
HETATM    7  C   UNL     1      28.545  45.694  56.191  1.00  0.00    -0.038 A 
HETATM    8  C   UNL     1      27.758  46.723  56.965  1.00  0.00     0.050 C 
HETATM    9  S   UNL     1      28.375  43.745  52.793  1.00  0.00    -0.063 SA
HETATM   10  C   UNL     1      27.125  44.911  52.772  1.00  0.00     0.085 A 
HETATM   11  C   UNL     1      27.156  45.700  53.911  1.00  0.00     0.061 A 
HETATM   12  N   UNL     1      26.298  46.725  54.130  1.00  0.00    -0.397 N 
HETATM   13  H   UNL     1      25.590  47.018  53.463  1.00  0.00     0.156 HD
HETATM   14  H   UNL     1      26.526  47.471  54.780  1.00  0.00     0.156 HD
ENDROOT
BRANCH  10  15
HETATM   15  C   UNL     1      26.241  44.895  51.618  1.00  0.00     0.201 C 
HETATM   16  O   UNL     1      25.676  43.879  51.212  1.00  0.00    -0.286 OA
BRANCH  15  17
HETATM   17  C   UNL     1      25.971  46.145  50.850  1.00  0.00     0.018 A 
HETATM   18  C   UNL     1      27.003  46.872  50.238  1.00  0.00     0.055 A 
HETATM   19  C   UNL     1      26.651  48.002  49.531  1.00  0.00     0.106 A 
HETATM   20  C   UNL     1      25.342  48.412  49.408  1.00  0.00     0.105 A 
HETATM   21  O   UNL     1      27.514  48.832  48.882  1.00  0.00    -0.323 OA
HETATM   22  O   UNL     1      25.220  49.545  48.667  1.00  0.00    -0.323 OA
HETATM   23  C   UNL     1      24.305  47.712  49.982  1.00  0.00     0.040 A 
HETATM   24  C   UNL     1      26.597  49.794  48.317  1.00  0.00     0.352 A 
HETATM   25  C   UNL     1      24.627  46.562  50.707  1.00  0.00     0.018 A 
ENDBRANCH  15  17
ENDBRANCH  10  15
BRANCH   1  26
HETATM   26  C   UNL     1      30.220  45.519  58.138  1.00  0.00     0.036 C 
HETATM   27  C   UNL     1      31.291  46.595  58.030  1.00  0.00     0.010 C 
ENDBRANCH   1  26
TORSDOF 3
ENDMDL
MODEL 8
REMARK VINA RESULT:      -8.0      3.607      8.971
REMARK  3 active torsions:
REMARK  status: ('A' for Active; 'I' for Inactive)
REMARK    1  A    between atoms: C_2  and  C_3 
REMARK    2  A    between atoms: C_12  and  C_13 
REMARK    3  A    between atoms: C_13  and  C_14 
ROOT
HETATM    1  C   UNL     1      21.452  49.471  48.047  1.00  0.00    -0.027 A 
HETATM    2  C   UNL     1      20.871  48.225  48.337  1.00  0.00     0.039 A 
HETATM    3  C   UNL     1      19.397  47.969  48.164  1.00  0.00     0.071 C 
HETATM    4  N   UNL     1      21.560  47.153  48.758  1.00  0.00    -0.245 NA
HETATM    5  C   UNL     1      22.877  47.340  48.941  1.00  0.00     0.111 A 
HETATM    6  C   UNL     1      23.596  48.514  48.752  1.00  0.00     0.034 A 
HETATM    7  C   UNL     1      22.861  49.630  48.227  1.00  0.00    -0.038 A 
HETATM    8  C   UNL     1      23.523  50.939  47.875  1.00  0.00     0.050 C 
HETATM    9  S   UNL     1      23.829  46.027  49.435  1.00  0.00    -0.063 SA
HETATM   10  C   UNL     1      25.249  46.978  49.486  1.00  0.00     0.085 A 
HETATM   11  C   UNL     1      24.983  48.294  49.142  1.00  0.00     0.061 A 
HETATM   12  N   UNL     1      25.927  49.267  49.138  1.00  0.00    -0.397 N 
HETATM   13  H   UNL     1      26.891  49.116  49.419  1.00  0.00     0.156 HD
HETATM   14  H   UNL     1      25.670  50.247  49.202  1.00  0.00     0.156 HD
ENDROOT
BRANCH  10  15
HETATM   15  C   UNL     1      26.477  46.292  49.852  1.00  0.00     0.201 C 
HETATM   16  O   UNL     1      27.482  46.277  49.139  1.00  0.00    -0.286 OA
BRANCH  15  17
HETATM   17  C   UNL     1      26.579  45.552  51.142  1.00  0.00     0.018 A 
HETATM   18  C   UNL     1      27.215  44.305  51.231  1.00  0.00     0.055 A 
HETATM   19  C   UNL     1      27.278  43.710  52.473  1.00  0.00     0.106 A 
HETATM   20  C   UNL     1      26.753  44.305  53.598  1.00  0.00     0.105 A 
HETATM   21  O   UNL     1      27.845  42.503  52.745  1.00  0.00    -0.323 OA
HETATM   22  O   UNL     1      26.927  43.550  54.715  1.00  0.00    -0.323 OA
HETATM   23  C   UNL     1      26.138  45.535  53.549  1.00  0.00     0.040 A 
HETATM   24  C   UNL     1      27.641  42.419  54.172  1.00  0.00     0.352 A 
HETATM   25  C   UNL     1      26.055  46.167  52.304  1.00  0.00     0.018 A 
ENDBRANCH  15  17
ENDBRANCH  10  15
BRANCH   1  26
HETATM   26  C   UNL     1      20.573  50.622  47.587  1.00  0.00     0.036 C 
HETATM   27  C   UNL     1      20.191  51.546  48.735  1.00  0.00     0.010 C 
ENDBRANCH   1  26
TORSDOF 3
ENDMDL
MODEL 9
REMARK VINA RESULT:      -8.0      3.778      5.168
REMARK  3 active torsions:
REMARK  status: ('A' for Active; 'I' for Inactive)
REMARK    1  A    between atoms: C_2  and  C_3 
REMARK    2  A    between atoms: C_12  and  C_13 
REMARK    3  A    between atoms: C_13  and  C_14 
ROOT
HETATM    1  C   UNL     1      29.494  45.112  55.533  1.00  0.00    -0.027 A 
HETATM    2  C   UNL     1      29.905  43.784  55.328  1.00  0.00     0.039 A 
HETATM    3  C   UNL     1      31.072  43.184  56.066  1.00  0.00     0.071 C 
HETATM    4  N   UNL     1      29.291  42.926  54.497  1.00  0.00    -0.245 NA
HETATM    5  C   UNL     1      28.253  43.423  53.807  1.00  0.00     0.111 A 
HETATM    6  C   UNL     1      27.754  44.720  53.852  1.00  0.00     0.034 A 
HETATM    7  C   UNL     1      28.369  45.603  54.801  1.00  0.00    -0.038 A 
HETATM    8  C   UNL     1      27.872  47.009  55.036  1.00  0.00     0.050 C 
HETATM    9  S   UNL     1      27.398  42.398  52.763  1.00  0.00    -0.063 SA
HETATM   10  C   UNL     1      26.350  43.653  52.264  1.00  0.00     0.085 A 
HETATM   11  C   UNL     1      26.671  44.850  52.884  1.00  0.00     0.061 A 
HETATM   12  N   UNL     1      26.021  46.014  52.638  1.00  0.00    -0.397 N 
HETATM   13  H   UNL     1      25.274  46.107  51.957  1.00  0.00     0.156 HD
HETATM   14  H   UNL     1      26.454  46.910  52.838  1.00  0.00     0.156 HD
ENDROOT
BRANCH  10  15
HETATM   15  C   UNL     1      25.311  43.293  51.314  1.00  0.00     0.201 C 
HETATM   16  O   UNL     1      24.137  43.647  51.427  1.00  0.00    -0.286 OA
BRANCH  15  17
HETATM   17  C   UNL     1      25.627  42.450  50.125  1.00  0.00     0.018 A 
HETATM   18  C   UNL     1      24.640  41.702  49.466  1.00  0.00     0.055 A 
HETATM   19  C   UNL     1      25.027  40.972  48.362  1.00  0.00     0.106 A 
HETATM   20  C   UNL     1      26.324  40.973  47.900  1.00  0.00     0.105 A 
HETATM   21  O   UNL     1      24.212  40.184  47.608  1.00  0.00    -0.323 OA
HETATM   22  O   UNL     1      26.485  40.191  46.800  1.00  0.00    -0.323 OA
HETATM   23  C   UNL     1      27.313  41.710  48.513  1.00  0.00     0.040 A 
HETATM   24  C   UNL     1      25.138  39.711  46.605  1.00  0.00     0.352 A 
HETATM   25  C   UNL     1      26.955  42.460  49.636  1.00  0.00     0.018 A 
ENDBRANCH  15  17
ENDBRANCH  10  15
BRANCH   1  26
HETATM   26  C   UNL     1      30.271  46.000  56.491  1.00  0.00     0.036 C 
HETATM   27  C   UNL     1      29.720  45.933  57.908  1.00  0.00     0.010 C 
ENDBRANCH   1  26
TORSDOF 3
ENDMDL
MODEL 10
REMARK VINA RESULT:      -7.7      4.471      9.499
REMARK  3 active torsions:
REMARK  status: ('A' for Active; 'I' for Inactive)
REMARK    1  A    between atoms: C_2  and  C_3 
REMARK    2  A    between atoms: C_12  and  C_13 
REMARK    3  A    between atoms: C_13  and  C_14 
ROOT
HETATM    1  C   UNL     1      19.350  49.807  48.756  1.00  0.00    -0.027 A 
HETATM    2  C   UNL     1      19.922  51.080  48.603  1.00  0.00     0.039 A 
HETATM    3  C   UNL     1      19.087  52.314  48.387  1.00  0.00     0.071 C 
HETATM    4  N   UNL     1      21.241  51.325  48.664  1.00  0.00    -0.245 NA
HETATM    5  C   UNL     1      22.027  50.251  48.840  1.00  0.00     0.111 A 
HETATM    6  C   UNL     1      21.628  48.925  48.957  1.00  0.00     0.034 A 
HETATM    7  C   UNL     1      20.212  48.687  48.968  1.00  0.00    -0.038 A 
HETATM    8  C   UNL     1      19.625  47.315  49.187  1.00  0.00     0.050 C 
HETATM    9  S   UNL     1      23.702  50.474  48.967  1.00  0.00    -0.063 SA
HETATM   10  C   UNL     1      23.991  48.796  49.120  1.00  0.00     0.085 A 
HETATM   11  C   UNL     1      22.809  48.076  49.056  1.00  0.00     0.061 A 
HETATM   12  N   UNL     1      22.758  46.723  49.114  1.00  0.00    -0.397 N 
HETATM   13  H   UNL     1      23.581  46.131  49.173  1.00  0.00     0.156 HD
HETATM   14  H   UNL     1      21.959  46.212  48.752  1.00  0.00     0.156 HD
ENDROOT
BRANCH  10  15
HETATM   15  C   UNL     1      25.375  48.389  49.302  1.00  0.00     0.201 C 
HETATM   16  O   UNL     1      26.330  48.997  48.816  1.00  0.00    -0.286 OA
BRANCH  15  17
HETATM   17  C   UNL     1      25.711  47.179  50.106  1.00  0.00     0.018 A 
HETATM   18  C   UNL     1      26.389  46.086  49.547  1.00  0.00     0.055 A 
HETATM   19  C   UNL     1      26.675  45.022  50.377  1.00  0.00     0.106 A 
HETATM   20  C   UNL     1      26.328  45.019  51.710  1.00  0.00     0.105 A 
HETATM   21  O   UNL     1      27.315  43.879  50.009  1.00  0.00    -0.323 OA
HETATM   22  O   UNL     1      26.707  43.878  52.343  1.00  0.00    -0.323 OA
HETATM   23  C   UNL     1      25.677  46.083  52.293  1.00  0.00     0.040 A 
HETATM   24  C   UNL     1      27.353  43.168  51.266  1.00  0.00     0.352 A 
HETATM   25  C   UNL     1      25.370  47.177  51.479  1.00  0.00     0.018 A 
ENDBRANCH  15  17
ENDBRANCH  10  15
BRANCH   1  26
HETATM   26  C   UNL     1      17.842  49.644  48.657  1.00  0.00     0.036 C 
HETATM   27  C   UNL     1      17.388  49.366  47.230  1.00  0.00     0.010 C 
ENDBRANCH   1  26
TORSDOF 3
ENDMDL
