MODEL 1
REMARK VINA RESULT:      -7.2      0.000      0.000
REMARK  5 active torsions:
REMARK  status: ('A' for Active; 'I' for Inactive)
REMARK    1  A    between atoms: C_2  and  O_3 
REMARK    2  A    between atoms: C_4  and  C_5 
REMARK    3  A    between atoms: C_5  and  O_6 
REMARK    4  A    between atoms: C_9  and  C_10 
REMARK    5  A    between atoms: C_22  and  O_23 
ROOT
HETATM    1  C   UNL     1      32.141  51.290  43.455  1.00  0.00     0.047 C 
HETATM    2  C   UNL     1      31.687  51.479  42.000  1.00  0.00     0.073 C 
HETATM    3  C   UNL     1      31.682  50.147  41.168  1.00  0.00     0.133 C 
HETATM    4  C   UNL     1      31.022  50.229  39.748  1.00  0.00     0.074 C 
HETATM    5  C   UNL     1      30.208  51.467  39.554  1.00  0.00     0.030 A 
HETATM    6  C   UNL     1      29.885  52.344  40.565  1.00  0.00     0.042 A 
HETATM    7  N   UNL     1      29.162  53.356  40.004  1.00  0.00    -0.279 N 
HETATM    8  H   UNL     1      28.756  54.174  40.450  1.00  0.00     0.189 HD
HETATM    9  N   UNL     1      29.047  53.229  38.665  1.00  0.00    -0.149 NA
HETATM   10  C   UNL     1      29.683  52.090  38.421  1.00  0.00     0.190 A 
HETATM   11  C   UNL     1      30.326  52.235  41.977  1.00  0.00     0.097 C 
ENDROOT
BRANCH   4  12
HETATM   12  C   UNL     1      30.102  49.078  39.349  1.00  0.00    -0.048 A 
HETATM   13  C   UNL     1      28.703  49.135  39.517  1.00  0.00     0.009 A 
HETATM   14  C   UNL     1      27.889  48.055  39.166  1.00  0.00     0.024 A 
HETATM   15  C   UNL     1      28.462  46.903  38.640  1.00  0.00     0.034 A 
HETATM   16 CL   UNL     1      27.463  45.571  38.211  1.00  0.00    -0.084 Cl
HETATM   17  C   UNL     1      29.841  46.820  38.465  1.00  0.00     0.024 A 
HETATM   18  C   UNL     1      30.657  47.901  38.819  1.00  0.00     0.009 A 
ENDBRANCH   4  12
BRANCH   3  19
HETATM   19  C   UNL     1      31.151  48.984  41.982  1.00  0.00     0.266 C 
HETATM   20  O   UNL     1      30.037  48.926  42.482  1.00  0.00    -0.265 OA
BRANCH  19  21
HETATM   21  O   UNL     1      32.102  48.009  42.065  1.00  0.00    -0.326 OA
HETATM   22  C   UNL     1      33.343  48.334  41.438  1.00  0.00     0.213 C 
ENDBRANCH  19  21
ENDBRANCH   3  19
BRANCH   2  23
HETATM   23  O   UNL     1      32.704  52.342  41.432  1.00  0.00    -0.389 OA
HETATM   24  H   UNL     1      32.563  52.397  40.469  1.00  0.00     0.210 HD
ENDBRANCH   2  23
BRANCH  10  25
HETATM   25  O   UNL     1      29.758  51.738  37.143  1.00  0.00    -0.343 OA
HETATM   26  H   UNL     1      30.689  51.490  37.011  1.00  0.00     0.219 HD
ENDBRANCH  10  25
TORSDOF 5
ENDMDL
MODEL 2
REMARK VINA RESULT:      -6.8      2.245      4.083
REMARK  5 active torsions:
REMARK  status: ('A' for Active; 'I' for Inactive)
REMARK    1  A    between atoms: C_2  and  O_3 
REMARK    2  A    between atoms: C_4  and  C_5 
REMARK    3  A    between atoms: C_5  and  O_6 
REMARK    4  A    between atoms: C_9  and  C_10 
REMARK    5  A    between atoms: C_22  and  O_23 
ROOT
HETATM    1  C   UNL     1      29.161  53.582  39.465  1.00  0.00     0.047 C 
HETATM    2  C   UNL     1      29.861  52.504  40.306  1.00  0.00     0.073 C 
HETATM    3  C   UNL     1      29.060  51.156  40.389  1.00  0.00     0.133 C 
HETATM    4  C   UNL     1      29.818  49.949  41.042  1.00  0.00     0.074 C 
HETATM    5  C   UNL     1      31.288  50.183  41.172  1.00  0.00     0.030 A 
HETATM    6  C   UNL     1      31.953  51.240  40.594  1.00  0.00     0.042 A 
HETATM    7  N   UNL     1      33.266  51.134  40.952  1.00  0.00    -0.279 N 
HETATM    8  H   UNL     1      34.045  51.737  40.707  1.00  0.00     0.189 HD
HETATM    9  N   UNL     1      33.491  50.099  41.791  1.00  0.00    -0.149 NA
HETATM   10  C   UNL     1      32.290  49.547  41.906  1.00  0.00     0.190 A 
HETATM   11  C   UNL     1      31.326  52.330  39.807  1.00  0.00     0.097 C 
ENDROOT
BRANCH   4  12
HETATM   12  C   UNL     1      29.687  48.596  40.346  1.00  0.00    -0.048 A 
HETATM   13  C   UNL     1      30.484  48.234  39.240  1.00  0.00     0.009 A 
HETATM   14  C   UNL     1      30.324  47.000  38.608  1.00  0.00     0.024 A 
HETATM   15  C   UNL     1      29.365  46.107  39.073  1.00  0.00     0.034 A 
HETATM   16 CL   UNL     1      29.164  44.587  38.293  1.00  0.00    -0.084 Cl
HETATM   17  C   UNL     1      28.564  46.439  40.162  1.00  0.00     0.024 A 
HETATM   18  C   UNL     1      28.723  47.677  40.794  1.00  0.00     0.009 A 
ENDBRANCH   4  12
BRANCH   3  19
HETATM   19  C   UNL     1      28.443  50.792  39.054  1.00  0.00     0.266 C 
HETATM   20  O   UNL     1      29.035  50.780  37.984  1.00  0.00    -0.265 OA
BRANCH  19  21
HETATM   21  O   UNL     1      27.128  50.473  39.227  1.00  0.00    -0.326 OA
HETATM   22  C   UNL     1      26.491  49.933  38.069  1.00  0.00     0.213 C 
ENDBRANCH  19  21
ENDBRANCH   3  19
BRANCH   2  23
HETATM   23  O   UNL     1      29.892  53.074  41.639  1.00  0.00    -0.389 OA
HETATM   24  H   UNL     1      29.661  54.019  41.578  1.00  0.00     0.210 HD
ENDBRANCH   2  23
BRANCH  10  25
HETATM   25  O   UNL     1      32.214  48.505  42.727  1.00  0.00    -0.343 OA
HETATM   26  H   UNL     1      32.247  47.729  42.141  1.00  0.00     0.219 HD
ENDBRANCH  10  25
TORSDOF 5
ENDMDL
MODEL 3
REMARK VINA RESULT:      -6.7     25.670     27.031
REMARK  5 active torsions:
REMARK  status: ('A' for Active; 'I' for Inactive)
REMARK    1  A    between atoms: C_2  and  O_3 
REMARK    2  A    between atoms: C_4  and  C_5 
REMARK    3  A    between atoms: C_5  and  O_6 
REMARK    4  A    between atoms: C_9  and  C_10 
REMARK    5  A    between atoms: C_22  and  O_23 
ROOT
HETATM    1  C   UNL     1      37.290  47.495  67.456  1.00  0.00     0.047 C 
HETATM    2  C   UNL     1      36.357  46.426  66.869  1.00  0.00     0.073 C 
HETATM    3  C   UNL     1      36.894  45.788  65.539  1.00  0.00     0.133 C 
HETATM    4  C   UNL     1      36.103  44.542  65.008  1.00  0.00     0.074 C 
HETATM    5  C   UNL     1      35.177  43.962  66.027  1.00  0.00     0.030 A 
HETATM    6  C   UNL     1      35.162  44.330  67.353  1.00  0.00     0.042 A 
HETATM    7  N   UNL     1      34.175  43.610  67.960  1.00  0.00    -0.279 N 
HETATM    8  H   UNL     1      33.882  43.620  68.932  1.00  0.00     0.189 HD
HETATM    9  N   UNL     1      33.492  42.834  67.090  1.00  0.00    -0.149 NA
HETATM   10  C   UNL     1      34.112  43.065  65.940  1.00  0.00     0.190 A 
HETATM   11  C   UNL     1      36.010  45.380  67.968  1.00  0.00     0.097 C 
ENDROOT
BRANCH   4  12
HETATM   12  C   UNL     1      36.933  43.364  64.503  1.00  0.00    -0.048 A 
HETATM   13  C   UNL     1      37.210  42.236  65.303  1.00  0.00     0.009 A 
HETATM   14  C   UNL     1      37.994  41.186  64.822  1.00  0.00     0.024 A 
HETATM   15  C   UNL     1      38.510  41.245  63.532  1.00  0.00     0.034 A 
HETATM   16 CL   UNL     1      39.478  39.953  62.940  1.00  0.00    -0.084 Cl
HETATM   17  C   UNL     1      38.252  42.347  62.721  1.00  0.00     0.024 A 
HETATM   18  C   UNL     1      37.469  43.402  63.204  1.00  0.00     0.009 A 
ENDBRANCH   4  12
BRANCH   3  19
HETATM   19  C   UNL     1      38.387  45.535  65.607  1.00  0.00     0.266 C 
HETATM   20  O   UNL     1      38.947  44.854  66.454  1.00  0.00    -0.265 OA
BRANCH  19  21
HETATM   21  O   UNL     1      39.010  46.174  64.575  1.00  0.00    -0.326 OA
HETATM   22  C   UNL     1      40.290  45.643  64.234  1.00  0.00     0.213 C 
ENDBRANCH  19  21
ENDBRANCH   3  19
BRANCH   2  23
HETATM   23  O   UNL     1      35.153  47.165  66.540  1.00  0.00    -0.389 OA
HETATM   24  H   UNL     1      34.387  46.571  66.637  1.00  0.00     0.210 HD
ENDBRANCH   2  23
BRANCH  10  25
HETATM   25  O   UNL     1      33.605  42.443  64.881  1.00  0.00    -0.343 OA
HETATM   26  H   UNL     1      34.044  42.860  64.119  1.00  0.00     0.219 HD
ENDBRANCH  10  25
TORSDOF 5
ENDMDL
MODEL 4
REMARK VINA RESULT:      -6.6      3.021      4.750
REMARK  5 active torsions:
REMARK  status: ('A' for Active; 'I' for Inactive)
REMARK    1  A    between atoms: C_2  and  O_3 
REMARK    2  A    between atoms: C_4  and  C_5 
REMARK    3  A    between atoms: C_5  and  O_6 
REMARK    4  A    between atoms: C_9  and  C_10 
REMARK    5  A    between atoms: C_22  and  O_23 
ROOT
HETATM    1  C   UNL     1      28.000  48.324  41.320  1.00  0.00     0.047 C 
HETATM    2  C   UNL     1      28.473  49.784  41.258  1.00  0.00     0.073 C 
HETATM    3  C   UNL     1      29.789  50.051  42.071  1.00  0.00     0.133 C 
HETATM    4  C   UNL     1      30.444  51.461  41.870  1.00  0.00     0.074 C 
HETATM    5  C   UNL     1      29.900  52.194  40.687  1.00  0.00     0.030 A 
HETATM    6  C   UNL     1      29.074  51.628  39.743  1.00  0.00     0.042 A 
HETATM    7  N   UNL     1      28.768  52.603  38.839  1.00  0.00    -0.279 N 
HETATM    8  H   UNL     1      28.185  52.544  38.009  1.00  0.00     0.189 HD
HETATM    9  N   UNL     1      29.294  53.802  39.173  1.00  0.00    -0.149 NA
HETATM   10  C   UNL     1      29.967  53.528  40.284  1.00  0.00     0.190 A 
HETATM   11  C   UNL     1      28.554  50.239  39.771  1.00  0.00     0.097 C 
ENDROOT
BRANCH   4  12
HETATM   12  C   UNL     1      31.961  51.498  41.702  1.00  0.00    -0.048 A 
HETATM   13  C   UNL     1      32.581  51.551  40.436  1.00  0.00     0.009 A 
HETATM   14  C   UNL     1      33.971  51.558  40.313  1.00  0.00     0.024 A 
HETATM   15  C   UNL     1      34.765  51.513  41.454  1.00  0.00     0.034 A 
HETATM   16 CL   UNL     1      36.478  51.517  41.304  1.00  0.00    -0.084 Cl
HETATM   17  C   UNL     1      34.179  51.459  42.716  1.00  0.00     0.024 A 
HETATM   18  C   UNL     1      32.785  51.450  42.839  1.00  0.00     0.009 A 
ENDBRANCH   4  12
BRANCH   3  19
HETATM   19  C   UNL     1      30.787  48.924  41.900  1.00  0.00     0.266 C 
HETATM   20  O   UNL     1      31.303  48.295  42.813  1.00  0.00    -0.265 OA
BRANCH  19  21
HETATM   21  O   UNL     1      31.018  48.711  40.572  1.00  0.00    -0.326 OA
HETATM   22  C   UNL     1      31.515  47.411  40.256  1.00  0.00     0.213 C 
ENDBRANCH  19  21
ENDBRANCH   3  19
BRANCH   2  23
HETATM   23  O   UNL     1      27.405  50.519  41.908  1.00  0.00    -0.389 OA
HETATM   24  H   UNL     1      27.409  51.434  41.573  1.00  0.00     0.210 HD
ENDBRANCH   2  23
BRANCH  10  25
HETATM   25  O   UNL     1      30.564  54.564  40.861  1.00  0.00    -0.343 OA
HETATM   26  H   UNL     1      31.480  54.270  41.007  1.00  0.00     0.219 HD
ENDBRANCH  10  25
TORSDOF 5
ENDMDL
MODEL 5
REMARK VINA RESULT:      -6.4      2.308      3.305
REMARK  5 active torsions:
REMARK  status: ('A' for Active; 'I' for Inactive)
REMARK    1  A    between atoms: C_2  and  O_3 
REMARK    2  A    between atoms: C_4  and  C_5 
REMARK    3  A    between atoms: C_5  and  O_6 
REMARK    4  A    between atoms: C_9  and  C_10 
REMARK    5  A    between atoms: C_22  and  O_23 
ROOT
HETATM    1  C   UNL     1      33.006  47.612  41.266  1.00  0.00     0.047 C 
HETATM    2  C   UNL     1      32.390  49.006  41.081  1.00  0.00     0.073 C 
HETATM    3  C   UNL     1      31.332  49.075  39.923  1.00  0.00     0.133 C 
HETATM    4  C   UNL     1      30.508  50.405  39.825  1.00  0.00     0.074 C 
HETATM    5  C   UNL     1      30.625  51.255  41.049  1.00  0.00     0.030 A 
HETATM    6  C   UNL     1      31.209  50.838  42.223  1.00  0.00     0.042 A 
HETATM    7  N   UNL     1      31.152  51.886  43.096  1.00  0.00    -0.279 N 
HETATM    8  H   UNL     1      31.484  51.938  44.054  1.00  0.00     0.189 HD
HETATM    9  N   UNL     1      30.621  52.995  42.537  1.00  0.00    -0.149 NA
HETATM   10  C   UNL     1      30.314  52.590  41.311  1.00  0.00     0.190 A 
HETATM   11  C   UNL     1      31.853  49.521  42.449  1.00  0.00     0.097 C 
ENDROOT
BRANCH   4  12
HETATM   12  C   UNL     1      29.008  50.270  39.573  1.00  0.00    -0.048 A 
HETATM   13  C   UNL     1      28.092  49.967  40.602  1.00  0.00     0.009 A 
HETATM   14  C   UNL     1      26.729  49.824  40.336  1.00  0.00     0.024 A 
HETATM   15  C   UNL     1      26.260  49.983  39.037  1.00  0.00     0.034 A 
HETATM   16 CL   UNL     1      24.582  49.803  38.707  1.00  0.00    -0.084 Cl
HETATM   17  C   UNL     1      27.143  50.281  38.002  1.00  0.00     0.024 A 
HETATM   18  C   UNL     1      28.509  50.422  38.268  1.00  0.00     0.009 A 
ENDBRANCH   4  12
BRANCH   3  19
HETATM   19  C   UNL     1      30.444  47.847  39.907  1.00  0.00     0.266 C 
HETATM   20  O   UNL     1      29.801  47.431  40.861  1.00  0.00    -0.265 OA
BRANCH  19  21
HETATM   21  O   UNL     1      30.463  47.280  38.666  1.00  0.00    -0.326 OA
HETATM   22  C   UNL     1      29.195  46.814  38.206  1.00  0.00     0.213 C 
ENDBRANCH  19  21
ENDBRANCH   3  19
BRANCH   2  23
HETATM   23  O   UNL     1      33.517  49.830  40.688  1.00  0.00    -0.389 OA
HETATM   24  H   UNL     1      33.178  50.624  40.235  1.00  0.00     0.210 HD
ENDBRANCH   2  23
BRANCH  10  25
HETATM   25  O   UNL     1      29.800  53.518  40.512  1.00  0.00    -0.343 OA
HETATM   26  H   UNL     1      29.917  53.161  39.615  1.00  0.00     0.219 HD
ENDBRANCH  10  25
TORSDOF 5
ENDMDL
MODEL 6
REMARK VINA RESULT:      -6.4     11.599     13.055
REMARK  5 active torsions:
REMARK  status: ('A' for Active; 'I' for Inactive)
REMARK    1  A    between atoms: C_2  and  O_3 
REMARK    2  A    between atoms: C_4  and  C_5 
REMARK    3  A    between atoms: C_5  and  O_6 
REMARK    4  A    between atoms: C_9  and  C_10 
REMARK    5  A    between atoms: C_22  and  O_23 
ROOT
HETATM    1  C   UNL     1      19.658  52.010  48.843  1.00  0.00     0.047 C 
HETATM    2  C   UNL     1      20.597  50.851  49.208  1.00  0.00     0.073 C 
HETATM    3  C   UNL     1      19.933  49.436  49.057  1.00  0.00     0.133 C 
HETATM    4  C   UNL     1      20.897  48.208  49.199  1.00  0.00     0.074 C 
HETATM    5  C   UNL     1      22.340  48.587  49.118  1.00  0.00     0.030 A 
HETATM    6  C   UNL     1      22.790  49.834  48.748  1.00  0.00     0.042 A 
HETATM    7  N   UNL     1      24.153  49.807  48.816  1.00  0.00    -0.279 N 
HETATM    8  H   UNL     1      24.816  50.548  48.611  1.00  0.00     0.189 HD
HETATM    9  N   UNL     1      24.624  48.628  49.278  1.00  0.00    -0.149 NA
HETATM   10  C   UNL     1      23.518  47.916  49.451  1.00  0.00     0.190 A 
HETATM   11  C   UNL     1      21.933  51.000  48.423  1.00  0.00     0.097 C 
ENDROOT
BRANCH   4  12
HETATM   12  C   UNL     1      20.723  47.075  48.189  1.00  0.00    -0.048 A 
HETATM   13  C   UNL     1      21.412  47.046  46.959  1.00  0.00     0.009 A 
HETATM   14  C   UNL     1      21.213  46.010  46.045  1.00  0.00     0.024 A 
HETATM   15  C   UNL     1      20.322  44.986  46.347  1.00  0.00     0.034 A 
HETATM   16 CL   UNL     1      20.073  43.711  45.220  1.00  0.00    -0.084 Cl
HETATM   17  C   UNL     1      19.628  44.991  47.554  1.00  0.00     0.024 A 
HETATM   18  C   UNL     1      19.826  46.031  48.469  1.00  0.00     0.009 A 
ENDBRANCH   4  12
BRANCH   3  19
HETATM   19  C   UNL     1      19.077  49.353  47.809  1.00  0.00     0.266 C 
HETATM   20  O   UNL     1      19.455  49.621  46.678  1.00  0.00    -0.265 OA
BRANCH  19  21
HETATM   21  O   UNL     1      17.823  48.928  48.139  1.00  0.00    -0.326 OA
HETATM   22  C   UNL     1      17.151  48.206  47.106  1.00  0.00     0.213 C 
ENDBRANCH  19  21
ENDBRANCH   3  19
BRANCH   2  23
HETATM   23  O   UNL     1      20.865  51.056  50.618  1.00  0.00    -0.389 OA
HETATM   24  H   UNL     1      20.755  50.206  51.083  1.00  0.00     0.210 HD
ENDBRANCH   2  23
BRANCH  10  25
HETATM   25  O   UNL     1      23.693  46.697  49.949  1.00  0.00    -0.343 OA
HETATM   26  H   UNL     1      24.340  46.816  50.666  1.00  0.00     0.219 HD
ENDBRANCH  10  25
TORSDOF 5
ENDMDL
MODEL 7
REMARK VINA RESULT:      -6.4     25.602     26.779
REMARK  5 active torsions:
REMARK  status: ('A' for Active; 'I' for Inactive)
REMARK    1  A    between atoms: C_2  and  O_3 
REMARK    2  A    between atoms: C_4  and  C_5 
REMARK    3  A    between atoms: C_5  and  O_6 
REMARK    4  A    between atoms: C_9  and  C_10 
REMARK    5  A    between atoms: C_22  and  O_23 
ROOT
HETATM    1  C   UNL     1      41.616  47.814  65.799  1.00  0.00     0.047 C 
HETATM    2  C   UNL     1      40.254  47.289  65.323  1.00  0.00     0.073 C 
HETATM    3  C   UNL     1      40.360  46.047  64.368  1.00  0.00     0.133 C 
HETATM    4  C   UNL     1      39.008  45.330  64.025  1.00  0.00     0.074 C 
HETATM    5  C   UNL     1      37.888  45.734  64.926  1.00  0.00     0.030 A 
HETATM    6  C   UNL     1      38.050  46.486  66.068  1.00  0.00     0.042 A 
HETATM    7  N   UNL     1      36.810  46.673  66.607  1.00  0.00    -0.279 N 
HETATM    8  H   UNL     1      36.549  47.176  67.449  1.00  0.00     0.189 HD
HETATM    9  N   UNL     1      35.830  46.141  65.845  1.00  0.00    -0.149 NA
HETATM   10  C   UNL     1      36.502  45.586  64.845  1.00  0.00     0.190 A 
HETATM   11  C   UNL     1      39.331  47.052  66.555  1.00  0.00     0.097 C 
ENDROOT
BRANCH   4  12
HETATM   12  C   UNL     1      39.013  43.803  64.052  1.00  0.00    -0.048 A 
HETATM   13  C   UNL     1      38.797  43.067  65.236  1.00  0.00     0.009 A 
HETATM   14  C   UNL     1      38.833  41.671  65.234  1.00  0.00     0.024 A 
HETATM   15  C   UNL     1      39.085  40.989  64.049  1.00  0.00     0.034 A 
HETATM   16 CL   UNL     1      39.133  39.270  64.046  1.00  0.00    -0.084 Cl
HETATM   17  C   UNL     1      39.302  41.692  62.866  1.00  0.00     0.024 A 
HETATM   18  C   UNL     1      39.269  43.091  62.868  1.00  0.00     0.009 A 
ENDBRANCH   4  12
BRANCH   3  19
HETATM   19  C   UNL     1      41.424  45.075  64.835  1.00  0.00     0.266 C 
HETATM   20  O   UNL     1      41.505  44.608  65.962  1.00  0.00    -0.265 OA
BRANCH  19  21
HETATM   21  O   UNL     1      42.274  44.794  63.805  1.00  0.00    -0.326 OA
HETATM   22  C   UNL     1      43.460  45.588  63.781  1.00  0.00     0.213 C 
ENDBRANCH  19  21
ENDBRANCH   3  19
BRANCH   2  23
HETATM   23  O   UNL     1      39.714  48.389  64.547  1.00  0.00    -0.389 OA
HETATM   24  H   UNL     1      38.743  48.310  64.530  1.00  0.00     0.210 HD
ENDBRANCH   2  23
BRANCH  10  25
HETATM   25  O   UNL     1      35.761  45.011  63.904  1.00  0.00    -0.343 OA
HETATM   26  H   UNL     1      36.264  45.142  63.082  1.00  0.00     0.219 HD
ENDBRANCH  10  25
TORSDOF 5
ENDMDL
MODEL 8
REMARK VINA RESULT:      -6.4     12.421     14.044
REMARK  5 active torsions:
REMARK  status: ('A' for Active; 'I' for Inactive)
REMARK    1  A    between atoms: C_2  and  O_3 
REMARK    2  A    between atoms: C_4  and  C_5 
REMARK    3  A    between atoms: C_5  and  O_6 
REMARK    4  A    between atoms: C_9  and  C_10 
REMARK    5  A    between atoms: C_22  and  O_23 
ROOT
HETATM    1  C   UNL     1      20.081  45.279  46.820  1.00  0.00     0.047 C 
HETATM    2  C   UNL     1      20.829  46.580  47.147  1.00  0.00     0.073 C 
HETATM    3  C   UNL     1      19.985  47.874  46.873  1.00  0.00     0.133 C 
HETATM    4  C   UNL     1      20.604  49.219  47.391  1.00  0.00     0.074 C 
HETATM    5  C   UNL     1      21.729  49.011  48.352  1.00  0.00     0.030 A 
HETATM    6  C   UNL     1      22.058  47.792  48.900  1.00  0.00     0.042 A 
HETATM    7  N   UNL     1      23.144  47.992  49.703  1.00  0.00    -0.279 N 
HETATM    8  H   UNL     1      23.654  47.318  50.266  1.00  0.00     0.189 HD
HETATM    9  N   UNL     1      23.590  49.266  49.661  1.00  0.00    -0.149 NA
HETATM   10  C   UNL     1      22.725  49.854  48.845  1.00  0.00     0.190 A 
HETATM   11  C   UNL     1      21.399  46.499  48.594  1.00  0.00     0.097 C 
ENDROOT
BRANCH   4  12
HETATM   12  C   UNL     1      19.655  50.191  48.088  1.00  0.00    -0.048 A 
HETATM   13  C   UNL     1      19.359  50.103  49.464  1.00  0.00     0.009 A 
HETATM   14  C   UNL     1      18.467  50.991  50.068  1.00  0.00     0.024 A 
HETATM   15  C   UNL     1      17.858  51.982  49.306  1.00  0.00     0.034 A 
HETATM   16 CL   UNL     1      16.756  53.074  50.048  1.00  0.00    -0.084 Cl
HETATM   17  C   UNL     1      18.132  52.091  47.945  1.00  0.00     0.024 A 
HETATM   18  C   UNL     1      19.024  51.199  47.339  1.00  0.00     0.009 A 
ENDBRANCH   4  12
BRANCH   3  19
HETATM   19  C   UNL     1      18.544  47.701  47.308  1.00  0.00     0.266 C 
HETATM   20  O   UNL     1      18.183  47.298  48.405  1.00  0.00    -0.265 OA
BRANCH  19  21
HETATM   21  O   UNL     1      17.709  48.070  46.294  1.00  0.00    -0.326 OA
HETATM   22  C   UNL     1      16.446  48.580  46.721  1.00  0.00     0.213 C 
ENDBRANCH  19  21
ENDBRANCH   3  19
BRANCH   2  23
HETATM   23  O   UNL     1      21.939  46.581  46.214  1.00  0.00    -0.389 OA
HETATM   24  H   UNL     1      22.766  46.712  46.714  1.00  0.00     0.210 HD
ENDBRANCH   2  23
BRANCH  10  25
HETATM   25  O   UNL     1      22.959  51.137  48.590  1.00  0.00    -0.343 OA
HETATM   26  H   UNL     1      22.077  51.548  48.574  1.00  0.00     0.219 HD
ENDBRANCH  10  25
TORSDOF 5
ENDMDL
MODEL 9
REMARK VINA RESULT:      -6.3     13.052     14.394
REMARK  5 active torsions:
REMARK  status: ('A' for Active; 'I' for Inactive)
REMARK    1  A    between atoms: C_2  and  O_3 
REMARK    2  A    between atoms: C_4  and  C_5 
REMARK    3  A    between atoms: C_5  and  O_6 
REMARK    4  A    between atoms: C_9  and  C_10 
REMARK    5  A    between atoms: C_22  and  O_23 
ROOT
HETATM    1  C   UNL     1      24.382  44.475  50.688  1.00  0.00     0.047 C 
HETATM    2  C   UNL     1      25.370  43.483  51.318  1.00  0.00     0.073 C 
HETATM    3  C   UNL     1      25.290  42.042  50.699  1.00  0.00     0.133 C 
HETATM    4  C   UNL     1      26.417  41.044  51.140  1.00  0.00     0.074 C 
HETATM    5  C   UNL     1      27.568  41.722  51.809  1.00  0.00     0.030 A 
HETATM    6  C   UNL     1      27.739  43.087  51.851  1.00  0.00     0.042 A 
HETATM    7  N   UNL     1      28.879  43.328  52.562  1.00  0.00    -0.279 N 
HETATM    8  H   UNL     1      29.312  44.218  52.791  1.00  0.00     0.189 HD
HETATM    9  N   UNL     1      29.433  42.197  53.050  1.00  0.00    -0.149 NA
HETATM   10  C   UNL     1      28.628  41.251  52.584  1.00  0.00     0.190 A 
HETATM   11  C   UNL     1      26.802  44.094  51.296  1.00  0.00     0.097 C 
ENDROOT
BRANCH   4  12
HETATM   12  C   UNL     1      27.041  40.182  50.044  1.00  0.00    -0.048 A 
HETATM   13  C   UNL     1      28.114  40.632  49.247  1.00  0.00     0.009 A 
HETATM   14  C   UNL     1      28.647  39.831  48.236  1.00  0.00     0.024 A 
HETATM   15  C   UNL     1      28.116  38.566  48.006  1.00  0.00     0.034 A 
HETATM   16 CL   UNL     1      28.768  37.580  46.758  1.00  0.00    -0.084 Cl
HETATM   17  C   UNL     1      27.056  38.098  48.778  1.00  0.00     0.024 A 
HETATM   18  C   UNL     1      26.520  38.902  49.790  1.00  0.00     0.009 A 
ENDBRANCH   4  12
BRANCH   3  19
HETATM   19  C   UNL     1      25.123  42.091  49.194  1.00  0.00     0.266 C 
HETATM   20  O   UNL     1      25.818  42.746  48.429  1.00  0.00    -0.265 OA
BRANCH  19  21
HETATM   21  O   UNL     1      24.085  41.288  48.819  1.00  0.00    -0.326 OA
HETATM   22  C   UNL     1      24.190  40.760  47.497  1.00  0.00     0.213 C 
ENDBRANCH  19  21
ENDBRANCH   3  19
BRANCH   2  23
HETATM   23  O   UNL     1      24.929  43.388  52.696  1.00  0.00    -0.389 OA
HETATM   24  H   UNL     1      24.702  42.459  52.887  1.00  0.00     0.210 HD
ENDBRANCH   2  23
BRANCH  10  25
HETATM   25  O   UNL     1      28.926  40.011  52.956  1.00  0.00    -0.343 OA
HETATM   26  H   UNL     1      28.239  39.459  52.543  1.00  0.00     0.219 HD
ENDBRANCH  10  25
TORSDOF 5
ENDMDL
MODEL 10
REMARK VINA RESULT:      -6.3      3.709      5.846
REMARK  5 active torsions:
REMARK  status: ('A' for Active; 'I' for Inactive)
REMARK    1  A    between atoms: C_2  and  O_3 
REMARK    2  A    between atoms: C_4  and  C_5 
REMARK    3  A    between atoms: C_5  and  O_6 
REMARK    4  A    between atoms: C_9  and  C_10 
REMARK    5  A    between atoms: C_22  and  O_23 
ROOT
HETATM    1  C   UNL     1      28.379  45.249  39.810  1.00  0.00     0.047 C 
HETATM    2  C   UNL     1      27.298  46.339  39.766  1.00  0.00     0.073 C 
HETATM    3  C   UNL     1      27.677  47.630  40.576  1.00  0.00     0.133 C 
HETATM    4  C   UNL     1      26.722  48.860  40.391  1.00  0.00     0.074 C 
HETATM    5  C   UNL     1      25.804  48.715  39.221  1.00  0.00     0.030 A 
HETATM    6  C   UNL     1      25.914  47.722  38.273  1.00  0.00     0.042 A 
HETATM    7  N   UNL     1      24.894  47.900  37.384  1.00  0.00    -0.279 N 
HETATM    8  H   UNL     1      24.667  47.356  36.557  1.00  0.00     0.189 HD
HETATM    9  N   UNL     1      24.076  48.917  37.732  1.00  0.00    -0.149 NA
HETATM   10  C   UNL     1      24.644  49.387  38.835  1.00  0.00     0.190 A 
HETATM   11  C   UNL     1      26.910  46.623  38.285  1.00  0.00     0.097 C 
ENDROOT
BRANCH   4  12
HETATM   12  C   UNL     1      27.383  50.225  40.215  1.00  0.00    -0.048 A 
HETATM   13  C   UNL     1      27.735  50.737  38.949  1.00  0.00     0.009 A 
HETATM   14  C   UNL     1      28.363  51.978  38.822  1.00  0.00     0.024 A 
HETATM   15  C   UNL     1      28.646  52.727  39.959  1.00  0.00     0.034 A 
HETATM   16 CL   UNL     1      29.422  54.253  39.804  1.00  0.00    -0.084 Cl
HETATM   17  C   UNL     1      28.310  52.244  41.221  1.00  0.00     0.024 A 
HETATM   18  C   UNL     1      27.684  50.999  41.349  1.00  0.00     0.009 A 
ENDBRANCH   4  12
BRANCH   3  19
HETATM   19  C   UNL     1      29.134  48.000  40.384  1.00  0.00     0.266 C 
HETATM   20  O   UNL     1      29.679  48.175  39.303  1.00  0.00    -0.265 OA
BRANCH  19  21
HETATM   21  O   UNL     1      29.744  48.115  41.599  1.00  0.00    -0.326 OA
HETATM   22  C   UNL     1      30.762  49.114  41.660  1.00  0.00     0.213 C 
ENDBRANCH  19  21
ENDBRANCH   3  19
BRANCH   2  23
HETATM   23  O   UNL     1      26.164  45.727  40.431  1.00  0.00    -0.389 OA
HETATM   24  H   UNL     1      26.480  45.289  41.243  1.00  0.00     0.210 HD
ENDBRANCH   2  23
BRANCH  10  25
HETATM   25  O   UNL     1      24.006  50.393  39.424  1.00  0.00    -0.343 OA
HETATM   26  H   UNL     1      24.408  50.454  40.308  1.00  0.00     0.219 HD
ENDBRANCH  10  25
TORSDOF 5
ENDMDL
