MODEL 1
REMARK VINA RESULT:      -8.1      0.000      0.000
REMARK  11 active torsions:
REMARK  status: ('A' for Active; 'I' for Inactive)
REMARK    1  A    between atoms: C_2  and  N_3 
REMARK    2  A    between atoms: N_3  and  C_5 
REMARK    3  A    between atoms: N_3  and  C_32 
REMARK    4  A    between atoms: C_5  and  C_6 
REMARK    5  A    between atoms: N_9  and  C_10 
REMARK    6  A    between atoms: C_14  and  N_15 
REMARK    7  A    between atoms: C_16  and  C_17 
REMARK       I    between atoms: C_17  and  N_18 
REMARK    8  A    between atoms: N_18  and  N_19 
REMARK    9  A    between atoms: C_20  and  C_21 
REMARK   10  A    between atoms: C_25  and  O_26 
REMARK   11  A    between atoms: C_27  and  O_28 
ROOT
HETATM    1  C   UNL     1      26.344  45.543  52.534  1.00  0.00     0.112 A 
HETATM    2  N   UNL     1      25.815  46.555  53.271  1.00  0.00    -0.160 NA
HETATM    3  N   UNL     1      25.453  47.521  52.447  1.00  0.00     0.012 NA
HETATM    4  N   UNL     1      25.743  47.157  51.161  1.00  0.00    -0.207 N 
HETATM    5  C   UNL     1      26.278  45.878  51.193  1.00  0.00     0.153 A 
ENDROOT
BRANCH   5   6
HETATM    6  C   UNL     1      26.789  45.096  50.109  1.00  0.00     0.292 C 
HETATM    7  N   UNL     1      26.120  43.898  49.894  1.00  0.00    -0.242 N 
HETATM    8  H   UNL     1      25.440  43.581  50.578  1.00  0.00     0.192 HD
HETATM    9  O   UNL     1      27.850  45.413  49.578  1.00  0.00    -0.264 OA
BRANCH   7  10
HETATM   10  N   UNL     1      26.669  42.871  49.164  1.00  0.00    -0.184 NA
HETATM   11  C   UNL     1      27.161  41.888  49.856  1.00  0.00     0.150 C 
BRANCH  11  12
HETATM   12  C   UNL     1      27.743  40.688  49.220  1.00  0.00    -0.013 A 
HETATM   13  C   UNL     1      27.346  40.377  47.918  1.00  0.00     0.035 A 
HETATM   14  C   UNL     1      27.870  39.246  47.297  1.00  0.00     0.047 A 
HETATM   15 BR   UNL     1      27.307  38.827  45.536  1.00  0.00    -0.048 Br
HETATM   16  C   UNL     1      28.795  38.439  47.967  1.00  0.00     0.116 A 
HETATM   17  C   UNL     1      29.206  38.755  49.271  1.00  0.00     0.103 A 
HETATM   18  C   UNL     1      28.671  39.884  49.898  1.00  0.00     0.052 A 
BRANCH  16  19
HETATM   19  O   UNL     1      29.318  37.322  47.367  1.00  0.00    -0.357 OA
HETATM   20  H   UNL     1      29.603  36.705  48.065  1.00  0.00     0.218 HD
ENDBRANCH  16  19
BRANCH  17  21
HETATM   21  O   UNL     1      30.122  37.905  49.833  1.00  0.00    -0.353 OA
HETATM   22  C   UNL     1      29.768  37.248  51.041  1.00  0.00     0.210 C 
ENDBRANCH  17  21
ENDBRANCH  11  12
ENDBRANCH   7  10
ENDBRANCH   5   6
BRANCH   1  23
HETATM   23  C   UNL     1      26.869  44.282  53.136  1.00  0.00     0.297 C 
BRANCH  23  24
HETATM   24  N   UNL     1      28.204  44.314  53.866  1.00  0.00    -0.066 N 
HETATM   25  H   UNL     1      28.817  44.900  53.286  1.00  0.00     0.280 HD
BRANCH  24  26
HETATM   26  C   UNL     1      28.913  42.976  53.984  1.00  0.00     0.231 C 
HETATM   27  C   UNL     1      30.057  42.848  52.994  1.00  0.00     0.034 C 
ENDBRANCH  24  26
BRANCH  24  28
HETATM   28  C   UNL     1      28.130  44.998  55.222  1.00  0.00     0.231 C 
HETATM   29  C   UNL     1      28.916  46.297  55.226  1.00  0.00     0.034 C 
ENDBRANCH  24  28
ENDBRANCH  23  24
ENDBRANCH   1  23
BRANCH   4  30
HETATM   30  C   UNL     1      25.527  48.010  50.058  1.00  0.00     0.225 A 
HETATM   31  N   UNL     1      24.284  48.319  49.685  1.00  0.00    -0.081 NA
HETATM   32  O   UNL     1      24.465  49.168  48.591  1.00  0.00    -0.103 OA
HETATM   33  N   UNL     1      25.814  49.352  48.315  1.00  0.00    -0.083 NA
HETATM   34  C   UNL     1      26.471  48.633  49.224  1.00  0.00     0.201 A 
BRANCH  34  35
HETATM   35  N   UNL     1      27.810  48.541  49.294  1.00  0.00    -0.379 N 
HETATM   36  H   UNL     1      28.337  48.288  48.462  1.00  0.00     0.158 HD
HETATM   37  H   UNL     1      28.321  48.442  50.168  1.00  0.00     0.158 HD
ENDBRANCH  34  35
ENDBRANCH   4  30
TORSDOF 11
ENDMDL
MODEL 2
REMARK VINA RESULT:      -8.1      4.326      7.854
REMARK  11 active torsions:
REMARK  status: ('A' for Active; 'I' for Inactive)
REMARK    1  A    between atoms: C_2  and  N_3 
REMARK    2  A    between atoms: N_3  and  C_5 
REMARK    3  A    between atoms: N_3  and  C_32 
REMARK    4  A    between atoms: C_5  and  C_6 
REMARK    5  A    between atoms: N_9  and  C_10 
REMARK    6  A    between atoms: C_14  and  N_15 
REMARK    7  A    between atoms: C_16  and  C_17 
REMARK       I    between atoms: C_17  and  N_18 
REMARK    8  A    between atoms: N_18  and  N_19 
REMARK    9  A    between atoms: C_20  and  C_21 
REMARK   10  A    between atoms: C_25  and  O_26 
REMARK   11  A    between atoms: C_27  and  O_28 
ROOT
HETATM    1  C   UNL     1      26.656  40.542  48.579  1.00  0.00     0.112 A 
HETATM    2  N   UNL     1      25.655  39.924  47.897  1.00  0.00    -0.160 NA
HETATM    3  N   UNL     1      24.536  40.592  48.111  1.00  0.00     0.012 NA
HETATM    4  N   UNL     1      24.787  41.652  48.937  1.00  0.00    -0.207 N 
HETATM    5  C   UNL     1      26.146  41.659  49.215  1.00  0.00     0.153 A 
ENDROOT
BRANCH   5   6
HETATM    6  C   UNL     1      26.876  42.535  50.080  1.00  0.00     0.292 C 
HETATM    7  N   UNL     1      26.901  42.145  51.412  1.00  0.00    -0.242 N 
HETATM    8  H   UNL     1      26.300  41.384  51.716  1.00  0.00     0.192 HD
HETATM    9  O   UNL     1      27.260  43.624  49.660  1.00  0.00    -0.264 OA
BRANCH   7  10
HETATM   10  N   UNL     1      27.225  43.013  52.427  1.00  0.00    -0.184 NA
HETATM   11  C   UNL     1      28.358  42.790  53.020  1.00  0.00     0.150 C 
BRANCH  11  12
HETATM   12  C   UNL     1      28.872  43.660  54.097  1.00  0.00    -0.013 A 
HETATM   13  C   UNL     1      29.924  43.183  54.883  1.00  0.00     0.035 A 
HETATM   14  C   UNL     1      30.421  43.978  55.912  1.00  0.00     0.047 A 
HETATM   15 BR   UNL     1      31.837  43.308  56.980  1.00  0.00    -0.048 Br
HETATM   16  C   UNL     1      29.883  45.246  56.146  1.00  0.00     0.116 A 
HETATM   17  C   UNL     1      28.834  45.735  55.352  1.00  0.00     0.103 A 
HETATM   18  C   UNL     1      28.326  44.932  54.326  1.00  0.00     0.052 A 
BRANCH  16  19
HETATM   19  O   UNL     1      30.364  46.039  57.158  1.00  0.00    -0.357 OA
HETATM   20  H   UNL     1      29.848  45.854  57.962  1.00  0.00     0.218 HD
ENDBRANCH  16  19
BRANCH  17  21
HETATM   21  O   UNL     1      28.385  46.992  55.660  1.00  0.00    -0.353 OA
HETATM   22  C   UNL     1      27.174  47.432  55.063  1.00  0.00     0.210 C 
ENDBRANCH  17  21
ENDBRANCH  11  12
ENDBRANCH   7  10
ENDBRANCH   5   6
BRANCH   1  23
HETATM   23  C   UNL     1      28.068  40.058  48.574  1.00  0.00     0.297 C 
BRANCH  23  24
HETATM   24  N   UNL     1      28.377  38.684  49.154  1.00  0.00    -0.066 N 
HETATM   25  H   UNL     1      27.839  38.631  50.028  1.00  0.00     0.280 HD
BRANCH  24  26
HETATM   26  C   UNL     1      29.825  38.458  49.553  1.00  0.00     0.231 C 
HETATM   27  C   UNL     1      29.944  37.693  50.859  1.00  0.00     0.034 C 
ENDBRANCH  24  26
BRANCH  24  28
HETATM   28  C   UNL     1      27.880  37.540  48.285  1.00  0.00     0.231 C 
HETATM   29  C   UNL     1      26.864  36.689  49.025  1.00  0.00     0.034 C 
ENDBRANCH  24  28
ENDBRANCH  23  24
ENDBRANCH   1  23
BRANCH   4  30
HETATM   30  C   UNL     1      23.774  42.519  49.397  1.00  0.00     0.225 A 
HETATM   31  N   UNL     1      23.690  42.823  50.693  1.00  0.00    -0.081 NA
HETATM   32  O   UNL     1      22.597  43.689  50.763  1.00  0.00    -0.103 OA
HETATM   33  N   UNL     1      22.033  43.889  49.509  1.00  0.00    -0.083 NA
HETATM   34  C   UNL     1      22.762  43.163  48.663  1.00  0.00     0.201 A 
BRANCH  34  35
HETATM   35  N   UNL     1      22.533  43.082  47.342  1.00  0.00    -0.379 N 
HETATM   36  H   UNL     1      22.179  43.896  46.846  1.00  0.00     0.158 HD
HETATM   37  H   UNL     1      22.429  42.202  46.843  1.00  0.00     0.158 HD
ENDBRANCH  34  35
ENDBRANCH   4  30
TORSDOF 11
ENDMDL
MODEL 3
REMARK VINA RESULT:      -7.8      4.648      9.321
REMARK  11 active torsions:
REMARK  status: ('A' for Active; 'I' for Inactive)
REMARK    1  A    between atoms: C_2  and  N_3 
REMARK    2  A    between atoms: N_3  and  C_5 
REMARK    3  A    between atoms: N_3  and  C_32 
REMARK    4  A    between atoms: C_5  and  C_6 
REMARK    5  A    between atoms: N_9  and  C_10 
REMARK    6  A    between atoms: C_14  and  N_15 
REMARK    7  A    between atoms: C_16  and  C_17 
REMARK       I    between atoms: C_17  and  N_18 
REMARK    8  A    between atoms: N_18  and  N_19 
REMARK    9  A    between atoms: C_20  and  C_21 
REMARK   10  A    between atoms: C_25  and  O_26 
REMARK   11  A    between atoms: C_27  and  O_28 
ROOT
HETATM    1  C   UNL     1      26.380  39.807  47.913  1.00  0.00     0.112 A 
HETATM    2  N   UNL     1      26.774  38.873  47.007  1.00  0.00    -0.160 NA
HETATM    3  N   UNL     1      27.729  38.143  47.556  1.00  0.00     0.012 NA
HETATM    4  N   UNL     1      27.974  38.591  48.824  1.00  0.00    -0.207 N 
HETATM    5  C   UNL     1      27.093  39.630  49.085  1.00  0.00     0.153 A 
ENDROOT
BRANCH   5   6
HETATM    6  C   UNL     1      27.005  40.455  50.251  1.00  0.00     0.292 C 
HETATM    7  N   UNL     1      28.173  41.134  50.569  1.00  0.00    -0.242 N 
HETATM    8  H   UNL     1      29.031  40.901  50.077  1.00  0.00     0.192 HD
HETATM    9  O   UNL     1      26.018  40.378  50.977  1.00  0.00    -0.264 OA
BRANCH   7  10
HETATM   10  N   UNL     1      28.396  41.670  51.815  1.00  0.00    -0.184 NA
HETATM   11  C   UNL     1      28.489  42.964  51.865  1.00  0.00     0.150 C 
BRANCH  11  12
HETATM   12  C   UNL     1      28.679  43.694  53.134  1.00  0.00    -0.013 A 
HETATM   13  C   UNL     1      29.707  43.278  53.984  1.00  0.00     0.035 A 
HETATM   14  C   UNL     1      29.904  43.942  55.192  1.00  0.00     0.047 A 
HETATM   15 BR   UNL     1      31.291  43.354  56.342  1.00  0.00    -0.048 Br
HETATM   16  C   UNL     1      29.089  45.022  55.543  1.00  0.00     0.116 A 
HETATM   17  C   UNL     1      28.063  45.452  54.687  1.00  0.00     0.103 A 
HETATM   18  C   UNL     1      27.858  44.777  53.480  1.00  0.00     0.052 A 
BRANCH  16  19
HETATM   19  O   UNL     1      29.272  45.685  56.731  1.00  0.00    -0.357 OA
HETATM   20  H   UNL     1      28.453  46.169  56.940  1.00  0.00     0.218 HD
ENDBRANCH  16  19
BRANCH  17  21
HETATM   21  O   UNL     1      27.329  46.524  55.122  1.00  0.00    -0.353 OA
HETATM   22  C   UNL     1      26.167  46.879  54.387  1.00  0.00     0.210 C 
ENDBRANCH  17  21
ENDBRANCH  11  12
ENDBRANCH   7  10
ENDBRANCH   5   6
BRANCH   1  23
HETATM   23  C   UNL     1      25.316  40.817  47.634  1.00  0.00     0.297 C 
BRANCH  23  24
HETATM   24  N   UNL     1      23.877  40.493  48.012  1.00  0.00    -0.066 N 
HETATM   25  H   UNL     1      23.944  39.806  48.773  1.00  0.00     0.280 HD
BRANCH  24  26
HETATM   26  C   UNL     1      23.057  39.818  46.926  1.00  0.00     0.231 C 
HETATM   27  C   UNL     1      21.565  39.944  47.175  1.00  0.00     0.034 C 
ENDBRANCH  24  26
BRANCH  24  28
HETATM   28  C   UNL     1      23.125  41.684  48.583  1.00  0.00     0.231 C 
HETATM   29  C   UNL     1      23.941  42.959  48.461  1.00  0.00     0.034 C 
ENDBRANCH  24  28
ENDBRANCH  23  24
ENDBRANCH   1  23
BRANCH   4  30
HETATM   30  C   UNL     1      28.986  38.047  49.644  1.00  0.00     0.225 A 
HETATM   31  N   UNL     1      30.190  38.619  49.689  1.00  0.00    -0.081 NA
HETATM   32  O   UNL     1      30.903  37.825  50.590  1.00  0.00    -0.103 OA
HETATM   33  N   UNL     1      30.121  36.782  51.069  1.00  0.00    -0.083 NA
HETATM   34  C   UNL     1      28.933  36.919  50.481  1.00  0.00     0.201 A 
BRANCH  34  35
HETATM   35  N   UNL     1      27.891  36.095  50.678  1.00  0.00    -0.379 N 
HETATM   36  H   UNL     1      27.267  35.884  49.902  1.00  0.00     0.158 HD
HETATM   37  H   UNL     1      27.514  35.875  51.597  1.00  0.00     0.158 HD
ENDBRANCH  34  35
ENDBRANCH   4  30
TORSDOF 11
ENDMDL
MODEL 4
REMARK VINA RESULT:      -7.7      1.891      2.684
REMARK  11 active torsions:
REMARK  status: ('A' for Active; 'I' for Inactive)
REMARK    1  A    between atoms: C_2  and  N_3 
REMARK    2  A    between atoms: N_3  and  C_5 
REMARK    3  A    between atoms: N_3  and  C_32 
REMARK    4  A    between atoms: C_5  and  C_6 
REMARK    5  A    between atoms: N_9  and  C_10 
REMARK    6  A    between atoms: C_14  and  N_15 
REMARK    7  A    between atoms: C_16  and  C_17 
REMARK       I    between atoms: C_17  and  N_18 
REMARK    8  A    between atoms: N_18  and  N_19 
REMARK    9  A    between atoms: C_20  and  C_21 
REMARK   10  A    between atoms: C_25  and  O_26 
REMARK   11  A    between atoms: C_27  and  O_28 
ROOT
HETATM    1  C   UNL     1      26.538  45.567  53.892  1.00  0.00     0.112 A 
HETATM    2  N   UNL     1      25.992  46.723  54.354  1.00  0.00    -0.160 NA
HETATM    3  N   UNL     1      25.394  47.330  53.344  1.00  0.00     0.012 NA
HETATM    4  N   UNL     1      25.542  46.582  52.209  1.00  0.00    -0.207 N 
HETATM    5  C   UNL     1      26.237  45.431  52.548  1.00  0.00     0.153 A 
ENDROOT
BRANCH   5   6
HETATM    6  C   UNL     1      26.686  44.374  51.694  1.00  0.00     0.292 C 
HETATM    7  N   UNL     1      26.122  43.134  51.962  1.00  0.00    -0.242 N 
HETATM    8  H   UNL     1      25.569  43.014  52.805  1.00  0.00     0.192 HD
HETATM    9  O   UNL     1      27.634  44.565  50.936  1.00  0.00    -0.264 OA
BRANCH   7  10
HETATM   10  N   UNL     1      26.677  41.960  51.511  1.00  0.00    -0.184 NA
HETATM   11  C   UNL     1      26.223  41.521  50.377  1.00  0.00     0.150 C 
BRANCH  11  12
HETATM   12  C   UNL     1      26.750  40.300  49.734  1.00  0.00    -0.013 A 
HETATM   13  C   UNL     1      27.889  39.707  50.285  1.00  0.00     0.035 A 
HETATM   14  C   UNL     1      28.413  38.560  49.694  1.00  0.00     0.047 A 
HETATM   15 BR   UNL     1      29.969  37.778  50.443  1.00  0.00    -0.048 Br
HETATM   16  C   UNL     1      27.799  38.002  48.570  1.00  0.00     0.116 A 
HETATM   17  C   UNL     1      26.647  38.587  48.020  1.00  0.00     0.103 A 
HETATM   18  C   UNL     1      26.127  39.745  48.607  1.00  0.00     0.052 A 
BRANCH  16  19
HETATM   19  O   UNL     1      28.306  36.873  47.978  1.00  0.00    -0.357 OA
HETATM   20  H   UNL     1      27.860  36.098  48.364  1.00  0.00     0.218 HD
ENDBRANCH  16  19
BRANCH  17  21
HETATM   21  O   UNL     1      26.119  37.956  46.925  1.00  0.00    -0.353 OA
HETATM   22  C   UNL     1      26.168  38.633  45.678  1.00  0.00     0.210 C 
ENDBRANCH  17  21
ENDBRANCH  11  12
ENDBRANCH   7  10
ENDBRANCH   5   6
BRANCH   1  23
HETATM   23  C   UNL     1      27.302  44.622  54.757  1.00  0.00     0.297 C 
BRANCH  23  24
HETATM   24  N   UNL     1      28.815  44.540  54.602  1.00  0.00    -0.066 N 
HETATM   25  H   UNL     1      29.026  45.046  53.733  1.00  0.00     0.280 HD
BRANCH  24  26
HETATM   26  C   UNL     1      29.373  43.141  54.404  1.00  0.00     0.231 C 
HETATM   27  C   UNL     1      29.917  42.937  53.001  1.00  0.00     0.034 C 
ENDBRANCH  24  26
BRANCH  24  28
HETATM   28  C   UNL     1      29.571  45.263  55.705  1.00  0.00     0.231 C 
HETATM   29  C   UNL     1      30.760  44.447  56.181  1.00  0.00     0.034 C 
ENDBRANCH  24  28
ENDBRANCH  23  24
ENDBRANCH   1  23
BRANCH   4  30
HETATM   30  C   UNL     1      25.061  47.000  50.950  1.00  0.00     0.225 A 
HETATM   31  N   UNL     1      25.489  48.145  50.417  1.00  0.00    -0.081 NA
HETATM   32  O   UNL     1      24.815  48.217  49.196  1.00  0.00    -0.103 OA
HETATM   33  N   UNL     1      23.984  47.118  49.015  1.00  0.00    -0.083 NA
HETATM   34  C   UNL     1      24.136  46.366  50.103  1.00  0.00     0.201 A 
BRANCH  34  35
HETATM   35  N   UNL     1      23.492  45.206  50.318  1.00  0.00    -0.379 N 
HETATM   36  H   UNL     1      23.984  44.327  50.171  1.00  0.00     0.158 HD
HETATM   37  H   UNL     1      22.479  45.125  50.356  1.00  0.00     0.158 HD
ENDBRANCH  34  35
ENDBRANCH   4  30
TORSDOF 11
ENDMDL
MODEL 5
REMARK VINA RESULT:      -7.6      3.822      7.928
REMARK  11 active torsions:
REMARK  status: ('A' for Active; 'I' for Inactive)
REMARK    1  A    between atoms: C_2  and  N_3 
REMARK    2  A    between atoms: N_3  and  C_5 
REMARK    3  A    between atoms: N_3  and  C_32 
REMARK    4  A    between atoms: C_5  and  C_6 
REMARK    5  A    between atoms: N_9  and  C_10 
REMARK    6  A    between atoms: C_14  and  N_15 
REMARK    7  A    between atoms: C_16  and  C_17 
REMARK       I    between atoms: C_17  and  N_18 
REMARK    8  A    between atoms: N_18  and  N_19 
REMARK    9  A    between atoms: C_20  and  C_21 
REMARK   10  A    between atoms: C_25  and  O_26 
REMARK   11  A    between atoms: C_27  and  O_28 
ROOT
HETATM    1  C   UNL     1      27.524  43.694  53.679  1.00  0.00     0.112 A 
HETATM    2  N   UNL     1      28.624  42.912  53.848  1.00  0.00    -0.160 NA
HETATM    3  N   UNL     1      28.832  42.244  52.728  1.00  0.00     0.012 NA
HETATM    4  N   UNL     1      27.871  42.575  51.813  1.00  0.00    -0.207 N 
HETATM    5  C   UNL     1      27.048  43.531  52.390  1.00  0.00     0.153 A 
ENDROOT
BRANCH   5   6
HETATM    6  C   UNL     1      25.870  44.139  51.851  1.00  0.00     0.292 C 
HETATM    7  N   UNL     1      26.108  45.237  51.034  1.00  0.00    -0.242 N 
HETATM    8  H   UNL     1      27.044  45.627  50.990  1.00  0.00     0.192 HD
HETATM    9  O   UNL     1      24.766  43.798  52.265  1.00  0.00    -0.264 OA
BRANCH   7  10
HETATM   10  N   UNL     1      25.128  46.151  50.728  1.00  0.00    -0.184 NA
HETATM   11  C   UNL     1      24.514  45.962  49.599  1.00  0.00     0.150 C 
BRANCH  11  12
HETATM   12  C   UNL     1      23.406  46.828  49.149  1.00  0.00    -0.013 A 
HETATM   13  C   UNL     1      23.585  48.212  49.214  1.00  0.00     0.035 A 
HETATM   14  C   UNL     1      22.553  49.053  48.805  1.00  0.00     0.047 A 
HETATM   15 BR   UNL     1      22.806  50.929  48.916  1.00  0.00    -0.048 Br
HETATM   16  C   UNL     1      21.356  48.517  48.323  1.00  0.00     0.116 A 
HETATM   17  C   UNL     1      21.176  47.127  48.244  1.00  0.00     0.103 A 
HETATM   18  C   UNL     1      22.208  46.283  48.665  1.00  0.00     0.052 A 
BRANCH  16  19
HETATM   19  O   UNL     1      20.331  49.335  47.918  1.00  0.00    -0.357 OA
HETATM   20  H   UNL     1      20.533  49.655  47.021  1.00  0.00     0.218 HD
ENDBRANCH  16  19
BRANCH  17  21
HETATM   21  O   UNL     1      19.970  46.706  47.749  1.00  0.00    -0.353 OA
HETATM   22  C   UNL     1      19.446  45.476  48.226  1.00  0.00     0.210 C 
ENDBRANCH  17  21
ENDBRANCH  11  12
ENDBRANCH   7  10
ENDBRANCH   5   6
BRANCH   1  23
HETATM   23  C   UNL     1      26.985  44.587  54.746  1.00  0.00     0.297 C 
BRANCH  23  24
HETATM   24  N   UNL     1      27.444  46.038  54.793  1.00  0.00    -0.066 N 
HETATM   25  H   UNL     1      28.088  46.144  54.000  1.00  0.00     0.280 HD
BRANCH  24  26
HETATM   26  C   UNL     1      28.245  46.426  56.023  1.00  0.00     0.231 C 
HETATM   27  C   UNL     1      29.659  45.874  55.981  1.00  0.00     0.034 C 
ENDBRANCH  24  26
BRANCH  24  28
HETATM   28  C   UNL     1      26.317  47.031  54.557  1.00  0.00     0.231 C 
HETATM   29  C   UNL     1      26.489  48.271  55.417  1.00  0.00     0.034 C 
ENDBRANCH  24  28
ENDBRANCH  23  24
ENDBRANCH   1  23
BRANCH   4  30
HETATM   30  C   UNL     1      27.792  41.977  50.537  1.00  0.00     0.225 A 
HETATM   31  N   UNL     1      27.305  42.666  49.505  1.00  0.00    -0.081 NA
HETATM   32  O   UNL     1      27.390  41.770  48.437  1.00  0.00    -0.103 OA
HETATM   33  N   UNL     1      27.919  40.552  48.843  1.00  0.00    -0.083 NA
HETATM   34  C   UNL     1      28.167  40.680  50.145  1.00  0.00     0.201 A 
BRANCH  34  35
HETATM   35  N   UNL     1      28.682  39.709  50.918  1.00  0.00    -0.379 N 
HETATM   36  H   UNL     1      29.580  39.299  50.671  1.00  0.00     0.158 HD
HETATM   37  H   UNL     1      28.132  39.163  51.575  1.00  0.00     0.158 HD
ENDBRANCH  34  35
ENDBRANCH   4  30
TORSDOF 11
ENDMDL
MODEL 6
REMARK VINA RESULT:      -7.5      4.151      6.989
REMARK  11 active torsions:
REMARK  status: ('A' for Active; 'I' for Inactive)
REMARK    1  A    between atoms: C_2  and  N_3 
REMARK    2  A    between atoms: N_3  and  C_5 
REMARK    3  A    between atoms: N_3  and  C_32 
REMARK    4  A    between atoms: C_5  and  C_6 
REMARK    5  A    between atoms: N_9  and  C_10 
REMARK    6  A    between atoms: C_14  and  N_15 
REMARK    7  A    between atoms: C_16  and  C_17 
REMARK       I    between atoms: C_17  and  N_18 
REMARK    8  A    between atoms: N_18  and  N_19 
REMARK    9  A    between atoms: C_20  and  C_21 
REMARK   10  A    between atoms: C_25  and  O_26 
REMARK   11  A    between atoms: C_27  and  O_28 
ROOT
HETATM    1  C   UNL     1      22.705  47.597  48.821  1.00  0.00     0.112 A 
HETATM    2  N   UNL     1      21.697  48.245  48.180  1.00  0.00    -0.160 NA
HETATM    3  N   UNL     1      20.903  47.339  47.636  1.00  0.00     0.012 NA
HETATM    4  N   UNL     1      21.383  46.088  47.910  1.00  0.00    -0.207 N 
HETATM    5  C   UNL     1      22.513  46.232  48.700  1.00  0.00     0.153 A 
ENDROOT
BRANCH   5   6
HETATM    6  C   UNL     1      23.396  45.217  49.190  1.00  0.00     0.292 C 
HETATM    7  N   UNL     1      23.342  45.017  50.563  1.00  0.00    -0.242 N 
HETATM    8  H   UNL     1      22.823  45.672  51.139  1.00  0.00     0.192 HD
HETATM    9  O   UNL     1      24.244  44.737  48.443  1.00  0.00    -0.264 OA
BRANCH   7  10
HETATM   10  N   UNL     1      24.340  44.369  51.251  1.00  0.00    -0.184 NA
HETATM   11  C   UNL     1      25.253  45.131  51.771  1.00  0.00     0.150 C 
BRANCH  11  12
HETATM   12  C   UNL     1      26.365  44.592  52.580  1.00  0.00    -0.013 A 
HETATM   13  C   UNL     1      26.825  43.305  52.290  1.00  0.00     0.035 A 
HETATM   14  C   UNL     1      27.866  42.768  53.043  1.00  0.00     0.047 A 
HETATM   15 BR   UNL     1      28.467  41.013  52.648  1.00  0.00    -0.048 Br
HETATM   16  C   UNL     1      28.453  43.514  54.068  1.00  0.00     0.116 A 
HETATM   17  C   UNL     1      28.002  44.812  54.356  1.00  0.00     0.103 A 
HETATM   18  C   UNL     1      26.950  45.347  53.607  1.00  0.00     0.052 A 
BRANCH  16  19
HETATM   19  O   UNL     1      29.479  42.995  54.818  1.00  0.00    -0.357 OA
HETATM   20  H   UNL     1      29.153  42.856  55.725  1.00  0.00     0.218 HD
ENDBRANCH  16  19
BRANCH  17  21
HETATM   21  O   UNL     1      28.651  45.460  55.373  1.00  0.00    -0.353 OA
HETATM   22  C   UNL     1      28.099  46.680  55.845  1.00  0.00     0.210 C 
ENDBRANCH  17  21
ENDBRANCH  11  12
ENDBRANCH   7  10
ENDBRANCH   5   6
BRANCH   1  23
HETATM   23  C   UNL     1      23.800  48.305  49.547  1.00  0.00     0.297 C 
BRANCH  23  24
HETATM   24  N   UNL     1      25.138  48.506  48.848  1.00  0.00    -0.066 N 
HETATM   25  H   UNL     1      25.088  47.932  47.997  1.00  0.00     0.280 HD
BRANCH  24  26
HETATM   26  C   UNL     1      26.350  47.999  49.610  1.00  0.00     0.231 C 
HETATM   27  C   UNL     1      27.624  48.711  49.193  1.00  0.00     0.034 C 
ENDBRANCH  24  26
BRANCH  24  28
HETATM   28  C   UNL     1      25.362  49.934  48.380  1.00  0.00     0.231 C 
HETATM   29  C   UNL     1      24.051  50.603  48.008  1.00  0.00     0.034 C 
ENDBRANCH  24  28
ENDBRANCH  23  24
ENDBRANCH   1  23
BRANCH   4  30
HETATM   30  C   UNL     1      20.781  44.913  47.412  1.00  0.00     0.225 A 
HETATM   31  N   UNL     1      19.534  44.599  47.763  1.00  0.00    -0.081 NA
HETATM   32  O   UNL     1      19.287  43.404  47.084  1.00  0.00    -0.103 OA
HETATM   33  N   UNL     1      20.391  43.012  46.339  1.00  0.00    -0.083 NA
HETATM   34  C   UNL     1      21.318  43.947  46.544  1.00  0.00     0.201 A 
BRANCH  34  35
HETATM   35  N   UNL     1      22.545  43.929  45.998  1.00  0.00    -0.379 N 
HETATM   36  H   UNL     1      23.361  43.995  46.603  1.00  0.00     0.158 HD
HETATM   37  H   UNL     1      22.727  44.124  45.017  1.00  0.00     0.158 HD
ENDBRANCH  34  35
ENDBRANCH   4  30
TORSDOF 11
ENDMDL
MODEL 7
REMARK VINA RESULT:      -7.3      3.710      7.895
REMARK  11 active torsions:
REMARK  status: ('A' for Active; 'I' for Inactive)
REMARK    1  A    between atoms: C_2  and  N_3 
REMARK    2  A    between atoms: N_3  and  C_5 
REMARK    3  A    between atoms: N_3  and  C_32 
REMARK    4  A    between atoms: C_5  and  C_6 
REMARK    5  A    between atoms: N_9  and  C_10 
REMARK    6  A    between atoms: C_14  and  N_15 
REMARK    7  A    between atoms: C_16  and  C_17 
REMARK       I    between atoms: C_17  and  N_18 
REMARK    8  A    between atoms: N_18  and  N_19 
REMARK    9  A    between atoms: C_20  and  C_21 
REMARK   10  A    between atoms: C_25  and  O_26 
REMARK   11  A    between atoms: C_27  and  O_28 
ROOT
HETATM    1  C   UNL     1      28.060  41.363  51.913  1.00  0.00     0.112 A 
HETATM    2  N   UNL     1      28.751  40.836  52.959  1.00  0.00    -0.160 NA
HETATM    3  N   UNL     1      28.945  41.792  53.850  1.00  0.00     0.012 NA
HETATM    4  N   UNL     1      28.387  42.956  53.399  1.00  0.00    -0.207 N 
HETATM    5  C   UNL     1      27.781  42.691  52.180  1.00  0.00     0.153 A 
ENDROOT
BRANCH   5   6
HETATM    6  C   UNL     1      27.122  43.602  51.294  1.00  0.00     0.292 C 
HETATM    7  N   UNL     1      25.792  43.852  51.607  1.00  0.00    -0.242 N 
HETATM    8  H   UNL     1      25.335  43.287  52.316  1.00  0.00     0.192 HD
HETATM    9  O   UNL     1      27.675  43.946  50.253  1.00  0.00    -0.264 OA
BRANCH   7  10
HETATM   10  N   UNL     1      24.912  44.391  50.699  1.00  0.00    -0.184 NA
HETATM   11  C   UNL     1      24.820  45.686  50.702  1.00  0.00     0.150 C 
BRANCH  11  12
HETATM   12  C   UNL     1      23.955  46.419  49.756  1.00  0.00    -0.013 A 
HETATM   13  C   UNL     1      23.988  47.815  49.782  1.00  0.00     0.035 A 
HETATM   14  C   UNL     1      23.176  48.533  48.907  1.00  0.00     0.047 A 
HETATM   15 BR   UNL     1      23.220  50.427  48.968  1.00  0.00    -0.048 Br
HETATM   16  C   UNL     1      22.347  47.862  48.004  1.00  0.00     0.116 A 
HETATM   17  C   UNL     1      22.319  46.459  47.966  1.00  0.00     0.103 A 
HETATM   18  C   UNL     1      23.126  45.739  48.852  1.00  0.00     0.052 A 
BRANCH  16  19
HETATM   19  O   UNL     1      21.542  48.557  47.138  1.00  0.00    -0.357 OA
HETATM   20  H   UNL     1      22.110  49.086  46.550  1.00  0.00     0.218 HD
ENDBRANCH  16  19
BRANCH  17  21
HETATM   21  O   UNL     1      21.480  45.902  47.038  1.00  0.00    -0.353 OA
HETATM   22  C   UNL     1      22.061  45.203  45.948  1.00  0.00     0.210 C 
ENDBRANCH  17  21
ENDBRANCH  11  12
ENDBRANCH   7  10
ENDBRANCH   5   6
BRANCH   1  23
HETATM   23  C   UNL     1      27.667  40.570  50.711  1.00  0.00     0.297 C 
BRANCH  23  24
HETATM   24  N   UNL     1      28.759  39.981  49.829  1.00  0.00    -0.066 N 
HETATM   25  H   UNL     1      29.641  40.340  50.213  1.00  0.00     0.280 HD
BRANCH  24  26
HETATM   26  C   UNL     1      28.734  40.430  48.378  1.00  0.00     0.231 C 
HETATM   27  C   UNL     1      27.460  41.180  48.035  1.00  0.00     0.034 C 
ENDBRANCH  24  26
BRANCH  24  28
HETATM   28  C   UNL     1      28.848  38.466  49.916  1.00  0.00     0.231 C 
HETATM   29  C   UNL     1      29.922  38.034  50.899  1.00  0.00     0.034 C 
ENDBRANCH  24  28
ENDBRANCH  23  24
ENDBRANCH   1  23
BRANCH   4  30
HETATM   30  C   UNL     1      28.483  44.173  54.107  1.00  0.00     0.225 A 
HETATM   31  N   UNL     1      27.560  45.121  53.936  1.00  0.00    -0.081 NA
HETATM   32  O   UNL     1      27.976  46.148  54.786  1.00  0.00    -0.103 OA
HETATM   33  N   UNL     1      29.147  45.807  55.451  1.00  0.00    -0.083 NA
HETATM   34  C   UNL     1      29.461  44.584  55.029  1.00  0.00     0.201 A 
BRANCH  34  35
HETATM   35  N   UNL     1      30.541  43.896  55.435  1.00  0.00    -0.379 N 
HETATM   36  H   UNL     1      31.449  44.355  55.448  1.00  0.00     0.158 HD
HETATM   37  H   UNL     1      30.577  42.881  55.477  1.00  0.00     0.158 HD
ENDBRANCH  34  35
ENDBRANCH   4  30
TORSDOF 11
ENDMDL
MODEL 8
REMARK VINA RESULT:      -7.3      3.327      8.051
REMARK  11 active torsions:
REMARK  status: ('A' for Active; 'I' for Inactive)
REMARK    1  A    between atoms: C_2  and  N_3 
REMARK    2  A    between atoms: N_3  and  C_5 
REMARK    3  A    between atoms: N_3  and  C_32 
REMARK    4  A    between atoms: C_5  and  C_6 
REMARK    5  A    between atoms: N_9  and  C_10 
REMARK    6  A    between atoms: C_14  and  N_15 
REMARK    7  A    between atoms: C_16  and  C_17 
REMARK       I    between atoms: C_17  and  N_18 
REMARK    8  A    between atoms: N_18  and  N_19 
REMARK    9  A    between atoms: C_20  and  C_21 
REMARK   10  A    between atoms: C_25  and  O_26 
REMARK   11  A    between atoms: C_27  and  O_28 
ROOT
HETATM    1  C   UNL     1      27.183  43.369  53.681  1.00  0.00     0.112 A 
HETATM    2  N   UNL     1      28.235  42.523  53.843  1.00  0.00    -0.160 NA
HETATM    3  N   UNL     1      28.473  41.934  52.685  1.00  0.00     0.012 NA
HETATM    4  N   UNL     1      27.579  42.383  51.752  1.00  0.00    -0.207 N 
HETATM    5  C   UNL     1      26.771  43.331  52.361  1.00  0.00     0.153 A 
ENDROOT
BRANCH   5   6
HETATM    6  C   UNL     1      25.653  44.037  51.813  1.00  0.00     0.292 C 
HETATM    7  N   UNL     1      25.989  45.142  51.041  1.00  0.00    -0.242 N 
HETATM    8  H   UNL     1      26.951  45.467  51.034  1.00  0.00     0.192 HD
HETATM    9  O   UNL     1      24.517  43.761  52.187  1.00  0.00    -0.264 OA
BRANCH   7  10
HETATM   10  N   UNL     1      25.084  46.131  50.741  1.00  0.00    -0.184 NA
HETATM   11  C   UNL     1      24.541  46.061  49.563  1.00  0.00     0.150 C 
BRANCH  11  12
HETATM   12  C   UNL     1      23.515  47.021  49.108  1.00  0.00    -0.013 A 
HETATM   13  C   UNL     1      22.510  46.554  48.258  1.00  0.00     0.035 A 
HETATM   14  C   UNL     1      21.534  47.439  47.805  1.00  0.00     0.047 A 
HETATM   15 BR   UNL     1      20.188  46.793  46.637  1.00  0.00    -0.048 Br
HETATM   16  C   UNL     1      21.554  48.777  48.208  1.00  0.00     0.116 A 
HETATM   17  C   UNL     1      22.555  49.248  49.072  1.00  0.00     0.103 A 
HETATM   18  C   UNL     1      23.540  48.362  49.518  1.00  0.00     0.052 A 
BRANCH  16  19
HETATM   19  O   UNL     1      20.600  49.659  47.768  1.00  0.00    -0.357 OA
HETATM   20  H   UNL     1      21.051  50.410  47.342  1.00  0.00     0.218 HD
ENDBRANCH  16  19
BRANCH  17  21
HETATM   21  O   UNL     1      22.477  50.572  49.413  1.00  0.00    -0.353 OA
HETATM   22  C   UNL     1      21.628  50.935  50.491  1.00  0.00     0.210 C 
ENDBRANCH  17  21
ENDBRANCH  11  12
ENDBRANCH   7  10
ENDBRANCH   5   6
BRANCH   1  23
HETATM   23  C   UNL     1      26.628  44.203  54.788  1.00  0.00     0.297 C 
BRANCH  23  24
HETATM   24  N   UNL     1      27.263  45.555  55.081  1.00  0.00    -0.066 N 
HETATM   25  H   UNL     1      26.936  45.811  56.021  1.00  0.00     0.280 HD
BRANCH  24  26
HETATM   26  C   UNL     1      26.821  46.691  54.174  1.00  0.00     0.231 C 
HETATM   27  C   UNL     1      26.300  47.880  54.961  1.00  0.00     0.034 C 
ENDBRANCH  24  26
BRANCH  24  28
HETATM   28  C   UNL     1      28.780  45.500  55.163  1.00  0.00     0.231 C 
HETATM   29  C   UNL     1      29.277  46.021  56.500  1.00  0.00     0.034 C 
ENDBRANCH  24  28
ENDBRANCH  23  24
ENDBRANCH   1  23
BRANCH   4  30
HETATM   30  C   UNL     1      27.543  41.890  50.430  1.00  0.00     0.225 A 
HETATM   31  N   UNL     1      27.241  42.707  49.420  1.00  0.00    -0.081 NA
HETATM   32  O   UNL     1      27.310  41.885  48.293  1.00  0.00    -0.103 OA
HETATM   33  N   UNL     1      27.646  40.582  48.642  1.00  0.00    -0.083 NA
HETATM   34  C   UNL     1      27.789  40.587  49.966  1.00  0.00     0.201 A 
BRANCH  34  35
HETATM   35  N   UNL     1      28.108  39.506  50.697  1.00  0.00    -0.379 N 
HETATM   36  H   UNL     1      28.540  39.630  51.610  1.00  0.00     0.158 HD
HETATM   37  H   UNL     1      28.202  38.571  50.306  1.00  0.00     0.158 HD
ENDBRANCH  34  35
ENDBRANCH   4  30
TORSDOF 11
ENDMDL
MODEL 9
REMARK VINA RESULT:      -7.3      4.617      8.407
REMARK  11 active torsions:
REMARK  status: ('A' for Active; 'I' for Inactive)
REMARK    1  A    between atoms: C_2  and  N_3 
REMARK    2  A    between atoms: N_3  and  C_5 
REMARK    3  A    between atoms: N_3  and  C_32 
REMARK    4  A    between atoms: C_5  and  C_6 
REMARK    5  A    between atoms: N_9  and  C_10 
REMARK    6  A    between atoms: C_14  and  N_15 
REMARK    7  A    between atoms: C_16  and  C_17 
REMARK       I    between atoms: C_17  and  N_18 
REMARK    8  A    between atoms: N_18  and  N_19 
REMARK    9  A    between atoms: C_20  and  C_21 
REMARK   10  A    between atoms: C_25  and  O_26 
REMARK   11  A    between atoms: C_27  and  O_28 
ROOT
HETATM    1  C   UNL     1      21.266  47.065  48.338  1.00  0.00     0.112 A 
HETATM    2  N   UNL     1      20.282  46.385  47.691  1.00  0.00    -0.160 NA
HETATM    3  N   UNL     1      20.650  45.121  47.590  1.00  0.00     0.012 NA
HETATM    4  N   UNL     1      21.879  44.956  48.166  1.00  0.00    -0.207 N 
HETATM    5  C   UNL     1      22.272  46.181  48.684  1.00  0.00     0.153 A 
ENDROOT
BRANCH   5   6
HETATM    6  C   UNL     1      23.505  46.526  49.324  1.00  0.00     0.292 C 
HETATM    7  N   UNL     1      23.882  45.671  50.352  1.00  0.00    -0.242 N 
HETATM    8  H   UNL     1      23.223  44.974  50.683  1.00  0.00     0.192 HD
HETATM    9  O   UNL     1      24.038  47.604  49.077  1.00  0.00    -0.264 OA
BRANCH   7  10
HETATM   10  N   UNL     1      24.812  46.027  51.300  1.00  0.00    -0.184 NA
HETATM   11  C   UNL     1      25.307  45.052  51.999  1.00  0.00     0.150 C 
BRANCH  11  12
HETATM   12  C   UNL     1      26.350  45.263  53.023  1.00  0.00    -0.013 A 
HETATM   13  C   UNL     1      27.390  44.334  53.103  1.00  0.00     0.035 A 
HETATM   14  C   UNL     1      28.382  44.503  54.066  1.00  0.00     0.047 A 
HETATM   15 BR   UNL     1      29.777  43.223  54.173  1.00  0.00    -0.048 Br
HETATM   16  C   UNL     1      28.343  45.598  54.933  1.00  0.00     0.116 A 
HETATM   17  C   UNL     1      27.307  46.540  54.849  1.00  0.00     0.103 A 
HETATM   18  C   UNL     1      26.305  46.365  53.890  1.00  0.00     0.052 A 
BRANCH  16  19
HETATM   19  O   UNL     1      29.314  45.775  55.887  1.00  0.00    -0.357 OA
HETATM   20  H   UNL     1      28.917  45.609  56.761  1.00  0.00     0.218 HD
ENDBRANCH  16  19
BRANCH  17  21
HETATM   21  O   UNL     1      27.368  47.580  55.739  1.00  0.00    -0.353 OA
HETATM   22  C   UNL     1      26.363  48.580  55.666  1.00  0.00     0.210 C 
ENDBRANCH  17  21
ENDBRANCH  11  12
ENDBRANCH   7  10
ENDBRANCH   5   6
BRANCH   1  23
HETATM   23  C   UNL     1      21.196  48.528  48.625  1.00  0.00     0.297 C 
BRANCH  23  24
HETATM   24  N   UNL     1      20.507  48.996  49.899  1.00  0.00    -0.066 N 
HETATM   25  H   UNL     1      21.089  48.642  50.668  1.00  0.00     0.280 HD
BRANCH  24  26
HETATM   26  C   UNL     1      19.123  48.417  50.139  1.00  0.00     0.231 C 
HETATM   27  C   UNL     1      18.103  48.949  49.149  1.00  0.00     0.034 C 
ENDBRANCH  24  26
BRANCH  24  28
HETATM   28  C   UNL     1      20.484  50.508  50.049  1.00  0.00     0.231 C 
HETATM   29  C   UNL     1      21.022  51.191  48.803  1.00  0.00     0.034 C 
ENDBRANCH  24  28
ENDBRANCH  23  24
ENDBRANCH   1  23
BRANCH   4  30
HETATM   30  C   UNL     1      22.566  43.723  48.162  1.00  0.00     0.225 A 
HETATM   31  N   UNL     1      22.497  42.916  49.221  1.00  0.00    -0.081 NA
HETATM   32  O   UNL     1      23.277  41.817  48.854  1.00  0.00    -0.103 OA
HETATM   33  N   UNL     1      23.810  41.981  47.582  1.00  0.00    -0.083 NA
HETATM   34  C   UNL     1      23.370  43.163  47.154  1.00  0.00     0.201 A 
BRANCH  34  35
HETATM   35  N   UNL     1      23.671  43.696  45.958  1.00  0.00    -0.379 N 
HETATM   36  H   UNL     1      23.722  43.092  45.141  1.00  0.00     0.158 HD
HETATM   37  H   UNL     1      24.115  44.604  45.844  1.00  0.00     0.158 HD
ENDBRANCH  34  35
ENDBRANCH   4  30
TORSDOF 11
ENDMDL
MODEL 10
REMARK VINA RESULT:      -7.2      3.346      7.941
REMARK  11 active torsions:
REMARK  status: ('A' for Active; 'I' for Inactive)
REMARK    1  A    between atoms: C_2  and  N_3 
REMARK    2  A    between atoms: N_3  and  C_5 
REMARK    3  A    between atoms: N_3  and  C_32 
REMARK    4  A    between atoms: C_5  and  C_6 
REMARK    5  A    between atoms: N_9  and  C_10 
REMARK    6  A    between atoms: C_14  and  N_15 
REMARK    7  A    between atoms: C_16  and  C_17 
REMARK       I    between atoms: C_17  and  N_18 
REMARK    8  A    between atoms: N_18  and  N_19 
REMARK    9  A    between atoms: C_20  and  C_21 
REMARK   10  A    between atoms: C_25  and  O_26 
REMARK   11  A    between atoms: C_27  and  O_28 
ROOT
HETATM    1  C   UNL     1      27.842  42.356  53.113  1.00  0.00     0.112 A 
HETATM    2  N   UNL     1      28.090  41.034  53.312  1.00  0.00    -0.160 NA
HETATM    3  N   UNL     1      27.929  40.405  52.161  1.00  0.00     0.012 NA
HETATM    4  N   UNL     1      27.570  41.305  51.195  1.00  0.00    -0.207 N 
HETATM    5  C   UNL     1      27.548  42.564  51.777  1.00  0.00     0.153 A 
ENDROOT
BRANCH   5   6
HETATM    6  C   UNL     1      27.173  43.813  51.188  1.00  0.00     0.292 C 
HETATM    7  N   UNL     1      25.825  43.921  50.870  1.00  0.00    -0.242 N 
HETATM    8  H   UNL     1      25.237  43.095  50.922  1.00  0.00     0.192 HD
HETATM    9  O   UNL     1      28.042  44.607  50.839  1.00  0.00    -0.264 OA
BRANCH   7  10
HETATM   10  N   UNL     1      25.351  44.865  49.991  1.00  0.00    -0.184 NA
HETATM   11  C   UNL     1      25.034  46.012  50.511  1.00  0.00     0.150 C 
BRANCH  11  12
HETATM   12  C   UNL     1      24.555  47.145  49.694  1.00  0.00    -0.013 A 
HETATM   13  C   UNL     1      25.472  48.143  49.353  1.00  0.00     0.035 A 
HETATM   14  C   UNL     1      25.046  49.228  48.592  1.00  0.00     0.047 A 
HETATM   15 BR   UNL     1      26.298  50.583  48.153  1.00  0.00    -0.048 Br
HETATM   16  C   UNL     1      23.718  49.311  48.163  1.00  0.00     0.116 A 
HETATM   17  C   UNL     1      22.797  48.305  48.492  1.00  0.00     0.103 A 
HETATM   18  C   UNL     1      23.222  47.220  49.266  1.00  0.00     0.052 A 
BRANCH  16  19
HETATM   19  O   UNL     1      23.286  50.376  47.413  1.00  0.00    -0.357 OA
HETATM   20  H   UNL     1      22.362  50.211  47.153  1.00  0.00     0.218 HD
ENDBRANCH  16  19
BRANCH  17  21
HETATM   21  O   UNL     1      21.525  48.477  48.015  1.00  0.00    -0.353 OA
HETATM   22  C   UNL     1      20.490  48.735  48.952  1.00  0.00     0.210 C 
ENDBRANCH  17  21
ENDBRANCH  11  12
ENDBRANCH   7  10
ENDBRANCH   5   6
BRANCH   1  23
HETATM   23  C   UNL     1      27.922  43.374  54.200  1.00  0.00     0.297 C 
BRANCH  23  24
HETATM   24  N   UNL     1      29.242  44.094  54.439  1.00  0.00    -0.066 N 
HETATM   25  H   UNL     1      29.565  44.386  53.509  1.00  0.00     0.280 HD
BRANCH  24  26
HETATM   26  C   UNL     1      30.359  43.233  55.004  1.00  0.00     0.231 C 
HETATM   27  C   UNL     1      31.072  43.909  56.161  1.00  0.00     0.034 C 
ENDBRANCH  24  26
BRANCH  24  28
HETATM   28  C   UNL     1      29.092  45.370  55.252  1.00  0.00     0.231 C 
HETATM   29  C   UNL     1      27.790  46.079  54.924  1.00  0.00     0.034 C 
ENDBRANCH  24  28
ENDBRANCH  23  24
ENDBRANCH   1  23
BRANCH   4  30
HETATM   30  C   UNL     1      27.268  40.924  49.871  1.00  0.00     0.225 A 
HETATM   31  N   UNL     1      27.509  41.763  48.862  1.00  0.00    -0.081 NA
HETATM   32  O   UNL     1      27.099  41.052  47.732  1.00  0.00    -0.103 OA
HETATM   33  N   UNL     1      26.609  39.798  48.077  1.00  0.00    -0.083 NA
HETATM   34  C   UNL     1      26.714  39.721  49.403  1.00  0.00     0.201 A 
BRANCH  34  35
HETATM   35  N   UNL     1      26.336  38.656  50.131  1.00  0.00    -0.379 N 
HETATM   36  H   UNL     1      25.839  37.893  49.679  1.00  0.00     0.158 HD
HETATM   37  H   UNL     1      26.268  38.666  51.145  1.00  0.00     0.158 HD
ENDBRANCH  34  35
ENDBRANCH   4  30
TORSDOF 11
ENDMDL
