MODEL 1
REMARK VINA RESULT:     -10.0      0.000      0.000
REMARK  9 active torsions:
REMARK  status: ('A' for Active; 'I' for Inactive)
REMARK    1  A    between atoms: C_8  and  C_9 
REMARK    2  A    between atoms: C_9  and  C_10 
REMARK    3  A    between atoms: N_14  and  C_15 
REMARK    4  A    between atoms: C_15  and  C_16 
REMARK    5  A    between atoms: C_27  and  N_28 
REMARK    6  A    between atoms: N_28  and  C_29 
REMARK    7  A    between atoms: C_29  and  C_30 
REMARK    8  A    between atoms: C_30  and  O_31 
REMARK    9  A    between atoms: C_30  and  C_32 
ROOT
HETATM    1  C   UNL     1      28.066  40.252  50.470  1.00  0.00     0.052 C 
HETATM    2  C   UNL     1      26.983  40.126  49.445  1.00  0.00    -0.015 A 
HETATM    3  C   UNL     1      25.759  40.988  49.614  1.00  0.00     0.144 A 
HETATM    4  N   UNL     1      25.644  41.723  50.674  1.00  0.00    -0.217 NA
HETATM    5  N   UNL     1      24.811  40.943  48.605  1.00  0.00    -0.272 N 
HETATM    6  C   UNL     1      23.692  41.755  48.682  1.00  0.00     0.266 A 
HETATM    7  O   UNL     1      22.774  41.749  47.857  1.00  0.00    -0.267 OA
HETATM    8  C   UNL     1      23.622  42.677  49.852  1.00  0.00     0.074 A 
HETATM    9  C   UNL     1      24.567  42.554  50.812  1.00  0.00     0.121 A 
HETATM   10  C   UNL     1      24.947  40.074  47.529  1.00  0.00     0.102 A 
HETATM   11  C   UNL     1      26.010  39.273  47.400  1.00  0.00     0.018 A 
HETATM   12  C   UNL     1      27.064  39.318  48.377  1.00  0.00     0.012 A 
ENDROOT
BRANCH   8  13
HETATM   13  C   UNL     1      22.543  43.657  49.883  1.00  0.00     0.045 C 
BRANCH  13  14
HETATM   14  C   UNL     1      22.574  44.872  49.316  1.00  0.00     0.077 A 
HETATM   15  S   UNL     1      23.809  46.057  49.443  1.00  0.00    -0.055 SA
HETATM   16  C   UNL     1      22.865  47.268  48.588  1.00  0.00     0.149 A 
HETATM   17  S   UNL     1      23.399  48.841  48.440  1.00  0.00    -0.052 SA
HETATM   18  N   UNL     1      21.688  46.709  48.134  1.00  0.00    -0.294 N 
HETATM   19  C   UNL     1      21.449  45.393  48.499  1.00  0.00     0.266 A 
HETATM   20  O   UNL     1      20.439  44.747  48.257  1.00  0.00    -0.266 OA
BRANCH  18  21
HETATM   21  C   UNL     1      20.672  47.419  47.363  1.00  0.00     0.172 C 
BRANCH  21  22
HETATM   22  C   UNL     1      19.891  48.405  48.206  1.00  0.00    -0.037 A 
HETATM   23  C   UNL     1      19.794  49.752  47.810  1.00  0.00     0.048 A 
HETATM   24  C   UNL     1      19.074  50.616  48.609  1.00  0.00     0.105 A 
HETATM   25  C   UNL     1      18.465  50.197  49.767  1.00  0.00     0.105 A 
HETATM   26  O   UNL     1      18.872  51.939  48.366  1.00  0.00    -0.323 OA
HETATM   27  O   UNL     1      17.806  51.203  50.402  1.00  0.00    -0.323 OA
HETATM   28  C   UNL     1      18.540  48.891  50.193  1.00  0.00     0.040 A 
HETATM   29  C   UNL     1      18.061  52.303  49.503  1.00  0.00     0.352 A 
HETATM   30  C   UNL     1      19.258  47.988  49.400  1.00  0.00     0.012 A 
ENDBRANCH  21  22
ENDBRANCH  18  21
ENDBRANCH  13  14
ENDBRANCH   8  13
BRANCH   9  31
HETATM   31  N   UNL     1      24.554  43.293  51.988  1.00  0.00    -0.274 NA
HETATM   32  H   UNL     1      23.583  43.574  52.162  1.00  0.00     0.129 HD
BRANCH  31  33
HETATM   33  C   UNL     1      25.489  44.392  52.267  1.00  0.00     0.130 C 
BRANCH  33  34
HETATM   34  C   UNL     1      25.921  44.401  53.756  1.00  0.00     0.164 C 
BRANCH  34  35
HETATM   35  O   UNL     1      25.030  43.583  54.530  1.00  0.00    -0.390 OA
HETATM   36  H   UNL     1      24.716  44.116  55.281  1.00  0.00     0.210 HD
ENDBRANCH  34  35
BRANCH  34  37
HETATM   37  C   UNL     1      27.341  43.975  54.077  1.00  0.00    -0.029 A 
HETATM   38  C   UNL     1      28.252  44.774  54.783  1.00  0.00     0.010 A 
HETATM   39  C   UNL     1      29.547  44.320  55.052  1.00  0.00     0.001 A 
HETATM   40  C   UNL     1      29.953  43.061  54.617  1.00  0.00     0.000 A 
HETATM   41  C   UNL     1      29.067  42.256  53.905  1.00  0.00     0.001 A 
HETATM   42  C   UNL     1      27.774  42.711  53.637  1.00  0.00     0.010 A 
ENDBRANCH  34  37
ENDBRANCH  33  34
ENDBRANCH  31  33
ENDBRANCH   9  31
TORSDOF 9
ENDMDL
MODEL 2
REMARK VINA RESULT:     -10.0      2.455      5.921
REMARK  9 active torsions:
REMARK  status: ('A' for Active; 'I' for Inactive)
REMARK    1  A    between atoms: C_8  and  C_9 
REMARK    2  A    between atoms: C_9  and  C_10 
REMARK    3  A    between atoms: N_14  and  C_15 
REMARK    4  A    between atoms: C_15  and  C_16 
REMARK    5  A    between atoms: C_27  and  N_28 
REMARK    6  A    between atoms: N_28  and  C_29 
REMARK    7  A    between atoms: C_29  and  C_30 
REMARK    8  A    between atoms: C_30  and  O_31 
REMARK    9  A    between atoms: C_30  and  C_32 
ROOT
HETATM    1  C   UNL     1      30.765  42.936  54.811  1.00  0.00     0.052 C 
HETATM    2  C   UNL     1      29.982  44.137  55.239  1.00  0.00    -0.015 A 
HETATM    3  C   UNL     1      28.669  44.398  54.550  1.00  0.00     0.144 A 
HETATM    4  N   UNL     1      28.315  43.643  53.559  1.00  0.00    -0.217 NA
HETATM    5  N   UNL     1      27.903  45.448  55.025  1.00  0.00    -0.272 N 
HETATM    6  C   UNL     1      26.662  45.700  54.464  1.00  0.00     0.266 A 
HETATM    7  O   UNL     1      25.932  46.640  54.789  1.00  0.00    -0.267 OA
HETATM    8  C   UNL     1      26.216  44.758  53.397  1.00  0.00     0.074 A 
HETATM    9  C   UNL     1      27.099  43.831  52.962  1.00  0.00     0.121 A 
HETATM   10  C   UNL     1      28.369  46.277  56.039  1.00  0.00     0.102 A 
HETATM   11  C   UNL     1      29.557  46.078  56.622  1.00  0.00     0.018 A 
HETATM   12  C   UNL     1      30.373  44.964  56.222  1.00  0.00     0.012 A 
ENDROOT
BRANCH   8  13
HETATM   13  C   UNL     1      24.853  44.893  52.896  1.00  0.00     0.045 C 
BRANCH  13  14
HETATM   14  C   UNL     1      24.511  45.196  51.636  1.00  0.00     0.077 A 
HETATM   15  S   UNL     1      23.708  44.193  50.497  1.00  0.00    -0.055 SA
HETATM   16  C   UNL     1      23.916  45.350  49.190  1.00  0.00     0.149 A 
HETATM   17  S   UNL     1      23.481  44.977  47.623  1.00  0.00    -0.052 SA
HETATM   18  N   UNL     1      24.488  46.506  49.677  1.00  0.00    -0.294 N 
HETATM   19  C   UNL     1      24.851  46.501  51.014  1.00  0.00     0.266 A 
HETATM   20  O   UNL     1      25.432  47.398  51.610  1.00  0.00    -0.266 OA
BRANCH  18  21
HETATM   21  C   UNL     1      24.785  47.689  48.874  1.00  0.00     0.172 C 
BRANCH  21  22
HETATM   22  C   UNL     1      23.678  48.720  48.930  1.00  0.00    -0.037 A 
HETATM   23  C   UNL     1      22.349  48.319  49.158  1.00  0.00     0.048 A 
HETATM   24  C   UNL     1      21.372  49.292  49.201  1.00  0.00     0.105 A 
HETATM   25  C   UNL     1      21.664  50.622  49.022  1.00  0.00     0.105 A 
HETATM   26  O   UNL     1      20.047  49.077  49.423  1.00  0.00    -0.323 OA
HETATM   27  O   UNL     1      20.560  51.413  49.105  1.00  0.00    -0.323 OA
HETATM   28  C   UNL     1      22.949  51.057  48.792  1.00  0.00     0.040 A 
HETATM   29  C   UNL     1      19.540  50.427  49.367  1.00  0.00     0.352 A 
HETATM   30  C   UNL     1      23.964  50.094  48.749  1.00  0.00     0.012 A 
ENDBRANCH  21  22
ENDBRANCH  18  21
ENDBRANCH  13  14
ENDBRANCH   8  13
BRANCH   9  31
HETATM   31  N   UNL     1      26.829  42.960  51.912  1.00  0.00    -0.274 NA
HETATM   32  H   UNL     1      26.096  42.317  52.230  1.00  0.00     0.129 HD
BRANCH  31  33
HETATM   33  C   UNL     1      27.871  42.255  51.154  1.00  0.00     0.130 C 
BRANCH  33  34
HETATM   34  C   UNL     1      27.805  40.725  51.394  1.00  0.00     0.164 C 
BRANCH  34  35
HETATM   35  O   UNL     1      26.473  40.344  51.771  1.00  0.00    -0.390 OA
HETATM   36  H   UNL     1      26.515  39.956  52.662  1.00  0.00     0.210 HD
ENDBRANCH  34  35
BRANCH  34  37
HETATM   37  C   UNL     1      28.246  39.817  50.262  1.00  0.00    -0.029 A 
HETATM   38  C   UNL     1      29.191  38.792  50.410  1.00  0.00     0.010 A 
HETATM   39  C   UNL     1      29.551  37.985  49.327  1.00  0.00     0.001 A 
HETATM   40  C   UNL     1      28.974  38.192  48.076  1.00  0.00     0.000 A 
HETATM   41  C   UNL     1      28.041  39.211  47.906  1.00  0.00     0.001 A 
HETATM   42  C   UNL     1      27.683  40.017  48.989  1.00  0.00     0.010 A 
ENDBRANCH  34  37
ENDBRANCH  33  34
ENDBRANCH  31  33
ENDBRANCH   9  31
TORSDOF 9
ENDMDL
MODEL 3
REMARK VINA RESULT:      -9.9      1.885      4.925
REMARK  9 active torsions:
REMARK  status: ('A' for Active; 'I' for Inactive)
REMARK    1  A    between atoms: C_8  and  C_9 
REMARK    2  A    between atoms: C_9  and  C_10 
REMARK    3  A    between atoms: N_14  and  C_15 
REMARK    4  A    between atoms: C_15  and  C_16 
REMARK    5  A    between atoms: C_27  and  N_28 
REMARK    6  A    between atoms: N_28  and  C_29 
REMARK    7  A    between atoms: C_29  and  C_30 
REMARK    8  A    between atoms: C_30  and  O_31 
REMARK    9  A    between atoms: C_30  and  C_32 
ROOT
HETATM    1  C   UNL     1      30.224  42.608  53.089  1.00  0.00     0.052 C 
HETATM    2  C   UNL     1      29.355  43.661  53.702  1.00  0.00    -0.015 A 
HETATM    3  C   UNL     1      28.171  44.141  52.906  1.00  0.00     0.144 A 
HETATM    4  N   UNL     1      28.004  43.706  51.697  1.00  0.00    -0.217 NA
HETATM    5  N   UNL     1      27.314  45.035  53.524  1.00  0.00    -0.272 N 
HETATM    6  C   UNL     1      26.180  45.468  52.858  1.00  0.00     0.266 A 
HETATM    7  O   UNL     1      25.386  46.298  53.309  1.00  0.00    -0.267 OA
HETATM    8  C   UNL     1      25.938  44.878  51.509  1.00  0.00     0.074 A 
HETATM    9  C   UNL     1      26.902  44.087  50.984  1.00  0.00     0.121 A 
HETATM   10  C   UNL     1      27.586  45.532  54.793  1.00  0.00     0.102 A 
HETATM   11  C   UNL     1      28.663  45.144  55.486  1.00  0.00     0.018 A 
HETATM   12  C   UNL     1      29.559  44.167  54.929  1.00  0.00     0.012 A 
ENDROOT
BRANCH   8  13
HETATM   13  C   UNL     1      24.676  45.186  50.847  1.00  0.00     0.045 C 
BRANCH  13  14
HETATM   14  C   UNL     1      24.449  46.241  50.052  1.00  0.00     0.077 A 
HETATM   15  S   UNL     1      25.391  47.668  49.908  1.00  0.00    -0.055 SA
HETATM   16  C   UNL     1      24.217  48.450  48.860  1.00  0.00     0.149 A 
HETATM   17  S   UNL     1      24.395  50.042  48.390  1.00  0.00    -0.052 SA
HETATM   18  N   UNL     1      23.199  47.570  48.560  1.00  0.00    -0.294 N 
HETATM   19  C   UNL     1      23.249  46.333  49.181  1.00  0.00     0.266 A 
HETATM   20  O   UNL     1      22.409  45.447  49.100  1.00  0.00    -0.266 OA
BRANCH  18  21
HETATM   21  C   UNL     1      22.063  47.875  47.694  1.00  0.00     0.172 C 
BRANCH  21  22
HETATM   22  C   UNL     1      20.966  48.623  48.422  1.00  0.00    -0.037 A 
HETATM   23  C   UNL     1      20.880  50.024  48.323  1.00  0.00     0.048 A 
HETATM   24  C   UNL     1      19.866  50.664  49.003  1.00  0.00     0.105 A 
HETATM   25  C   UNL     1      18.956  49.976  49.768  1.00  0.00     0.105 A 
HETATM   26  O   UNL     1      19.634  52.005  49.005  1.00  0.00    -0.323 OA
HETATM   27  O   UNL     1      18.039  50.794  50.351  1.00  0.00    -0.323 OA
HETATM   28  C   UNL     1      19.008  48.606  49.896  1.00  0.00     0.040 A 
HETATM   29  C   UNL     1      18.470  52.078  49.855  1.00  0.00     0.352 A 
HETATM   30  C   UNL     1      20.022  47.927  49.212  1.00  0.00     0.012 A 
ENDBRANCH  21  22
ENDBRANCH  18  21
ENDBRANCH  13  14
ENDBRANCH   8  13
BRANCH   9  31
HETATM   31  N   UNL     1      26.830  43.555  49.702  1.00  0.00    -0.274 NA
HETATM   32  H   UNL     1      26.320  44.228  49.120  1.00  0.00     0.129 HD
BRANCH  31  33
HETATM   33  C   UNL     1      26.413  42.175  49.417  1.00  0.00     0.130 C 
BRANCH  33  34
HETATM   34  C   UNL     1      27.242  41.156  50.239  1.00  0.00     0.164 C 
BRANCH  34  35
HETATM   35  O   UNL     1      26.452  40.638  51.320  1.00  0.00    -0.390 OA
HETATM   36  H   UNL     1      26.190  39.730  51.089  1.00  0.00     0.210 HD
ENDBRANCH  34  35
BRANCH  34  37
HETATM   37  C   UNL     1      27.843  39.978  49.496  1.00  0.00    -0.029 A 
HETATM   38  C   UNL     1      27.518  39.646  48.172  1.00  0.00     0.010 A 
HETATM   39  C   UNL     1      28.112  38.549  47.541  1.00  0.00     0.001 A 
HETATM   40  C   UNL     1      29.039  37.765  48.222  1.00  0.00     0.000 A 
HETATM   41  C   UNL     1      29.369  38.072  49.540  1.00  0.00     0.001 A 
HETATM   42  C   UNL     1      28.774  39.167  50.170  1.00  0.00     0.010 A 
ENDBRANCH  34  37
ENDBRANCH  33  34
ENDBRANCH  31  33
ENDBRANCH   9  31
TORSDOF 9
ENDMDL
MODEL 4
REMARK VINA RESULT:      -9.9      3.003      4.207
REMARK  9 active torsions:
REMARK  status: ('A' for Active; 'I' for Inactive)
REMARK    1  A    between atoms: C_8  and  C_9 
REMARK    2  A    between atoms: C_9  and  C_10 
REMARK    3  A    between atoms: N_14  and  C_15 
REMARK    4  A    between atoms: C_15  and  C_16 
REMARK    5  A    between atoms: C_27  and  N_28 
REMARK    6  A    between atoms: N_28  and  C_29 
REMARK    7  A    between atoms: C_29  and  C_30 
REMARK    8  A    between atoms: C_30  and  O_31 
REMARK    9  A    between atoms: C_30  and  C_32 
ROOT
HETATM    1  C   UNL     1      29.111  38.488  49.052  1.00  0.00     0.052 C 
HETATM    2  C   UNL     1      27.798  38.837  48.425  1.00  0.00    -0.015 A 
HETATM    3  C   UNL     1      26.920  39.825  49.145  1.00  0.00     0.144 A 
HETATM    4  N   UNL     1      27.280  40.257  50.311  1.00  0.00    -0.217 NA
HETATM    5  N   UNL     1      25.758  40.221  48.505  1.00  0.00    -0.272 N 
HETATM    6  C   UNL     1      24.939  41.168  49.098  1.00  0.00     0.266 A 
HETATM    7  O   UNL     1      23.863  41.546  48.626  1.00  0.00    -0.267 OA
HETATM    8  C   UNL     1      25.417  41.741  50.389  1.00  0.00     0.074 A 
HETATM    9  C   UNL     1      26.522  41.199  50.951  1.00  0.00     0.121 A 
HETATM   10  C   UNL     1      25.379  39.662  47.290  1.00  0.00     0.102 A 
HETATM   11  C   UNL     1      26.134  38.748  46.669  1.00  0.00     0.018 A 
HETATM   12  C   UNL     1      27.387  38.342  47.246  1.00  0.00     0.012 A 
ENDROOT
BRANCH   8  13
HETATM   13  C   UNL     1      24.666  42.852  50.961  1.00  0.00     0.045 C 
BRANCH  13  14
HETATM   14  C   UNL     1      25.191  44.003  51.404  1.00  0.00     0.077 A 
HETATM   15  S   UNL     1      25.102  44.655  52.990  1.00  0.00    -0.055 SA
HETATM   16  C   UNL     1      25.852  46.170  52.510  1.00  0.00     0.149 A 
HETATM   17  S   UNL     1      25.979  47.451  53.572  1.00  0.00    -0.052 SA
HETATM   18  N   UNL     1      26.248  46.099  51.191  1.00  0.00    -0.294 N 
HETATM   19  C   UNL     1      25.915  44.941  50.508  1.00  0.00     0.266 A 
HETATM   20  O   UNL     1      26.114  44.717  49.322  1.00  0.00    -0.266 OA
BRANCH  18  21
HETATM   21  C   UNL     1      26.926  47.171  50.467  1.00  0.00     0.172 C 
BRANCH  21  22
HETATM   22  C   UNL     1      25.970  48.011  49.647  1.00  0.00    -0.037 A 
HETATM   23  C   UNL     1      24.593  47.723  49.653  1.00  0.00     0.048 A 
HETATM   24  C   UNL     1      23.758  48.514  48.891  1.00  0.00     0.105 A 
HETATM   25  C   UNL     1      24.236  49.555  48.133  1.00  0.00     0.105 A 
HETATM   26  O   UNL     1      22.408  48.381  48.795  1.00  0.00    -0.323 OA
HETATM   27  O   UNL     1      23.249  50.206  47.461  1.00  0.00    -0.323 OA
HETATM   28  C   UNL     1      25.576  49.866  48.094  1.00  0.00     0.040 A 
HETATM   29  C   UNL     1      22.092  49.462  47.893  1.00  0.00     0.352 A 
HETATM   30  C   UNL     1      26.448  49.087  48.863  1.00  0.00     0.012 A 
ENDBRANCH  21  22
ENDBRANCH  18  21
ENDBRANCH  13  14
ENDBRANCH   8  13
BRANCH   9  31
HETATM   31  N   UNL     1      27.009  41.587  52.194  1.00  0.00    -0.274 NA
HETATM   32  H   UNL     1      26.204  41.676  52.823  1.00  0.00     0.129 HD
BRANCH  31  33
HETATM   33  C   UNL     1      27.963  42.688  52.384  1.00  0.00     0.130 C 
BRANCH  33  34
HETATM   34  C   UNL     1      29.063  42.309  53.408  1.00  0.00     0.164 C 
BRANCH  34  35
HETATM   35  O   UNL     1      30.258  41.910  52.721  1.00  0.00    -0.390 OA
HETATM   36  H   UNL     1      30.615  41.127  53.174  1.00  0.00     0.210 HD
ENDBRANCH  34  35
BRANCH  34  37
HETATM   37  C   UNL     1      29.446  43.350  54.442  1.00  0.00    -0.029 A 
HETATM   38  C   UNL     1      30.581  43.253  55.261  1.00  0.00     0.010 A 
HETATM   39  C   UNL     1      30.882  44.252  56.192  1.00  0.00     0.001 A 
HETATM   40  C   UNL     1      30.053  45.363  56.322  1.00  0.00     0.000 A 
HETATM   41  C   UNL     1      28.916  45.474  55.526  1.00  0.00     0.001 A 
HETATM   42  C   UNL     1      28.616  44.475  54.597  1.00  0.00     0.010 A 
ENDBRANCH  34  37
ENDBRANCH  33  34
ENDBRANCH  31  33
ENDBRANCH   9  31
TORSDOF 9
ENDMDL
MODEL 5
REMARK VINA RESULT:      -9.9      2.936      9.954
REMARK  9 active torsions:
REMARK  status: ('A' for Active; 'I' for Inactive)
REMARK    1  A    between atoms: C_8  and  C_9 
REMARK    2  A    between atoms: C_9  and  C_10 
REMARK    3  A    between atoms: N_14  and  C_15 
REMARK    4  A    between atoms: C_15  and  C_16 
REMARK    5  A    between atoms: C_27  and  N_28 
REMARK    6  A    between atoms: N_28  and  C_29 
REMARK    7  A    between atoms: C_29  and  C_30 
REMARK    8  A    between atoms: C_30  and  O_31 
REMARK    9  A    between atoms: C_30  and  C_32 
ROOT
HETATM    1  C   UNL     1      23.942  50.608  47.678  1.00  0.00     0.052 C 
HETATM    2  C   UNL     1      25.114  49.907  48.289  1.00  0.00    -0.015 A 
HETATM    3  C   UNL     1      24.894  48.520  48.831  1.00  0.00     0.144 A 
HETATM    4  N   UNL     1      23.697  48.026  48.838  1.00  0.00    -0.217 NA
HETATM    5  N   UNL     1      26.006  47.840  49.297  1.00  0.00    -0.272 N 
HETATM    6  C   UNL     1      25.871  46.540  49.756  1.00  0.00     0.266 A 
HETATM    7  O   UNL     1      26.795  45.874  50.233  1.00  0.00    -0.267 OA
HETATM    8  C   UNL     1      24.508  45.943  49.660  1.00  0.00     0.074 A 
HETATM    9  C   UNL     1      23.491  46.746  49.272  1.00  0.00     0.121 A 
HETATM   10  C   UNL     1      27.255  48.448  49.341  1.00  0.00     0.102 A 
HETATM   11  C   UNL     1      27.446  49.698  48.904  1.00  0.00     0.018 A 
HETATM   12  C   UNL     1      26.346  50.437  48.346  1.00  0.00     0.012 A 
ENDROOT
BRANCH   8  13
HETATM   13  C   UNL     1      24.360  44.528  49.983  1.00  0.00     0.045 C 
BRANCH  13  14
HETATM   14  C   UNL     1      25.346  43.710  50.375  1.00  0.00     0.077 A 
HETATM   15  S   UNL     1      26.463  42.862  49.384  1.00  0.00    -0.055 SA
HETATM   16  C   UNL     1      27.137  41.973  50.742  1.00  0.00     0.149 A 
HETATM   17  S   UNL     1      28.260  40.760  50.515  1.00  0.00    -0.052 SA
HETATM   18  N   UNL     1      26.576  42.422  51.919  1.00  0.00    -0.294 N 
HETATM   19  C   UNL     1      25.576  43.374  51.804  1.00  0.00     0.266 A 
HETATM   20  O   UNL     1      24.913  43.842  52.718  1.00  0.00    -0.266 OA
BRANCH  18  21
HETATM   21  C   UNL     1      26.918  41.922  53.248  1.00  0.00     0.172 C 
BRANCH  21  22
HETATM   22  C   UNL     1      27.983  42.759  53.924  1.00  0.00    -0.037 A 
HETATM   23  C   UNL     1      27.626  43.921  54.631  1.00  0.00     0.048 A 
HETATM   24  C   UNL     1      28.629  44.654  55.231  1.00  0.00     0.105 A 
HETATM   25  C   UNL     1      29.949  44.282  55.148  1.00  0.00     0.105 A 
HETATM   26  O   UNL     1      28.456  45.790  55.958  1.00  0.00    -0.323 OA
HETATM   27  O   UNL     1      30.774  45.138  55.809  1.00  0.00    -0.323 OA
HETATM   28  C   UNL     1      30.342  43.156  54.462  1.00  0.00     0.040 A 
HETATM   29  C   UNL     1      29.819  46.087  56.328  1.00  0.00     0.352 A 
HETATM   30  C   UNL     1      29.346  42.387  53.848  1.00  0.00     0.012 A 
ENDBRANCH  21  22
ENDBRANCH  18  21
ENDBRANCH  13  14
ENDBRANCH   8  13
BRANCH   9  31
HETATM   31  N   UNL     1      22.167  46.327  49.232  1.00  0.00    -0.274 NA
HETATM   32  H   UNL     1      22.149  45.344  49.523  1.00  0.00     0.129 HD
BRANCH  31  33
HETATM   33  C   UNL     1      21.274  46.566  48.090  1.00  0.00     0.130 C 
BRANCH  33  34
HETATM   34  C   UNL     1      20.011  47.357  48.518  1.00  0.00     0.164 C 
BRANCH  34  35
HETATM   35  O   UNL     1      19.559  46.904  49.803  1.00  0.00    -0.390 OA
HETATM   36  H   UNL     1      20.094  47.351  50.481  1.00  0.00     0.210 HD
ENDBRANCH  34  35
BRANCH  34  37
HETATM   37  C   UNL     1      20.115  48.869  48.568  1.00  0.00    -0.029 A 
HETATM   38  C   UNL     1      20.609  49.580  49.671  1.00  0.00     0.010 A 
HETATM   39  C   UNL     1      20.685  50.976  49.652  1.00  0.00     0.001 A 
HETATM   40  C   UNL     1      20.264  51.685  48.530  1.00  0.00     0.000 A 
HETATM   41  C   UNL     1      19.761  50.999  47.427  1.00  0.00     0.001 A 
HETATM   42  C   UNL     1      19.686  49.605  47.448  1.00  0.00     0.010 A 
ENDBRANCH  34  37
ENDBRANCH  33  34
ENDBRANCH  31  33
ENDBRANCH   9  31
TORSDOF 9
ENDMDL
MODEL 6
REMARK VINA RESULT:      -9.5      4.420     10.406
REMARK  9 active torsions:
REMARK  status: ('A' for Active; 'I' for Inactive)
REMARK    1  A    between atoms: C_8  and  C_9 
REMARK    2  A    between atoms: C_9  and  C_10 
REMARK    3  A    between atoms: N_14  and  C_15 
REMARK    4  A    between atoms: C_15  and  C_16 
REMARK    5  A    between atoms: C_27  and  N_28 
REMARK    6  A    between atoms: N_28  and  C_29 
REMARK    7  A    between atoms: C_29  and  C_30 
REMARK    8  A    between atoms: C_30  and  O_31 
REMARK    9  A    between atoms: C_30  and  C_32 
ROOT
HETATM    1  C   UNL     1      28.412  47.333  54.811  1.00  0.00     0.052 C 
HETATM    2  C   UNL     1      28.933  45.945  55.018  1.00  0.00    -0.015 A 
HETATM    3  C   UNL     1      28.272  44.830  54.252  1.00  0.00     0.144 A 
HETATM    4  N   UNL     1      27.230  45.090  53.528  1.00  0.00    -0.217 NA
HETATM    5  N   UNL     1      28.828  43.567  54.369  1.00  0.00    -0.272 N 
HETATM    6  C   UNL     1      28.294  42.515  53.645  1.00  0.00     0.266 A 
HETATM    7  O   UNL     1      28.693  41.349  53.721  1.00  0.00    -0.267 OA
HETATM    8  C   UNL     1      27.163  42.847  52.731  1.00  0.00     0.074 A 
HETATM    9  C   UNL     1      26.656  44.099  52.782  1.00  0.00     0.121 A 
HETATM   10  C   UNL     1      29.898  43.329  55.225  1.00  0.00     0.102 A 
HETATM   11  C   UNL     1      30.457  44.309  55.943  1.00  0.00     0.018 A 
HETATM   12  C   UNL     1      29.971  45.656  55.818  1.00  0.00     0.012 A 
ENDROOT
BRANCH   8  13
HETATM   13  C   UNL     1      26.682  41.801  51.836  1.00  0.00     0.045 C 
BRANCH  13  14
HETATM   14  C   UNL     1      27.200  41.499  50.637  1.00  0.00     0.077 A 
HETATM   15  S   UNL     1      26.898  42.279  49.137  1.00  0.00    -0.055 SA
HETATM   16  C   UNL     1      27.809  41.084  48.226  1.00  0.00     0.149 A 
HETATM   17  S   UNL     1      27.844  41.105  46.558  1.00  0.00    -0.052 SA
HETATM   18  N   UNL     1      28.408  40.193  49.091  1.00  0.00    -0.294 N 
HETATM   19  C   UNL     1      28.117  40.349  50.437  1.00  0.00     0.266 A 
HETATM   20  O   UNL     1      28.491  39.621  51.347  1.00  0.00    -0.266 OA
BRANCH  18  21
HETATM   21  C   UNL     1      29.261  39.080  48.682  1.00  0.00     0.172 C 
BRANCH  21  22
HETATM   22  C   UNL     1      28.471  37.936  48.083  1.00  0.00    -0.037 A 
HETATM   23  C   UNL     1      28.828  37.411  46.828  1.00  0.00     0.048 A 
HETATM   24  C   UNL     1      28.081  36.369  46.320  1.00  0.00     0.105 A 
HETATM   25  C   UNL     1      27.007  35.847  46.999  1.00  0.00     0.105 A 
HETATM   26  O   UNL     1      28.298  35.741  45.132  1.00  0.00    -0.323 OA
HETATM   27  O   UNL     1      26.410  34.827  46.326  1.00  0.00    -0.323 OA
HETATM   28  C   UNL     1      26.620  36.335  48.226  1.00  0.00     0.040 A 
HETATM   29  C   UNL     1      27.240  34.760  45.147  1.00  0.00     0.352 A 
HETATM   30  C   UNL     1      27.364  37.387  48.772  1.00  0.00     0.012 A 
ENDBRANCH  21  22
ENDBRANCH  18  21
ENDBRANCH  13  14
ENDBRANCH   8  13
BRANCH   9  31
HETATM   31  N   UNL     1      25.546  44.498  52.046  1.00  0.00    -0.274 NA
HETATM   32  H   UNL     1      24.953  43.672  51.915  1.00  0.00     0.129 HD
BRANCH  31  33
HETATM   33  C   UNL     1      25.633  45.297  50.816  1.00  0.00     0.130 C 
BRANCH  33  34
HETATM   34  C   UNL     1      24.985  46.693  51.003  1.00  0.00     0.164 C 
BRANCH  34  35
HETATM   35  O   UNL     1      25.241  47.179  52.329  1.00  0.00    -0.390 OA
HETATM   36  H   UNL     1      24.677  47.959  52.473  1.00  0.00     0.210 HD
ENDBRANCH  34  35
BRANCH  34  37
HETATM   37  C   UNL     1      25.373  47.783  50.024  1.00  0.00    -0.029 A 
HETATM   38  C   UNL     1      24.445  48.557  49.312  1.00  0.00     0.010 A 
HETATM   39  C   UNL     1      24.869  49.553  48.427  1.00  0.00     0.001 A 
HETATM   40  C   UNL     1      26.228  49.791  48.237  1.00  0.00     0.000 A 
HETATM   41  C   UNL     1      27.166  49.027  48.926  1.00  0.00     0.001 A 
HETATM   42  C   UNL     1      26.741  48.032  49.809  1.00  0.00     0.010 A 
ENDBRANCH  34  37
ENDBRANCH  33  34
ENDBRANCH  31  33
ENDBRANCH   9  31
TORSDOF 9
ENDMDL
MODEL 7
REMARK VINA RESULT:      -9.3      3.747      7.605
REMARK  9 active torsions:
REMARK  status: ('A' for Active; 'I' for Inactive)
REMARK    1  A    between atoms: C_8  and  C_9 
REMARK    2  A    between atoms: C_9  and  C_10 
REMARK    3  A    between atoms: N_14  and  C_15 
REMARK    4  A    between atoms: C_15  and  C_16 
REMARK    5  A    between atoms: C_27  and  N_28 
REMARK    6  A    between atoms: N_28  and  C_29 
REMARK    7  A    between atoms: C_29  and  C_30 
REMARK    8  A    between atoms: C_30  and  O_31 
REMARK    9  A    between atoms: C_30  and  C_32 
ROOT
HETATM    1  C   UNL     1      28.344  46.511  57.529  1.00  0.00     0.052 C 
HETATM    2  C   UNL     1      29.276  45.488  56.960  1.00  0.00    -0.015 A 
HETATM    3  C   UNL     1      28.990  44.978  55.572  1.00  0.00     0.144 A 
HETATM    4  N   UNL     1      27.911  45.361  54.967  1.00  0.00    -0.217 NA
HETATM    5  N   UNL     1      29.916  44.112  55.014  1.00  0.00    -0.272 N 
HETATM    6  C   UNL     1      29.731  43.654  53.720  1.00  0.00     0.266 A 
HETATM    7  O   UNL     1      30.475  42.846  53.158  1.00  0.00    -0.267 OA
HETATM    8  C   UNL     1      28.542  44.187  52.993  1.00  0.00     0.074 A 
HETATM    9  C   UNL     1      27.668  44.952  53.686  1.00  0.00     0.121 A 
HETATM   10  C   UNL     1      31.015  43.670  55.740  1.00  0.00     0.102 A 
HETATM   11  C   UNL     1      31.247  44.084  56.990  1.00  0.00     0.018 A 
HETATM   12  C   UNL     1      30.362  45.035  57.606  1.00  0.00     0.012 A 
ENDROOT
BRANCH   8  13
HETATM   13  C   UNL     1      28.403  43.854  51.580  1.00  0.00     0.045 C 
BRANCH  13  14
HETATM   14  C   UNL     1      27.664  42.852  51.083  1.00  0.00     0.077 A 
HETATM   15  S   UNL     1      27.623  41.218  51.610  1.00  0.00    -0.055 SA
HETATM   16  C   UNL     1      26.594  40.716  50.276  1.00  0.00     0.149 A 
HETATM   17  S   UNL     1      26.220  39.110  50.025  1.00  0.00    -0.052 SA
HETATM   18  N   UNL     1      26.221  41.817  49.533  1.00  0.00    -0.294 N 
HETATM   19  C   UNL     1      26.773  43.031  49.909  1.00  0.00     0.266 A 
HETATM   20  O   UNL     1      26.623  44.102  49.337  1.00  0.00    -0.266 OA
BRANCH  18  21
HETATM   21  C   UNL     1      25.349  41.774  48.363  1.00  0.00     0.172 C 
BRANCH  21  22
HETATM   22  C   UNL     1      24.150  42.688  48.501  1.00  0.00    -0.037 A 
HETATM   23  C   UNL     1      23.719  43.459  47.407  1.00  0.00     0.048 A 
HETATM   24  C   UNL     1      22.622  44.278  47.578  1.00  0.00     0.105 A 
HETATM   25  C   UNL     1      21.958  44.361  48.778  1.00  0.00     0.105 A 
HETATM   26  O   UNL     1      22.071  45.076  46.624  1.00  0.00    -0.323 OA
HETATM   27  O   UNL     1      20.907  45.223  48.733  1.00  0.00    -0.323 OA
HETATM   28  C   UNL     1      22.351  43.629  49.874  1.00  0.00     0.040 A 
HETATM   29  C   UNL     1      20.979  45.666  47.362  1.00  0.00     0.352 A 
HETATM   30  C   UNL     1      23.456  42.782  49.730  1.00  0.00     0.012 A 
ENDBRANCH  21  22
ENDBRANCH  18  21
ENDBRANCH  13  14
ENDBRANCH   8  13
BRANCH   9  31
HETATM   31  N   UNL     1      26.481  45.429  53.141  1.00  0.00    -0.274 NA
HETATM   32  H   UNL     1      26.083  44.677  52.569  1.00  0.00     0.129 HD
BRANCH  31  33
HETATM   33  C   UNL     1      26.360  46.732  52.474  1.00  0.00     0.130 C 
BRANCH  33  34
HETATM   34  C   UNL     1      25.835  46.576  51.024  1.00  0.00     0.164 C 
BRANCH  34  35
HETATM   35  O   UNL     1      24.438  46.243  51.040  1.00  0.00    -0.390 OA
HETATM   36  H   UNL     1      24.058  46.512  50.186  1.00  0.00     0.210 HD
ENDBRANCH  34  35
BRANCH  34  37
HETATM   37  C   UNL     1      26.023  47.748  50.080  1.00  0.00    -0.029 A 
HETATM   38  C   UNL     1      27.277  48.248  49.701  1.00  0.00     0.010 A 
HETATM   39  C   UNL     1      27.383  49.329  48.820  1.00  0.00     0.001 A 
HETATM   40  C   UNL     1      26.236  49.929  48.306  1.00  0.00     0.000 A 
HETATM   41  C   UNL     1      24.981  49.454  48.677  1.00  0.00     0.001 A 
HETATM   42  C   UNL     1      24.877  48.375  49.557  1.00  0.00     0.010 A 
ENDBRANCH  34  37
ENDBRANCH  33  34
ENDBRANCH  31  33
ENDBRANCH   9  31
TORSDOF 9
ENDMDL
MODEL 8
REMARK VINA RESULT:      -9.0      3.507      9.461
REMARK  9 active torsions:
REMARK  status: ('A' for Active; 'I' for Inactive)
REMARK    1  A    between atoms: C_8  and  C_9 
REMARK    2  A    between atoms: C_9  and  C_10 
REMARK    3  A    between atoms: N_14  and  C_15 
REMARK    4  A    between atoms: C_15  and  C_16 
REMARK    5  A    between atoms: C_27  and  N_28 
REMARK    6  A    between atoms: N_28  and  C_29 
REMARK    7  A    between atoms: C_29  and  C_30 
REMARK    8  A    between atoms: C_30  and  O_31 
REMARK    9  A    between atoms: C_30  and  C_32 
ROOT
HETATM    1  C   UNL     1      24.244  50.530  47.540  1.00  0.00     0.052 C 
HETATM    2  C   UNL     1      25.287  49.762  48.289  1.00  0.00    -0.015 A 
HETATM    3  C   UNL     1      24.888  48.438  48.882  1.00  0.00     0.144 A 
HETATM    4  N   UNL     1      23.651  48.060  48.812  1.00  0.00    -0.217 NA
HETATM    5  N   UNL     1      25.886  47.686  49.480  1.00  0.00    -0.272 N 
HETATM    6  C   UNL     1      25.587  46.436  49.995  1.00  0.00     0.266 A 
HETATM    7  O   UNL     1      26.398  45.718  50.585  1.00  0.00    -0.267 OA
HETATM    8  C   UNL     1      24.183  45.964  49.812  1.00  0.00     0.074 A 
HETATM    9  C   UNL     1      23.286  46.834  49.295  1.00  0.00     0.121 A 
HETATM   10  C   UNL     1      27.181  48.177  49.600  1.00  0.00     0.102 A 
HETATM   11  C   UNL     1      27.529  49.374  49.115  1.00  0.00     0.018 A 
HETATM   12  C   UNL     1      26.557  50.177  48.424  1.00  0.00     0.012 A 
ENDROOT
BRANCH   8  13
HETATM   13  C   UNL     1      23.871  44.592  50.196  1.00  0.00     0.045 C 
BRANCH  13  14
HETATM   14  C   UNL     1      24.253  43.490  49.536  1.00  0.00     0.077 A 
HETATM   15  S   UNL     1      25.508  42.397  49.957  1.00  0.00    -0.055 SA
HETATM   16  C   UNL     1      25.357  41.498  48.455  1.00  0.00     0.149 A 
HETATM   17  S   UNL     1      26.429  40.282  48.059  1.00  0.00    -0.052 SA
HETATM   18  N   UNL     1      24.290  41.980  47.727  1.00  0.00    -0.294 N 
HETATM   19  C   UNL     1      23.632  43.081  48.250  1.00  0.00     0.266 A 
HETATM   20  O   UNL     1      22.713  43.694  47.724  1.00  0.00    -0.266 OA
BRANCH  18  21
HETATM   21  C   UNL     1      23.857  41.452  46.436  1.00  0.00     0.172 C 
BRANCH  21  22
HETATM   22  C   UNL     1      23.005  40.209  46.575  1.00  0.00    -0.037 A 
HETATM   23  C   UNL     1      21.712  40.295  47.120  1.00  0.00     0.048 A 
HETATM   24  C   UNL     1      20.971  39.136  47.229  1.00  0.00     0.105 A 
HETATM   25  C   UNL     1      21.465  37.918  46.829  1.00  0.00     0.105 A 
HETATM   26  O   UNL     1      19.706  39.046  47.719  1.00  0.00    -0.323 OA
HETATM   27  O   UNL     1      20.576  36.907  47.020  1.00  0.00    -0.323 OA
HETATM   28  C   UNL     1      22.727  37.789  46.295  1.00  0.00     0.040 A 
HETATM   29  C   UNL     1      19.459  37.631  47.576  1.00  0.00     0.352 A 
HETATM   30  C   UNL     1      23.501  38.948  46.166  1.00  0.00     0.012 A 
ENDBRANCH  21  22
ENDBRANCH  18  21
ENDBRANCH  13  14
ENDBRANCH   8  13
BRANCH   9  31
HETATM   31  N   UNL     1      21.934  46.539  49.162  1.00  0.00    -0.274 NA
HETATM   32  H   UNL     1      21.837  45.520  49.220  1.00  0.00     0.129 HD
BRANCH  31  33
HETATM   33  C   UNL     1      21.081  47.101  48.106  1.00  0.00     0.130 C 
BRANCH  33  34
HETATM   34  C   UNL     1      19.757  47.658  48.688  1.00  0.00     0.164 C 
BRANCH  34  35
HETATM   35  O   UNL     1      19.514  47.092  49.985  1.00  0.00    -0.390 OA
HETATM   36  H   UNL     1      19.026  47.750  50.510  1.00  0.00     0.210 HD
ENDBRANCH  34  35
BRANCH  34  37
HETATM   37  C   UNL     1      19.621  49.164  48.804  1.00  0.00    -0.029 A 
HETATM   38  C   UNL     1      18.498  49.804  49.348  1.00  0.00     0.010 A 
HETATM   39  C   UNL     1      18.437  51.198  49.432  1.00  0.00     0.001 A 
HETATM   40  C   UNL     1      19.496  51.976  48.971  1.00  0.00     0.000 A 
HETATM   41  C   UNL     1      20.616  51.360  48.417  1.00  0.00     0.001 A 
HETATM   42  C   UNL     1      20.675  49.967  48.334  1.00  0.00     0.010 A 
ENDBRANCH  34  37
ENDBRANCH  33  34
ENDBRANCH  31  33
ENDBRANCH   9  31
TORSDOF 9
ENDMDL
MODEL 9
REMARK VINA RESULT:      -9.0      4.387      9.630
REMARK  9 active torsions:
REMARK  status: ('A' for Active; 'I' for Inactive)
REMARK    1  A    between atoms: C_8  and  C_9 
REMARK    2  A    between atoms: C_9  and  C_10 
REMARK    3  A    between atoms: N_14  and  C_15 
REMARK    4  A    between atoms: C_15  and  C_16 
REMARK    5  A    between atoms: C_27  and  N_28 
REMARK    6  A    between atoms: N_28  and  C_29 
REMARK    7  A    between atoms: C_29  and  C_30 
REMARK    8  A    between atoms: C_30  and  O_31 
REMARK    9  A    between atoms: C_30  and  C_32 
ROOT
HETATM    1  C   UNL     1      28.468  46.378  57.496  1.00  0.00     0.052 C 
HETATM    2  C   UNL     1      29.350  45.353  56.855  1.00  0.00    -0.015 A 
HETATM    3  C   UNL     1      28.973  44.868  55.480  1.00  0.00     0.144 A 
HETATM    4  N   UNL     1      27.864  45.274  54.949  1.00  0.00    -0.217 NA
HETATM    5  N   UNL     1      29.851  44.001  54.853  1.00  0.00    -0.272 N 
HETATM    6  C   UNL     1      29.581  43.566  53.566  1.00  0.00     0.266 A 
HETATM    7  O   UNL     1      30.279  42.758  52.947  1.00  0.00    -0.267 OA
HETATM    8  C   UNL     1      28.357  44.125  52.922  1.00  0.00     0.074 A 
HETATM    9  C   UNL     1      27.537  44.889  53.678  1.00  0.00     0.121 A 
HETATM   10  C   UNL     1      30.987  43.533  55.503  1.00  0.00     0.102 A 
HETATM   11  C   UNL     1      31.301  43.925  56.743  1.00  0.00     0.018 A 
HETATM   12  C   UNL     1      30.467  44.876  57.426  1.00  0.00     0.012 A 
ENDROOT
BRANCH   8  13
HETATM   13  C   UNL     1      28.127  43.816  51.515  1.00  0.00     0.045 C 
BRANCH  13  14
HETATM   14  C   UNL     1      27.516  42.719  51.046  1.00  0.00     0.077 A 
HETATM   15  S   UNL     1      27.578  41.128  51.687  1.00  0.00    -0.055 SA
HETATM   16  C   UNL     1      26.694  40.446  50.330  1.00  0.00     0.149 A 
HETATM   17  S   UNL     1      26.479  38.799  50.172  1.00  0.00    -0.052 SA
HETATM   18  N   UNL     1      26.281  41.455  49.486  1.00  0.00    -0.294 N 
HETATM   19  C   UNL     1      26.697  42.738  49.806  1.00  0.00     0.266 A 
HETATM   20  O   UNL     1      26.496  43.750  49.150  1.00  0.00    -0.266 OA
BRANCH  18  21
HETATM   21  C   UNL     1      25.501  41.255  48.268  1.00  0.00     0.172 C 
BRANCH  21  22
HETATM   22  C   UNL     1      26.323  40.656  47.146  1.00  0.00    -0.037 A 
HETATM   23  C   UNL     1      25.846  39.537  46.440  1.00  0.00     0.048 A 
HETATM   24  C   UNL     1      26.628  39.024  45.426  1.00  0.00     0.105 A 
HETATM   25  C   UNL     1      27.846  39.570  45.102  1.00  0.00     0.105 A 
HETATM   26  O   UNL     1      26.312  37.959  44.641  1.00  0.00    -0.323 OA
HETATM   27  O   UNL     1      28.453  38.916  44.075  1.00  0.00    -0.323 OA
HETATM   28  C   UNL     1      28.352  40.660  45.771  1.00  0.00     0.040 A 
HETATM   29  C   UNL     1      27.470  37.902  43.782  1.00  0.00     0.352 A 
HETATM   30  C   UNL     1      27.578  41.209  46.801  1.00  0.00     0.012 A 
ENDBRANCH  21  22
ENDBRANCH  18  21
ENDBRANCH  13  14
ENDBRANCH   8  13
BRANCH   9  31
HETATM   31  N   UNL     1      26.326  45.388  53.215  1.00  0.00    -0.274 NA
HETATM   32  H   UNL     1      25.843  44.622  52.734  1.00  0.00     0.129 HD
BRANCH  31  33
HETATM   33  C   UNL     1      26.198  46.651  52.475  1.00  0.00     0.130 C 
BRANCH  33  34
HETATM   34  C   UNL     1      25.941  46.398  50.968  1.00  0.00     0.164 C 
BRANCH  34  35
HETATM   35  O   UNL     1      24.729  45.648  50.796  1.00  0.00    -0.390 OA
HETATM   36  H   UNL     1      23.995  46.283  50.721  1.00  0.00     0.210 HD
ENDBRANCH  34  35
BRANCH  34  37
HETATM   37  C   UNL     1      25.874  47.607  50.055  1.00  0.00    -0.029 A 
HETATM   38  C   UNL     1      27.004  48.311  49.612  1.00  0.00     0.010 A 
HETATM   39  C   UNL     1      26.875  49.416  48.765  1.00  0.00     0.001 A 
HETATM   40  C   UNL     1      25.614  49.837  48.349  1.00  0.00     0.000 A 
HETATM   41  C   UNL     1      24.480  49.158  48.785  1.00  0.00     0.001 A 
HETATM   42  C   UNL     1      24.610  48.055  49.632  1.00  0.00     0.010 A 
ENDBRANCH  34  37
ENDBRANCH  33  34
ENDBRANCH  31  33
ENDBRANCH   9  31
TORSDOF 9
ENDMDL
MODEL 10
REMARK VINA RESULT:      -9.0      4.283      8.498
REMARK  9 active torsions:
REMARK  status: ('A' for Active; 'I' for Inactive)
REMARK    1  A    between atoms: C_8  and  C_9 
REMARK    2  A    between atoms: C_9  and  C_10 
REMARK    3  A    between atoms: N_14  and  C_15 
REMARK    4  A    between atoms: C_15  and  C_16 
REMARK    5  A    between atoms: C_27  and  N_28 
REMARK    6  A    between atoms: N_28  and  C_29 
REMARK    7  A    between atoms: C_29  and  C_30 
REMARK    8  A    between atoms: C_30  and  O_31 
REMARK    9  A    between atoms: C_30  and  C_32 
ROOT
HETATM    1  C   UNL     1      28.098  46.640  56.982  1.00  0.00     0.052 C 
HETATM    2  C   UNL     1      29.015  45.602  56.417  1.00  0.00    -0.015 A 
HETATM    3  C   UNL     1      28.666  45.018  55.074  1.00  0.00     0.144 A 
HETATM    4  N   UNL     1      27.551  45.356  54.508  1.00  0.00    -0.217 NA
HETATM    5  N   UNL     1      29.575  44.138  54.512  1.00  0.00    -0.272 N 
HETATM    6  C   UNL     1      29.331  43.612  53.254  1.00  0.00     0.266 A 
HETATM    7  O   UNL     1      30.058  42.786  52.695  1.00  0.00    -0.267 OA
HETATM    8  C   UNL     1      28.098  44.093  52.564  1.00  0.00     0.074 A 
HETATM    9  C   UNL     1      27.249  44.880  53.263  1.00  0.00     0.121 A 
HETATM   10  C   UNL     1      30.717  43.746  55.201  1.00  0.00     0.102 A 
HETATM   11  C   UNL     1      31.007  44.226  56.415  1.00  0.00     0.018 A 
HETATM   12  C   UNL     1      30.139  45.196  57.028  1.00  0.00     0.012 A 
ENDROOT
BRANCH   8  13
HETATM   13  C   UNL     1      27.892  43.687  51.179  1.00  0.00     0.045 C 
BRANCH  13  14
HETATM   14  C   UNL     1      27.319  42.543  50.777  1.00  0.00     0.077 A 
HETATM   15  S   UNL     1      27.947  40.951  50.912  1.00  0.00    -0.055 SA
HETATM   16  C   UNL     1      26.640  40.255  49.967  1.00  0.00     0.149 A 
HETATM   17  S   UNL     1      26.650  38.646  49.523  1.00  0.00    -0.052 SA
HETATM   18  N   UNL     1      25.708  41.227  49.669  1.00  0.00    -0.294 N 
HETATM   19  C   UNL     1      26.011  42.517  50.075  1.00  0.00     0.266 A 
HETATM   20  O   UNL     1      25.351  43.521  49.846  1.00  0.00    -0.266 OA
BRANCH  18  21
HETATM   21  C   UNL     1      24.479  40.998  48.915  1.00  0.00     0.172 C 
BRANCH  21  22
HETATM   22  C   UNL     1      24.662  41.221  47.429  1.00  0.00    -0.037 A 
HETATM   23  C   UNL     1      23.699  41.940  46.698  1.00  0.00     0.048 A 
HETATM   24  C   UNL     1      23.906  42.118  45.346  1.00  0.00     0.105 A 
HETATM   25  C   UNL     1      25.011  41.610  44.707  1.00  0.00     0.105 A 
HETATM   26  O   UNL     1      23.084  42.795  44.499  1.00  0.00    -0.323 OA
HETATM   27  O   UNL     1      25.024  41.899  43.379  1.00  0.00    -0.323 OA
HETATM   28  C   UNL     1      25.974  40.896  45.384  1.00  0.00     0.040 A 
HETATM   29  C   UNL     1      23.803  42.659  43.256  1.00  0.00     0.352 A 
HETATM   30  C   UNL     1      25.796  40.705  46.759  1.00  0.00     0.012 A 
ENDBRANCH  21  22
ENDBRANCH  18  21
ENDBRANCH  13  14
ENDBRANCH   8  13
BRANCH   9  31
HETATM   31  N   UNL     1      26.029  45.314  52.757  1.00  0.00    -0.274 NA
HETATM   32  H   UNL     1      25.681  44.582  52.129  1.00  0.00     0.129 HD
BRANCH  31  33
HETATM   33  C   UNL     1      25.813  46.653  52.193  1.00  0.00     0.130 C 
BRANCH  33  34
HETATM   34  C   UNL     1      25.503  46.582  50.676  1.00  0.00     0.164 C 
BRANCH  34  35
HETATM   35  O   UNL     1      24.122  46.243  50.473  1.00  0.00    -0.390 OA
HETATM   36  H   UNL     1      24.076  45.290  50.282  1.00  0.00     0.210 HD
ENDBRANCH  34  35
BRANCH  34  37
HETATM   37  C   UNL     1      25.808  47.810  49.840  1.00  0.00    -0.029 A 
HETATM   38  C   UNL     1      27.106  48.281  49.595  1.00  0.00     0.010 A 
HETATM   39  C   UNL     1      27.321  49.417  48.809  1.00  0.00     0.001 A 
HETATM   40  C   UNL     1      26.242  50.102  48.256  1.00  0.00     0.000 A 
HETATM   41  C   UNL     1      24.944  49.656  48.495  1.00  0.00     0.001 A 
HETATM   42  C   UNL     1      24.731  48.522  49.281  1.00  0.00     0.010 A 
ENDBRANCH  34  37
ENDBRANCH  33  34
ENDBRANCH  31  33
ENDBRANCH   9  31
TORSDOF 9
ENDMDL
