MODEL 1
REMARK VINA RESULT:      -7.9      0.000      0.000
REMARK  6 active torsions:
REMARK  status: ('A' for Active; 'I' for Inactive)
REMARK    1  A    between atoms: C_2  and  C_3 
REMARK    2  A    between atoms: C_3  and  O_4 
REMARK    3  A    between atoms: O_4  and  C_5 
REMARK    4  A    between atoms: C_6  and  O_7 
REMARK    5  A    between atoms: C_10  and  C_11 
REMARK    6  A    between atoms: C_25  and  O_26 
ROOT
HETATM    1  C   UNL     1      23.385  47.875  48.705  1.00  0.00     0.269 C 
HETATM    2  N   UNL     1      24.413  48.845  48.168  1.00  0.00    -0.061 N 
HETATM    3  H   UNL     1      24.185  49.016  47.184  1.00  0.00     0.278 HD
HETATM    4  H   UNL     1      25.333  48.392  48.192  1.00  0.00     0.278 HD
HETATM    5  C   UNL     1      24.477  50.172  48.885  1.00  0.00     0.238 C 
HETATM    6  C   UNL     1      23.137  50.923  48.771  1.00  0.00     0.069 C 
HETATM    7  C   UNL     1      22.005  50.004  49.073  1.00  0.00    -0.019 A 
HETATM    8  C   UNL     1      22.146  48.629  49.046  1.00  0.00     0.052 A 
HETATM    9  N   UNL     1      20.937  48.071  49.375  1.00  0.00    -0.356 N 
HETATM   10  H   UNL     1      20.727  47.083  49.461  1.00  0.00     0.166 HD
HETATM   11  C   UNL     1      20.008  49.070  49.580  1.00  0.00     0.043 A 
HETATM   12  C   UNL     1      20.653  50.293  49.389  1.00  0.00     0.002 A 
HETATM   13  C   UNL     1      18.653  48.982  49.915  1.00  0.00     0.033 A 
HETATM   14  C   UNL     1      17.930  50.177  50.035  1.00  0.00     0.039 A 
HETATM   15  C   UNL     1      18.540  51.414  49.833  1.00  0.00     0.069 A 
HETATM   16  C   UNL     1      19.905  51.478  49.523  1.00  0.00     0.051 A 
ENDROOT
BRANCH   1  17
HETATM   17  C   UNL     1      23.971  47.026  49.815  1.00  0.00    -0.019 A 
HETATM   18  C   UNL     1      23.622  45.668  49.873  1.00  0.00     0.049 A 
HETATM   19  C   UNL     1      24.166  44.835  50.853  1.00  0.00     0.102 A 
HETATM   20  C   UNL     1      25.093  45.317  51.785  1.00  0.00     0.102 A 
HETATM   21  C   UNL     1      25.449  46.664  51.728  1.00  0.00     0.040 A 
HETATM   22  C   UNL     1      24.897  47.511  50.753  1.00  0.00     0.012 A 
BRANCH  19  23
HETATM   23  O   UNL     1      23.835  43.505  50.814  1.00  0.00    -0.353 OA
HETATM   24  C   UNL     1      22.774  43.283  49.885  1.00  0.00     0.210 C 
ENDBRANCH  19  23
BRANCH  20  25
HETATM   25  O   UNL     1      25.575  44.404  52.681  1.00  0.00    -0.348 OA
BRANCH  25  26
HETATM   26  C   UNL     1      25.392  44.670  54.073  1.00  0.00     0.175 C 
BRANCH  26  27
HETATM   27  C   UNL     1      26.581  44.077  54.822  1.00  0.00     0.022 C 
HETATM   28  C   UNL     1      27.847  44.890  54.613  1.00  0.00     0.007 C 
ENDBRANCH  26  27
ENDBRANCH  25  26
ENDBRANCH  20  25
ENDBRANCH   1  17
BRANCH  15  29
HETATM   29  O   UNL     1      17.926  52.635  49.912  1.00  0.00    -0.356 OA
HETATM   30  C   UNL     1      16.503  52.640  49.939  1.00  0.00     0.210 C 
ENDBRANCH  15  29
TORSDOF 6
ENDMDL
MODEL 2
REMARK VINA RESULT:      -7.8      1.653      8.255
REMARK  6 active torsions:
REMARK  status: ('A' for Active; 'I' for Inactive)
REMARK    1  A    between atoms: C_2  and  C_3 
REMARK    2  A    between atoms: C_3  and  O_4 
REMARK    3  A    between atoms: O_4  and  C_5 
REMARK    4  A    between atoms: C_6  and  O_7 
REMARK    5  A    between atoms: C_10  and  C_11 
REMARK    6  A    between atoms: C_25  and  O_26 
ROOT
HETATM    1  C   UNL     1      22.202  48.258  47.813  1.00  0.00     0.269 C 
HETATM    2  N   UNL     1      21.438  47.233  47.008  1.00  0.00    -0.061 N 
HETATM    3  H   UNL     1      22.078  46.866  46.296  1.00  0.00     0.278 HD
HETATM    4  H   UNL     1      20.675  47.708  46.514  1.00  0.00     0.278 HD
HETATM    5  C   UNL     1      20.888  46.073  47.804  1.00  0.00     0.238 C 
HETATM    6  C   UNL     1      22.025  45.276  48.469  1.00  0.00     0.069 C 
HETATM    7  C   UNL     1      22.985  46.204  49.131  1.00  0.00    -0.019 A 
HETATM    8  C   UNL     1      23.038  47.550  48.823  1.00  0.00     0.052 A 
HETATM    9  N   UNL     1      24.009  48.126  49.602  1.00  0.00    -0.356 N 
HETATM   10  H   UNL     1      24.270  49.105  49.622  1.00  0.00     0.166 HD
HETATM   11  C   UNL     1      24.607  47.160  50.383  1.00  0.00     0.043 A 
HETATM   12  C   UNL     1      23.986  45.942  50.101  1.00  0.00     0.002 A 
HETATM   13  C   UNL     1      25.647  47.271  51.312  1.00  0.00     0.033 A 
HETATM   14  C   UNL     1      26.082  46.102  51.952  1.00  0.00     0.039 A 
HETATM   15  C   UNL     1      25.494  44.868  51.678  1.00  0.00     0.069 A 
HETATM   16  C   UNL     1      24.437  44.785  50.763  1.00  0.00     0.051 A 
ENDROOT
BRANCH   1  17
HETATM   17  C   UNL     1      21.271  49.325  48.354  1.00  0.00    -0.019 A 
HETATM   18  C   UNL     1      20.487  49.022  49.477  1.00  0.00     0.049 A 
HETATM   19  C   UNL     1      19.643  49.983  50.035  1.00  0.00     0.102 A 
HETATM   20  C   UNL     1      19.575  51.282  49.516  1.00  0.00     0.102 A 
HETATM   21  C   UNL     1      20.357  51.592  48.404  1.00  0.00     0.040 A 
HETATM   22  C   UNL     1      21.199  50.626  47.829  1.00  0.00     0.012 A 
BRANCH  19  23
HETATM   23  O   UNL     1      18.954  49.644  51.171  1.00  0.00    -0.353 OA
HETATM   24  C   UNL     1      18.465  48.306  51.075  1.00  0.00     0.210 C 
ENDBRANCH  19  23
BRANCH  20  25
HETATM   25  O   UNL     1      18.732  52.144  50.160  1.00  0.00    -0.348 OA
BRANCH  25  26
HETATM   26  C   UNL     1      17.660  52.719  49.411  1.00  0.00     0.175 C 
BRANCH  26  27
HETATM   27  C   UNL     1      16.391  51.935  49.735  1.00  0.00     0.022 C 
HETATM   28  C   UNL     1      15.983  51.019  48.596  1.00  0.00     0.007 C 
ENDBRANCH  26  27
ENDBRANCH  25  26
ENDBRANCH  20  25
ENDBRANCH   1  17
BRANCH  15  29
HETATM   29  O   UNL     1      25.849  43.669  52.234  1.00  0.00    -0.356 OA
HETATM   30  C   UNL     1      27.223  43.303  52.154  1.00  0.00     0.210 C 
ENDBRANCH  15  29
TORSDOF 6
ENDMDL
MODEL 3
REMARK VINA RESULT:      -7.6      6.606     10.231
REMARK  6 active torsions:
REMARK  status: ('A' for Active; 'I' for Inactive)
REMARK    1  A    between atoms: C_2  and  C_3 
REMARK    2  A    between atoms: C_3  and  O_4 
REMARK    3  A    between atoms: O_4  and  C_5 
REMARK    4  A    between atoms: C_6  and  O_7 
REMARK    5  A    between atoms: C_10  and  C_11 
REMARK    6  A    between atoms: C_25  and  O_26 
ROOT
HETATM    1  C   UNL     1      27.538  43.463  50.900  1.00  0.00     0.269 C 
HETATM    2  N   UNL     1      26.140  43.988  50.669  1.00  0.00    -0.061 N 
HETATM    3  H   UNL     1      26.036  44.145  49.661  1.00  0.00     0.278 HD
HETATM    4  H   UNL     1      26.054  44.901  51.129  1.00  0.00     0.278 HD
HETATM    5  C   UNL     1      25.029  43.075  51.131  1.00  0.00     0.238 C 
HETATM    6  C   UNL     1      25.070  41.735  50.375  1.00  0.00     0.069 C 
HETATM    7  C   UNL     1      26.462  41.204  50.344  1.00  0.00    -0.019 A 
HETATM    8  C   UNL     1      27.560  42.005  50.595  1.00  0.00     0.052 A 
HETATM    9  N   UNL     1      28.685  41.226  50.500  1.00  0.00    -0.356 N 
HETATM   10  H   UNL     1      29.643  41.520  50.652  1.00  0.00     0.166 HD
HETATM   11  C   UNL     1      28.327  39.939  50.157  1.00  0.00     0.043 A 
HETATM   12  C   UNL     1      26.936  39.901  50.046  1.00  0.00     0.002 A 
HETATM   13  C   UNL     1      29.126  38.813  49.934  1.00  0.00     0.033 A 
HETATM   14  C   UNL     1      28.489  37.620  49.565  1.00  0.00     0.039 A 
HETATM   15  C   UNL     1      27.103  37.555  49.428  1.00  0.00     0.069 A 
HETATM   16  C   UNL     1      26.321  38.690  49.680  1.00  0.00     0.051 A 
ENDROOT
BRANCH   1  17
HETATM   17  C   UNL     1      28.047  43.861  52.271  1.00  0.00    -0.019 A 
HETATM   18  C   UNL     1      27.354  44.856  52.978  1.00  0.00     0.049 A 
HETATM   19  C   UNL     1      27.760  45.229  54.261  1.00  0.00     0.102 A 
HETATM   20  C   UNL     1      28.844  44.608  54.891  1.00  0.00     0.102 A 
HETATM   21  C   UNL     1      29.533  43.614  54.196  1.00  0.00     0.040 A 
HETATM   22  C   UNL     1      29.138  43.241  52.901  1.00  0.00     0.012 A 
BRANCH  19  23
HETATM   23  O   UNL     1      27.001  46.160  54.923  1.00  0.00    -0.353 OA
HETATM   24  C   UNL     1      26.023  46.719  54.047  1.00  0.00     0.210 C 
ENDBRANCH  19  23
BRANCH  20  25
HETATM   25  O   UNL     1      29.134  45.039  56.155  1.00  0.00    -0.348 OA
BRANCH  25  26
HETATM   26  C   UNL     1      30.482  45.415  56.443  1.00  0.00     0.175 C 
BRANCH  26  27
HETATM   27  C   UNL     1      30.958  44.579  57.628  1.00  0.00     0.022 C 
HETATM   28  C   UNL     1      31.695  43.330  57.181  1.00  0.00     0.007 C 
ENDBRANCH  26  27
ENDBRANCH  25  26
ENDBRANCH  20  25
ENDBRANCH   1  17
BRANCH  15  29
HETATM   29  O   UNL     1      26.384  36.450  49.060  1.00  0.00    -0.356 OA
HETATM   30  C   UNL     1      26.345  36.138  47.672  1.00  0.00     0.210 C 
ENDBRANCH  15  29
TORSDOF 6
ENDMDL
MODEL 4
REMARK VINA RESULT:      -7.4      7.055     10.291
REMARK  6 active torsions:
REMARK  status: ('A' for Active; 'I' for Inactive)
REMARK    1  A    between atoms: C_2  and  C_3 
REMARK    2  A    between atoms: C_3  and  O_4 
REMARK    3  A    between atoms: O_4  and  C_5 
REMARK    4  A    between atoms: C_6  and  O_7 
REMARK    5  A    between atoms: C_10  and  C_11 
REMARK    6  A    between atoms: C_25  and  O_26 
ROOT
HETATM    1  C   UNL     1      26.489  42.179  52.191  1.00  0.00     0.269 C 
HETATM    2  N   UNL     1      25.302  43.107  52.069  1.00  0.00    -0.061 N 
HETATM    3  H   UNL     1      24.717  42.964  52.898  1.00  0.00     0.278 HD
HETATM    4  H   UNL     1      24.748  42.823  51.254  1.00  0.00     0.278 HD
HETATM    5  C   UNL     1      25.645  44.575  51.969  1.00  0.00     0.238 C 
HETATM    6  C   UNL     1      26.384  45.053  53.232  1.00  0.00     0.069 C 
HETATM    7  C   UNL     1      27.464  44.092  53.591  1.00  0.00    -0.019 A 
HETATM    8  C   UNL     1      27.493  42.801  53.098  1.00  0.00     0.052 A 
HETATM    9  N   UNL     1      28.607  42.179  53.603  1.00  0.00    -0.356 N 
HETATM   10  H   UNL     1      28.916  41.233  53.408  1.00  0.00     0.166 HD
HETATM   11  C   UNL     1      29.278  43.043  54.443  1.00  0.00     0.043 A 
HETATM   12  C   UNL     1      28.575  44.249  54.458  1.00  0.00     0.002 A 
HETATM   13  C   UNL     1      30.444  42.847  55.189  1.00  0.00     0.033 A 
HETATM   14  C   UNL     1      30.893  43.905  55.992  1.00  0.00     0.039 A 
HETATM   15  C   UNL     1      30.205  45.116  56.043  1.00  0.00     0.069 A 
HETATM   16  C   UNL     1      29.052  45.297  55.267  1.00  0.00     0.051 A 
ENDROOT
BRANCH   1  17
HETATM   17  C   UNL     1      26.997  41.767  50.823  1.00  0.00    -0.019 A 
HETATM   18  C   UNL     1      27.927  40.720  50.743  1.00  0.00     0.049 A 
HETATM   19  C   UNL     1      28.395  40.279  49.503  1.00  0.00     0.102 A 
HETATM   20  C   UNL     1      27.932  40.840  48.308  1.00  0.00     0.102 A 
HETATM   21  C   UNL     1      27.001  41.877  48.381  1.00  0.00     0.040 A 
HETATM   22  C   UNL     1      26.535  42.335  49.624  1.00  0.00     0.012 A 
BRANCH  19  23
HETATM   23  O   UNL     1      29.253  39.209  49.491  1.00  0.00    -0.353 OA
HETATM   24  C   UNL     1      28.547  38.001  49.776  1.00  0.00     0.210 C 
ENDBRANCH  19  23
BRANCH  20  25
HETATM   25  O   UNL     1      28.442  40.311  47.156  1.00  0.00    -0.348 OA
BRANCH  25  26
HETATM   26  C   UNL     1      28.049  40.900  45.916  1.00  0.00     0.175 C 
BRANCH  26  27
HETATM   27  C   UNL     1      27.275  39.850  45.124  1.00  0.00     0.022 C 
HETATM   28  C   UNL     1      28.081  38.579  44.927  1.00  0.00     0.007 C 
ENDBRANCH  26  27
ENDBRANCH  25  26
ENDBRANCH  20  25
ENDBRANCH   1  17
BRANCH  15  29
HETATM   29  O   UNL     1      30.547  46.203  56.800  1.00  0.00    -0.356 OA
HETATM   30  C   UNL     1      30.516  46.040  58.214  1.00  0.00     0.210 C 
ENDBRANCH  15  29
TORSDOF 6
ENDMDL
MODEL 5
REMARK VINA RESULT:      -7.3      5.817      7.967
REMARK  6 active torsions:
REMARK  status: ('A' for Active; 'I' for Inactive)
REMARK    1  A    between atoms: C_2  and  C_3 
REMARK    2  A    between atoms: C_3  and  O_4 
REMARK    3  A    between atoms: O_4  and  C_5 
REMARK    4  A    between atoms: C_6  and  O_7 
REMARK    5  A    between atoms: C_10  and  C_11 
REMARK    6  A    between atoms: C_25  and  O_26 
ROOT
HETATM    1  C   UNL     1      27.110  41.131  51.953  1.00  0.00     0.269 C 
HETATM    2  N   UNL     1      27.986  40.222  51.122  1.00  0.00    -0.061 N 
HETATM    3  H   UNL     1      27.472  39.347  50.983  1.00  0.00     0.278 HD
HETATM    4  H   UNL     1      28.828  39.997  51.663  1.00  0.00     0.278 HD
HETATM    5  C   UNL     1      28.378  40.771  49.771  1.00  0.00     0.238 C 
HETATM    6  C   UNL     1      27.135  41.016  48.896  1.00  0.00     0.069 C 
HETATM    7  C   UNL     1      26.088  41.731  49.680  1.00  0.00    -0.019 A 
HETATM    8  C   UNL     1      26.106  41.776  51.061  1.00  0.00     0.052 A 
HETATM    9  N   UNL     1      25.024  42.510  51.476  1.00  0.00    -0.356 N 
HETATM   10  H   UNL     1      24.775  42.739  52.431  1.00  0.00     0.166 HD
HETATM   11  C   UNL     1      24.289  42.909  50.379  1.00  0.00     0.043 A 
HETATM   12  C   UNL     1      24.933  42.426  49.239  1.00  0.00     0.002 A 
HETATM   13  C   UNL     1      23.107  43.655  50.311  1.00  0.00     0.033 A 
HETATM   14  C   UNL     1      22.555  43.893  49.045  1.00  0.00     0.039 A 
HETATM   15  C   UNL     1      23.165  43.409  47.889  1.00  0.00     0.069 A 
HETATM   16  C   UNL     1      24.361  42.686  47.980  1.00  0.00     0.051 A 
ENDROOT
BRANCH   1  17
HETATM   17  C   UNL     1      27.949  42.071  52.795  1.00  0.00    -0.019 A 
HETATM   18  C   UNL     1      27.293  43.032  53.579  1.00  0.00     0.049 A 
HETATM   19  C   UNL     1      28.020  43.895  54.402  1.00  0.00     0.102 A 
HETATM   20  C   UNL     1      29.414  43.810  54.494  1.00  0.00     0.102 A 
HETATM   21  C   UNL     1      30.072  42.852  53.722  1.00  0.00     0.040 A 
HETATM   22  C   UNL     1      29.348  41.989  52.883  1.00  0.00     0.012 A 
BRANCH  19  23
HETATM   23  O   UNL     1      27.315  44.767  55.192  1.00  0.00    -0.353 OA
HETATM   24  C   UNL     1      26.562  45.672  54.385  1.00  0.00     0.210 C 
ENDBRANCH  19  23
BRANCH  20  25
HETATM   25  O   UNL     1      30.016  44.690  55.350  1.00  0.00    -0.348 OA
BRANCH  25  26
HETATM   26  C   UNL     1      31.074  44.204  56.177  1.00  0.00     0.175 C 
BRANCH  26  27
HETATM   27  C   UNL     1      30.839  44.727  57.591  1.00  0.00     0.022 C 
HETATM   28  C   UNL     1      29.850  45.879  57.614  1.00  0.00     0.007 C 
ENDBRANCH  26  27
ENDBRANCH  25  26
ENDBRANCH  20  25
ENDBRANCH   1  17
BRANCH  15  29
HETATM   29  O   UNL     1      22.705  43.573  46.610  1.00  0.00    -0.356 OA
HETATM   30  C   UNL     1      22.822  42.455  45.735  1.00  0.00     0.210 C 
ENDBRANCH  15  29
TORSDOF 6
ENDMDL
MODEL 6
REMARK VINA RESULT:      -7.1      5.537      8.000
REMARK  6 active torsions:
REMARK  status: ('A' for Active; 'I' for Inactive)
REMARK    1  A    between atoms: C_2  and  C_3 
REMARK    2  A    between atoms: C_3  and  O_4 
REMARK    3  A    between atoms: O_4  and  C_5 
REMARK    4  A    between atoms: C_6  and  O_7 
REMARK    5  A    between atoms: C_10  and  C_11 
REMARK    6  A    between atoms: C_25  and  O_26 
ROOT
HETATM    1  C   UNL     1      24.837  42.772  50.908  1.00  0.00     0.269 C 
HETATM    2  N   UNL     1      24.038  43.593  49.923  1.00  0.00    -0.061 N 
HETATM    3  H   UNL     1      23.147  43.826  50.373  1.00  0.00     0.278 HD
HETATM    4  H   UNL     1      23.823  43.008  49.109  1.00  0.00     0.278 HD
HETATM    5  C   UNL     1      24.699  44.875  49.473  1.00  0.00     0.238 C 
HETATM    6  C   UNL     1      24.934  45.820  50.666  1.00  0.00     0.069 C 
HETATM    7  C   UNL     1      25.534  45.070  51.805  1.00  0.00    -0.019 A 
HETATM    8  C   UNL     1      25.485  43.691  51.885  1.00  0.00     0.052 A 
HETATM    9  N   UNL     1      26.128  43.310  53.036  1.00  0.00    -0.356 N 
HETATM   10  H   UNL     1      26.277  42.362  53.363  1.00  0.00     0.166 HD
HETATM   11  C   UNL     1      26.560  44.429  53.716  1.00  0.00     0.043 A 
HETATM   12  C   UNL     1      26.193  45.548  52.967  1.00  0.00     0.002 A 
HETATM   13  C   UNL     1      27.242  44.534  54.933  1.00  0.00     0.033 A 
HETATM   14  C   UNL     1      27.536  45.819  55.409  1.00  0.00     0.039 A 
HETATM   15  C   UNL     1      27.167  46.957  54.693  1.00  0.00     0.069 A 
HETATM   16  C   UNL     1      26.506  46.826  53.465  1.00  0.00     0.051 A 
ENDROOT
BRANCH   1  17
HETATM   17  C   UNL     1      25.762  41.812  50.188  1.00  0.00    -0.019 A 
HETATM   18  C   UNL     1      25.216  40.957  49.218  1.00  0.00     0.049 A 
HETATM   19  C   UNL     1      26.033  40.082  48.500  1.00  0.00     0.102 A 
HETATM   20  C   UNL     1      27.418  40.051  48.699  1.00  0.00     0.102 A 
HETATM   21  C   UNL     1      27.969  40.903  49.657  1.00  0.00     0.040 A 
HETATM   22  C   UNL     1      27.152  41.777  50.392  1.00  0.00     0.012 A 
BRANCH  19  23
HETATM   23  O   UNL     1      25.446  39.321  47.522  1.00  0.00    -0.353 OA
HETATM   24  C   UNL     1      25.109  40.131  46.396  1.00  0.00     0.210 C 
ENDBRANCH  19  23
BRANCH  20  25
HETATM   25  O   UNL     1      28.119  39.172  47.921  1.00  0.00    -0.348 OA
BRANCH  25  26
HETATM   26  C   UNL     1      28.522  37.933  48.507  1.00  0.00     0.175 C 
BRANCH  26  27
HETATM   27  C   UNL     1      29.937  38.111  49.049  1.00  0.00     0.022 C 
HETATM   28  C   UNL     1      30.012  37.843  50.542  1.00  0.00     0.007 C 
ENDBRANCH  26  27
ENDBRANCH  25  26
ENDBRANCH  20  25
ENDBRANCH   1  17
BRANCH  15  29
HETATM   29  O   UNL     1      27.392  48.253  55.073  1.00  0.00    -0.356 OA
HETATM   30  C   UNL     1      26.391  48.873  55.873  1.00  0.00     0.210 C 
ENDBRANCH  15  29
TORSDOF 6
ENDMDL
MODEL 7
REMARK VINA RESULT:      -7.1      6.693     10.136
REMARK  6 active torsions:
REMARK  status: ('A' for Active; 'I' for Inactive)
REMARK    1  A    between atoms: C_2  and  C_3 
REMARK    2  A    between atoms: C_3  and  O_4 
REMARK    3  A    between atoms: O_4  and  C_5 
REMARK    4  A    between atoms: C_6  and  O_7 
REMARK    5  A    between atoms: C_10  and  C_11 
REMARK    6  A    between atoms: C_25  and  O_26 
ROOT
HETATM    1  C   UNL     1      27.063  43.375  49.957  1.00  0.00     0.269 C 
HETATM    2  N   UNL     1      25.769  43.771  49.285  1.00  0.00    -0.061 N 
HETATM    3  H   UNL     1      25.951  43.817  48.277  1.00  0.00     0.278 HD
HETATM    4  H   UNL     1      25.517  44.717  49.591  1.00  0.00     0.278 HD
HETATM    5  C   UNL     1      24.610  42.831  49.522  1.00  0.00     0.238 C 
HETATM    6  C   UNL     1      24.921  41.427  48.972  1.00  0.00     0.069 C 
HETATM    7  C   UNL     1      26.284  40.999  49.395  1.00  0.00    -0.019 A 
HETATM    8  C   UNL     1      27.231  41.900  49.845  1.00  0.00     0.052 A 
HETATM    9  N   UNL     1      28.367  41.199  50.162  1.00  0.00    -0.356 N 
HETATM   10  H   UNL     1      29.228  41.576  50.539  1.00  0.00     0.166 HD
HETATM   11  C   UNL     1      28.175  39.861  49.887  1.00  0.00     0.043 A 
HETATM   12  C   UNL     1      26.877  39.711  49.397  1.00  0.00     0.002 A 
HETATM   13  C   UNL     1      29.050  38.779  50.031  1.00  0.00     0.033 A 
HETATM   14  C   UNL     1      28.594  37.512  49.642  1.00  0.00     0.039 A 
HETATM   15  C   UNL     1      27.309  37.332  49.132  1.00  0.00     0.069 A 
HETATM   16  C   UNL     1      26.442  38.427  49.020  1.00  0.00     0.051 A 
ENDROOT
BRANCH   1  17
HETATM   17  C   UNL     1      27.141  43.947  51.359  1.00  0.00    -0.019 A 
HETATM   18  C   UNL     1      28.027  43.357  52.274  1.00  0.00     0.049 A 
HETATM   19  C   UNL     1      28.162  43.871  53.564  1.00  0.00     0.102 A 
HETATM   20  C   UNL     1      27.449  45.003  53.976  1.00  0.00     0.102 A 
HETATM   21  C   UNL     1      26.572  45.599  53.069  1.00  0.00     0.040 A 
HETATM   22  C   UNL     1      26.421  45.079  51.773  1.00  0.00     0.012 A 
BRANCH  19  23
HETATM   23  O   UNL     1      29.093  43.289  54.387  1.00  0.00    -0.353 OA
HETATM   24  C   UNL     1      30.204  42.817  53.626  1.00  0.00     0.210 C 
ENDBRANCH  19  23
BRANCH  20  25
HETATM   25  O   UNL     1      27.682  45.431  55.253  1.00  0.00    -0.348 OA
BRANCH  25  26
HETATM   26  C   UNL     1      28.602  46.506  55.443  1.00  0.00     0.175 C 
BRANCH  26  27
HETATM   27  C   UNL     1      29.741  45.997  56.322  1.00  0.00     0.022 C 
HETATM   28  C   UNL     1      29.369  46.003  57.794  1.00  0.00     0.007 C 
ENDBRANCH  26  27
ENDBRANCH  25  26
ENDBRANCH  20  25
ENDBRANCH   1  17
BRANCH  15  29
HETATM   29  O   UNL     1      26.771  36.146  48.712  1.00  0.00    -0.356 OA
HETATM   30  C   UNL     1      26.716  35.925  47.306  1.00  0.00     0.210 C 
ENDBRANCH  15  29
TORSDOF 6
ENDMDL
MODEL 8
REMARK VINA RESULT:      -7.1      6.022      9.466
REMARK  6 active torsions:
REMARK  status: ('A' for Active; 'I' for Inactive)
REMARK    1  A    between atoms: C_2  and  C_3 
REMARK    2  A    between atoms: C_3  and  O_4 
REMARK    3  A    between atoms: O_4  and  C_5 
REMARK    4  A    between atoms: C_6  and  O_7 
REMARK    5  A    between atoms: C_10  and  C_11 
REMARK    6  A    between atoms: C_25  and  O_26 
ROOT
HETATM    1  C   UNL     1      24.774  42.747  50.950  1.00  0.00     0.269 C 
HETATM    2  N   UNL     1      23.971  44.019  50.810  1.00  0.00    -0.061 N 
HETATM    3  H   UNL     1      23.373  44.095  51.639  1.00  0.00     0.278 HD
HETATM    4  H   UNL     1      23.353  43.928  49.997  1.00  0.00     0.278 HD
HETATM    5  C   UNL     1      24.790  45.283  50.690  1.00  0.00     0.238 C 
HETATM    6  C   UNL     1      25.649  45.502  51.949  1.00  0.00     0.069 C 
HETATM    7  C   UNL     1      26.341  44.238  52.326  1.00  0.00    -0.019 A 
HETATM    8  C   UNL     1      25.930  43.006  51.853  1.00  0.00     0.052 A 
HETATM    9  N   UNL     1      26.768  42.051  52.371  1.00  0.00    -0.356 N 
HETATM   10  H   UNL     1      26.738  41.054  52.191  1.00  0.00     0.166 HD
HETATM   11  C   UNL     1      27.692  42.650  53.201  1.00  0.00     0.043 A 
HETATM   12  C   UNL     1      27.440  44.023  53.196  1.00  0.00     0.002 A 
HETATM   13  C   UNL     1      28.725  42.082  53.955  1.00  0.00     0.033 A 
HETATM   14  C   UNL     1      29.506  42.937  54.744  1.00  0.00     0.039 A 
HETATM   15  C   UNL     1      29.268  44.310  54.774  1.00  0.00     0.069 A 
HETATM   16  C   UNL     1      28.244  44.859  53.991  1.00  0.00     0.051 A 
ENDROOT
BRANCH   1  17
HETATM   17  C   UNL     1      25.110  42.167  49.591  1.00  0.00    -0.019 A 
HETATM   18  C   UNL     1      26.461  42.062  49.224  1.00  0.00     0.049 A 
HETATM   19  C   UNL     1      26.823  41.499  47.999  1.00  0.00     0.102 A 
HETATM   20  C   UNL     1      25.860  40.995  47.116  1.00  0.00     0.102 A 
HETATM   21  C   UNL     1      24.516  41.090  47.478  1.00  0.00     0.040 A 
HETATM   22  C   UNL     1      24.144  41.666  48.703  1.00  0.00     0.012 A 
BRANCH  19  23
HETATM   23  O   UNL     1      28.161  41.366  47.730  1.00  0.00    -0.353 OA
HETATM   24  C   UNL     1      28.696  40.232  48.413  1.00  0.00     0.210 C 
ENDBRANCH  19  23
BRANCH  20  25
HETATM   25  O   UNL     1      26.334  40.445  45.958  1.00  0.00    -0.348 OA
BRANCH  25  26
HETATM   26  C   UNL     1      25.947  41.047  44.722  1.00  0.00     0.175 C 
BRANCH  26  27
HETATM   27  C   UNL     1      27.218  41.388  43.950  1.00  0.00     0.022 C 
HETATM   28  C   UNL     1      28.388  40.517  44.370  1.00  0.00     0.007 C 
ENDBRANCH  26  27
ENDBRANCH  25  26
ENDBRANCH  20  25
ENDBRANCH   1  17
BRANCH  15  29
HETATM   29  O   UNL     1      29.960  45.229  55.516  1.00  0.00    -0.356 OA
HETATM   30  C   UNL     1      29.234  45.918  56.529  1.00  0.00     0.210 C 
ENDBRANCH  15  29
TORSDOF 6
ENDMDL
MODEL 9
REMARK VINA RESULT:      -7.0      1.097      2.020
REMARK  6 active torsions:
REMARK  status: ('A' for Active; 'I' for Inactive)
REMARK    1  A    between atoms: C_2  and  C_3 
REMARK    2  A    between atoms: C_3  and  O_4 
REMARK    3  A    between atoms: O_4  and  C_5 
REMARK    4  A    between atoms: C_6  and  O_7 
REMARK    5  A    between atoms: C_10  and  C_11 
REMARK    6  A    between atoms: C_25  and  O_26 
ROOT
HETATM    1  C   UNL     1      23.431  47.876  48.640  1.00  0.00     0.269 C 
HETATM    2  N   UNL     1      24.354  48.983  48.186  1.00  0.00    -0.061 N 
HETATM    3  H   UNL     1      24.103  49.213  47.219  1.00  0.00     0.278 HD
HETATM    4  H   UNL     1      25.314  48.623  48.173  1.00  0.00     0.278 HD
HETATM    5  C   UNL     1      24.293  50.247  49.011  1.00  0.00     0.238 C 
HETATM    6  C   UNL     1      22.885  50.869  48.959  1.00  0.00     0.069 C 
HETATM    7  C   UNL     1      21.851  49.820  49.183  1.00  0.00    -0.019 A 
HETATM    8  C   UNL     1      22.127  48.473  49.041  1.00  0.00     0.052 A 
HETATM    9  N   UNL     1      20.981  47.773  49.322  1.00  0.00    -0.356 N 
HETATM   10  H   UNL     1      20.869  46.766  49.326  1.00  0.00     0.166 HD
HETATM   11  C   UNL     1      19.960  48.655  49.609  1.00  0.00     0.043 A 
HETATM   12  C   UNL     1      20.479  49.948  49.521  1.00  0.00     0.002 A 
HETATM   13  C   UNL     1      18.622  48.407  49.934  1.00  0.00     0.033 A 
HETATM   14  C   UNL     1      17.786  49.511  50.153  1.00  0.00     0.039 A 
HETATM   15  C   UNL     1      18.271  50.814  50.055  1.00  0.00     0.069 A 
HETATM   16  C   UNL     1      19.620  51.038  49.752  1.00  0.00     0.051 A 
ENDROOT
BRANCH   1  17
HETATM   17  C   UNL     1      24.105  46.999  49.675  1.00  0.00    -0.019 A 
HETATM   18  C   UNL     1      24.970  47.602  50.602  1.00  0.00     0.049 A 
HETATM   19  C   UNL     1      25.585  46.843  51.599  1.00  0.00     0.102 A 
HETATM   20  C   UNL     1      25.337  45.471  51.726  1.00  0.00     0.102 A 
HETATM   21  C   UNL     1      24.473  44.867  50.813  1.00  0.00     0.040 A 
HETATM   22  C   UNL     1      23.861  45.622  49.800  1.00  0.00     0.012 A 
BRANCH  19  23
HETATM   23  O   UNL     1      26.366  47.504  52.513  1.00  0.00    -0.353 OA
HETATM   24  C   UNL     1      25.712  47.558  53.780  1.00  0.00     0.210 C 
ENDBRANCH  19  23
BRANCH  20  25
HETATM   25  O   UNL     1      25.976  44.837  52.755  1.00  0.00    -0.348 OA
BRANCH  25  26
HETATM   26  C   UNL     1      27.197  44.154  52.467  1.00  0.00     0.175 C 
BRANCH  26  27
HETATM   27  C   UNL     1      28.092  44.259  53.698  1.00  0.00     0.022 C 
HETATM   28  C   UNL     1      28.766  42.938  54.024  1.00  0.00     0.007 C 
ENDBRANCH  26  27
ENDBRANCH  25  26
ENDBRANCH  20  25
ENDBRANCH   1  17
BRANCH  15  29
HETATM   29  O   UNL     1      17.540  51.958  50.235  1.00  0.00    -0.356 OA
HETATM   30  C   UNL     1      17.263  52.735  49.075  1.00  0.00     0.210 C 
ENDBRANCH  15  29
TORSDOF 6
ENDMDL
MODEL 10
REMARK VINA RESULT:      -6.9      5.113      7.162
REMARK  6 active torsions:
REMARK  status: ('A' for Active; 'I' for Inactive)
REMARK    1  A    between atoms: C_2  and  C_3 
REMARK    2  A    between atoms: C_3  and  O_4 
REMARK    3  A    between atoms: O_4  and  C_5 
REMARK    4  A    between atoms: C_6  and  O_7 
REMARK    5  A    between atoms: C_10  and  C_11 
REMARK    6  A    between atoms: C_25  and  O_26 
ROOT
HETATM    1  C   UNL     1      26.659  44.912  49.773  1.00  0.00     0.269 C 
HETATM    2  N   UNL     1      25.946  46.241  49.870  1.00  0.00    -0.061 N 
HETATM    3  H   UNL     1      25.967  46.667  48.937  1.00  0.00     0.278 HD
HETATM    4  H   UNL     1      26.480  46.854  50.495  1.00  0.00     0.278 HD
HETATM    5  C   UNL     1      24.510  46.165  50.331  1.00  0.00     0.238 C 
HETATM    6  C   UNL     1      23.660  45.339  49.349  1.00  0.00     0.069 C 
HETATM    7  C   UNL     1      24.364  44.073  48.999  1.00  0.00    -0.019 A 
HETATM    8  C   UNL     1      25.719  43.903  49.210  1.00  0.00     0.052 A 
HETATM    9  N   UNL     1      26.059  42.640  48.796  1.00  0.00    -0.356 N 
HETATM   10  H   UNL     1      26.976  42.211  48.843  1.00  0.00     0.166 HD
HETATM   11  C   UNL     1      24.944  42.006  48.288  1.00  0.00     0.043 A 
HETATM   12  C   UNL     1      23.868  42.889  48.397  1.00  0.00     0.002 A 
HETATM   13  C   UNL     1      24.809  40.726  47.739  1.00  0.00     0.033 A 
HETATM   14  C   UNL     1      23.545  40.346  47.268  1.00  0.00     0.039 A 
HETATM   15  C   UNL     1      22.455  41.211  47.346  1.00  0.00     0.069 A 
HETATM   16  C   UNL     1      22.609  42.479  47.922  1.00  0.00     0.051 A 
ENDROOT
BRANCH   1  17
HETATM   17  C   UNL     1      27.308  44.550  51.094  1.00  0.00    -0.019 A 
HETATM   18  C   UNL     1      26.667  44.933  52.282  1.00  0.00     0.049 A 
HETATM   19  C   UNL     1      27.206  44.589  53.523  1.00  0.00     0.102 A 
HETATM   20  C   UNL     1      28.377  43.829  53.623  1.00  0.00     0.102 A 
HETATM   21  C   UNL     1      29.015  43.438  52.446  1.00  0.00     0.040 A 
HETATM   22  C   UNL     1      28.486  43.791  51.194  1.00  0.00     0.012 A 
BRANCH  19  23
HETATM   23  O   UNL     1      26.496  44.937  54.644  1.00  0.00    -0.353 OA
HETATM   24  C   UNL     1      25.186  44.371  54.599  1.00  0.00     0.210 C 
ENDBRANCH  19  23
BRANCH  20  25
HETATM   25  O   UNL     1      28.796  43.531  54.890  1.00  0.00    -0.348 OA
BRANCH  25  26
HETATM   26  C   UNL     1      30.119  43.021  55.056  1.00  0.00     0.175 C 
BRANCH  26  27
HETATM   27  C   UNL     1      30.888  43.995  55.944  1.00  0.00     0.022 C 
HETATM   28  C   UNL     1      31.558  43.293  57.111  1.00  0.00     0.007 C 
ENDBRANCH  26  27
ENDBRANCH  25  26
ENDBRANCH  20  25
ENDBRANCH   1  17
BRANCH  15  29
HETATM   29  O   UNL     1      21.187  40.946  46.905  1.00  0.00    -0.356 OA
HETATM   30  C   UNL     1      20.702  41.734  45.823  1.00  0.00     0.210 C 
ENDBRANCH  15  29
TORSDOF 6
ENDMDL
