MODEL 1
REMARK VINA RESULT:     -10.3      0.000      0.000
REMARK  5 active torsions:
REMARK  status: ('A' for Active; 'I' for Inactive)
REMARK    1  A    between atoms: C_3  and  O_4 
REMARK    2  A    between atoms: C_6  and  N_7 
REMARK       I    between atoms: N_7  and  C_8 
REMARK    3  A    between atoms: C_8  and  C_9 
REMARK    4  A    between atoms: C_14  and  C_15 
REMARK    5  A    between atoms: C_23  and  C_24 
ROOT
HETATM    1  C   UNL     1      25.235  46.813  50.449  1.00  0.00     0.148 A 
HETATM    2  N   UNL     1      25.773  45.730  49.834  1.00  0.00    -0.165 NA
HETATM    3  N   UNL     1      26.160  44.956  50.865  1.00  0.00    -0.240 N 
HETATM    4  C   UNL     1      26.013  45.541  52.090  1.00  0.00     0.123 A 
HETATM    5  N   UNL     1      26.500  44.961  53.204  1.00  0.00    -0.366 N 
HETATM    6  C   UNL     1      27.356  43.777  53.168  1.00  0.00     0.118 C 
HETATM    7  C   UNL     1      27.893  43.501  51.747  1.00  0.00     0.066 C 
HETATM    8  C   UNL     1      26.807  43.673  50.674  1.00  0.00     0.221 C 
HETATM    9  C   UNL     1      25.347  46.714  51.865  1.00  0.00     0.089 A 
HETATM   10  H   UNL     1      26.362  45.380  54.124  1.00  0.00     0.161 HD
ENDROOT
BRANCH   1  11
HETATM   11  C   UNL     1      24.670  47.947  49.693  1.00  0.00     0.276 C 
HETATM   12  N   UNL     1      23.291  47.963  49.754  1.00  0.00    -0.322 N 
HETATM   13  H   UNL     1      22.904  47.205  50.311  1.00  0.00     0.169 HD
HETATM   14  O   UNL     1      25.391  48.724  49.078  1.00  0.00    -0.266 OA
BRANCH  12  15
HETATM   15  C   UNL     1      22.399  48.844  49.120  1.00  0.00     0.037 A 
HETATM   16  C   UNL     1      21.404  48.438  48.229  1.00  0.00     0.066 A 
HETATM   17  C   UNL     1      20.558  49.385  47.652  1.00  0.00     0.067 A 
HETATM   18  C   UNL     1      20.682  50.738  47.950  1.00  0.00     0.036 A 
HETATM   19  C   UNL     1      21.673  51.150  48.839  1.00  0.00     0.005 A 
HETATM   20  C   UNL     1      22.529  50.207  49.416  1.00  0.00     0.029 A 
BRANCH  17  21
HETATM   21  O   UNL     1      19.606  48.940  46.781  1.00  0.00    -0.361 OA
HETATM   22  H   UNL     1      19.314  48.058  47.061  1.00  0.00     0.217 HD
ENDBRANCH  17  21
ENDBRANCH  12  15
ENDBRANCH   1  11
BRANCH   8  23
HETATM   23  C   UNL     1      25.778  42.566  50.699  1.00  0.00     0.409 C 
HETATM   24  F   UNL     1      24.674  42.904  51.400  1.00  0.00    -0.169 F 
HETATM   25  F   UNL     1      25.363  42.301  49.432  1.00  0.00    -0.169 F 
HETATM   26  F   UNL     1      26.246  41.403  51.200  1.00  0.00    -0.169 F 
ENDBRANCH   8  23
BRANCH   6  27
HETATM   27  C   UNL     1      28.501  43.968  54.150  1.00  0.00    -0.035 A 
HETATM   28  C   UNL     1      29.508  42.996  54.268  1.00  0.00     0.012 A 
HETATM   29  C   UNL     1      30.559  43.173  55.171  1.00  0.00     0.043 A 
HETATM   30  C   UNL     1      30.610  44.319  55.955  1.00  0.00     0.116 A 
HETATM   31  F   UNL     1      31.619  44.484  56.819  1.00  0.00    -0.206 F 
HETATM   32  C   UNL     1      29.626  45.295  55.858  1.00  0.00     0.043 A 
HETATM   33  C   UNL     1      28.575  45.120  54.959  1.00  0.00     0.012 A 
ENDBRANCH   6  27
TORSDOF 5
ENDMDL
MODEL 2
REMARK VINA RESULT:     -10.3      2.030      2.880
REMARK  5 active torsions:
REMARK  status: ('A' for Active; 'I' for Inactive)
REMARK    1  A    between atoms: C_3  and  O_4 
REMARK    2  A    between atoms: C_6  and  N_7 
REMARK       I    between atoms: N_7  and  C_8 
REMARK    3  A    between atoms: C_8  and  C_9 
REMARK    4  A    between atoms: C_14  and  C_15 
REMARK    5  A    between atoms: C_23  and  C_24 
ROOT
HETATM    1  C   UNL     1      26.543  44.900  50.954  1.00  0.00     0.148 A 
HETATM    2  N   UNL     1      27.546  44.058  50.599  1.00  0.00    -0.165 NA
HETATM    3  N   UNL     1      27.952  43.554  51.779  1.00  0.00    -0.240 N 
HETATM    4  C   UNL     1      27.351  44.121  52.866  1.00  0.00     0.123 A 
HETATM    5  N   UNL     1      27.761  43.839  54.118  1.00  0.00    -0.366 N 
HETATM    6  C   UNL     1      28.965  43.061  54.397  1.00  0.00     0.118 C 
HETATM    7  C   UNL     1      29.855  42.914  53.144  1.00  0.00     0.066 C 
HETATM    8  C   UNL     1      29.035  42.596  51.885  1.00  0.00     0.221 C 
HETATM    9  C   UNL     1      26.378  44.943  52.367  1.00  0.00     0.089 A 
HETATM   10  H   UNL     1      27.291  44.236  54.932  1.00  0.00     0.161 HD
ENDROOT
BRANCH   1  11
HETATM   11  C   UNL     1      25.790  45.688  49.960  1.00  0.00     0.276 C 
HETATM   12  N   UNL     1      25.874  47.043  50.213  1.00  0.00    -0.322 N 
HETATM   13  H   UNL     1      26.441  47.264  51.028  1.00  0.00     0.169 HD
HETATM   14  O   UNL     1      25.160  45.143  49.061  1.00  0.00    -0.266 OA
BRANCH  12  15
HETATM   15  C   UNL     1      25.250  48.100  49.530  1.00  0.00     0.037 A 
HETATM   16  C   UNL     1      23.873  48.324  49.534  1.00  0.00     0.066 A 
HETATM   17  C   UNL     1      23.342  49.407  48.831  1.00  0.00     0.067 A 
HETATM   18  C   UNL     1      24.164  50.277  48.123  1.00  0.00     0.036 A 
HETATM   19  C   UNL     1      25.540  50.058  48.116  1.00  0.00     0.005 A 
HETATM   20  C   UNL     1      26.078  48.973  48.813  1.00  0.00     0.029 A 
BRANCH  17  21
HETATM   21  O   UNL     1      21.989  49.580  48.858  1.00  0.00    -0.361 OA
HETATM   22  H   UNL     1      21.795  50.487  49.142  1.00  0.00     0.217 HD
ENDBRANCH  17  21
ENDBRANCH  12  15
ENDBRANCH   1  11
BRANCH   8  23
HETATM   23  C   UNL     1      28.482  41.189  51.884  1.00  0.00     0.409 C 
HETATM   24  F   UNL     1      27.192  41.142  52.279  1.00  0.00    -0.169 F 
HETATM   25  F   UNL     1      28.519  40.687  50.621  1.00  0.00    -0.169 F 
HETATM   26  F   UNL     1      29.183  40.332  52.657  1.00  0.00    -0.169 F 
ENDBRANCH   8  23
BRANCH   6  27
HETATM   27  C   UNL     1      29.732  43.730  55.528  1.00  0.00    -0.035 A 
HETATM   28  C   UNL     1      29.387  45.024  55.954  1.00  0.00     0.012 A 
HETATM   29  C   UNL     1      30.093  45.637  56.992  1.00  0.00     0.043 A 
HETATM   30  C   UNL     1      31.140  44.962  57.608  1.00  0.00     0.116 A 
HETATM   31  F   UNL     1      31.812  45.554  58.603  1.00  0.00    -0.206 F 
HETATM   32  C   UNL     1      31.500  43.683  57.205  1.00  0.00     0.043 A 
HETATM   33  C   UNL     1      30.799  43.069  56.168  1.00  0.00     0.012 A 
ENDBRANCH   6  27
TORSDOF 5
ENDMDL
MODEL 3
REMARK VINA RESULT:      -9.5      3.366      9.159
REMARK  5 active torsions:
REMARK  status: ('A' for Active; 'I' for Inactive)
REMARK    1  A    between atoms: C_3  and  O_4 
REMARK    2  A    between atoms: C_6  and  N_7 
REMARK       I    between atoms: N_7  and  C_8 
REMARK    3  A    between atoms: C_8  and  C_9 
REMARK    4  A    between atoms: C_14  and  C_15 
REMARK    5  A    between atoms: C_23  and  C_24 
ROOT
HETATM    1  C   UNL     1      25.982  45.481  52.685  1.00  0.00     0.148 A 
HETATM    2  N   UNL     1      25.079  44.677  52.069  1.00  0.00    -0.165 NA
HETATM    3  N   UNL     1      24.728  45.390  50.983  1.00  0.00    -0.240 N 
HETATM    4  C   UNL     1      25.259  46.647  50.944  1.00  0.00     0.123 A 
HETATM    5  N   UNL     1      24.878  47.538  50.007  1.00  0.00    -0.366 N 
HETATM    6  C   UNL     1      23.766  47.294  49.091  1.00  0.00     0.118 C 
HETATM    7  C   UNL     1      22.902  46.098  49.546  1.00  0.00     0.066 C 
HETATM    8  C   UNL     1      23.757  44.912  50.019  1.00  0.00     0.221 C 
HETATM    9  C   UNL     1      26.137  46.714  51.990  1.00  0.00     0.089 A 
HETATM   10  H   UNL     1      25.299  48.466  49.955  1.00  0.00     0.161 HD
ENDROOT
BRANCH   1  11
HETATM   11  C   UNL     1      26.646  45.096  53.944  1.00  0.00     0.276 C 
HETATM   12  N   UNL     1      28.018  45.232  53.860  1.00  0.00    -0.322 N 
HETATM   13  H   UNL     1      28.332  45.579  52.957  1.00  0.00     0.169 HD
HETATM   14  O   UNL     1      26.004  44.681  54.902  1.00  0.00    -0.266 OA
BRANCH  12  15
HETATM   15  C   UNL     1      28.989  44.912  54.823  1.00  0.00     0.037 A 
HETATM   16  C   UNL     1      29.290  45.716  55.923  1.00  0.00     0.066 A 
HETATM   17  C   UNL     1      30.267  45.312  56.834  1.00  0.00     0.067 A 
HETATM   18  C   UNL     1      30.951  44.113  56.670  1.00  0.00     0.036 A 
HETATM   19  C   UNL     1      30.655  43.306  55.574  1.00  0.00     0.005 A 
HETATM   20  C   UNL     1      29.682  43.706  54.653  1.00  0.00     0.029 A 
BRANCH  17  21
HETATM   21  O   UNL     1      30.530  46.136  57.889  1.00  0.00    -0.361 OA
HETATM   22  H   UNL     1      30.822  45.598  58.642  1.00  0.00     0.217 HD
ENDBRANCH  17  21
ENDBRANCH  12  15
ENDBRANCH   1  11
BRANCH   8  23
HETATM   23  C   UNL     1      24.461  44.207  48.882  1.00  0.00     0.409 C 
HETATM   24  F   UNL     1      25.775  44.510  48.823  1.00  0.00    -0.169 F 
HETATM   25  F   UNL     1      24.383  42.862  49.063  1.00  0.00    -0.169 F 
HETATM   26  F   UNL     1      23.923  44.462  47.671  1.00  0.00    -0.169 F 
ENDBRANCH   8  23
BRANCH   6  27
HETATM   27  C   UNL     1      22.927  48.558  48.989  1.00  0.00    -0.035 A 
HETATM   28  C   UNL     1      21.525  48.486  49.018  1.00  0.00     0.012 A 
HETATM   29  C   UNL     1      20.756  49.649  48.924  1.00  0.00     0.043 A 
HETATM   30  C   UNL     1      21.382  50.883  48.802  1.00  0.00     0.116 A 
HETATM   31  F   UNL     1      20.641  51.994  48.712  1.00  0.00    -0.206 F 
HETATM   32  C   UNL     1      22.767  50.981  48.769  1.00  0.00     0.043 A 
HETATM   33  C   UNL     1      23.537  49.822  48.861  1.00  0.00     0.012 A 
ENDBRANCH   6  27
TORSDOF 5
ENDMDL
MODEL 4
REMARK VINA RESULT:      -9.4      4.821      7.395
REMARK  5 active torsions:
REMARK  status: ('A' for Active; 'I' for Inactive)
REMARK    1  A    between atoms: C_3  and  O_4 
REMARK    2  A    between atoms: C_6  and  N_7 
REMARK       I    between atoms: N_7  and  C_8 
REMARK    3  A    between atoms: C_8  and  C_9 
REMARK    4  A    between atoms: C_14  and  C_15 
REMARK    5  A    between atoms: C_23  and  C_24 
ROOT
HETATM    1  C   UNL     1      27.238  41.791  51.006  1.00  0.00     0.148 A 
HETATM    2  N   UNL     1      26.200  42.305  51.712  1.00  0.00    -0.165 NA
HETATM    3  N   UNL     1      26.776  43.290  52.427  1.00  0.00    -0.240 N 
HETATM    4  C   UNL     1      28.136  43.344  52.309  1.00  0.00     0.123 A 
HETATM    5  N   UNL     1      28.872  44.168  53.081  1.00  0.00    -0.366 N 
HETATM    6  C   UNL     1      28.305  44.919  54.198  1.00  0.00     0.118 C 
HETATM    7  C   UNL     1      26.901  44.401  54.582  1.00  0.00     0.066 C 
HETATM    8  C   UNL     1      26.029  44.122  53.349  1.00  0.00     0.221 C 
HETATM    9  C   UNL     1      28.462  42.437  51.338  1.00  0.00     0.089 A 
HETATM   10  H   UNL     1      29.884  44.234  52.970  1.00  0.00     0.161 HD
ENDROOT
BRANCH   1  11
HETATM   11  C   UNL     1      27.068  40.665  50.068  1.00  0.00     0.276 C 
HETATM   12  N   UNL     1      27.943  40.754  49.003  1.00  0.00    -0.322 N 
HETATM   13  H   UNL     1      28.554  41.565  49.051  1.00  0.00     0.169 HD
HETATM   14  O   UNL     1      26.214  39.807  50.251  1.00  0.00    -0.266 OA
BRANCH  12  15
HETATM   15  C   UNL     1      28.045  39.910  47.884  1.00  0.00     0.037 A 
HETATM   16  C   UNL     1      28.284  38.538  47.961  1.00  0.00     0.066 A 
HETATM   17  C   UNL     1      28.363  37.778  46.794  1.00  0.00     0.067 A 
HETATM   18  C   UNL     1      28.202  38.363  45.543  1.00  0.00     0.036 A 
HETATM   19  C   UNL     1      27.962  39.733  45.458  1.00  0.00     0.005 A 
HETATM   20  C   UNL     1      27.888  40.502  46.623  1.00  0.00     0.029 A 
BRANCH  17  21
HETATM   21  O   UNL     1      28.606  36.441  46.922  1.00  0.00    -0.361 OA
HETATM   22  H   UNL     1      28.954  36.104  46.081  1.00  0.00     0.217 HD
ENDBRANCH  17  21
ENDBRANCH  12  15
ENDBRANCH   1  11
BRANCH   8  23
HETATM   23  C   UNL     1      25.575  45.385  52.653  1.00  0.00     0.409 C 
HETATM   24  F   UNL     1      26.402  45.747  51.650  1.00  0.00    -0.169 F 
HETATM   25  F   UNL     1      24.353  45.181  52.092  1.00  0.00    -0.169 F 
HETATM   26  F   UNL     1      25.443  46.442  53.483  1.00  0.00    -0.169 F 
ENDBRANCH   8  23
BRANCH   6  27
HETATM   27  C   UNL     1      29.255  44.831  55.382  1.00  0.00    -0.035 A 
HETATM   28  C   UNL     1      30.248  43.839  55.426  1.00  0.00     0.012 A 
HETATM   29  C   UNL     1      31.120  43.760  56.514  1.00  0.00     0.043 A 
HETATM   30  C   UNL     1      31.005  44.669  57.559  1.00  0.00     0.116 A 
HETATM   31  F   UNL     1      31.843  44.589  58.599  1.00  0.00    -0.206 F 
HETATM   32  C   UNL     1      30.031  45.659  57.540  1.00  0.00     0.043 A 
HETATM   33  C   UNL     1      29.158  45.739  56.455  1.00  0.00     0.012 A 
ENDBRANCH   6  27
TORSDOF 5
ENDMDL
MODEL 5
REMARK VINA RESULT:      -9.3      6.550     12.247
REMARK  5 active torsions:
REMARK  status: ('A' for Active; 'I' for Inactive)
REMARK    1  A    between atoms: C_3  and  O_4 
REMARK    2  A    between atoms: C_6  and  N_7 
REMARK       I    between atoms: N_7  and  C_8 
REMARK    3  A    between atoms: C_8  and  C_9 
REMARK    4  A    between atoms: C_14  and  C_15 
REMARK    5  A    between atoms: C_23  and  C_24 
ROOT
HETATM    1  C   UNL     1      20.636  50.760  48.940  1.00  0.00     0.148 A 
HETATM    2  N   UNL     1      19.814  49.729  48.624  1.00  0.00    -0.165 NA
HETATM    3  N   UNL     1      18.710  50.350  48.167  1.00  0.00    -0.240 N 
HETATM    4  C   UNL     1      18.740  51.709  48.294  1.00  0.00     0.123 A 
HETATM    5  N   UNL     1      17.652  52.459  48.030  1.00  0.00    -0.366 N 
HETATM    6  C   UNL     1      16.338  51.878  47.766  1.00  0.00     0.118 C 
HETATM    7  C   UNL     1      16.282  50.385  48.157  1.00  0.00     0.066 C 
HETATM    8  C   UNL     1      17.540  49.623  47.715  1.00  0.00     0.221 C 
HETATM    9  C   UNL     1      20.003  52.016  48.720  1.00  0.00     0.089 A 
HETATM   10  H   UNL     1      17.682  53.477  48.092  1.00  0.00     0.161 HD
ENDROOT
BRANCH   1  11
HETATM   11  C   UNL     1      21.988  50.547  49.491  1.00  0.00     0.276 C 
HETATM   12  N   UNL     1      22.764  49.771  48.652  1.00  0.00    -0.322 N 
HETATM   13  H   UNL     1      22.280  49.490  47.803  1.00  0.00     0.169 HD
HETATM   14  O   UNL     1      22.310  51.001  50.582  1.00  0.00    -0.266 OA
BRANCH  12  15
HETATM   15  C   UNL     1      24.074  49.307  48.855  1.00  0.00     0.037 A 
HETATM   16  C   UNL     1      25.214  49.963  48.390  1.00  0.00     0.066 A 
HETATM   17  C   UNL     1      26.478  49.429  48.646  1.00  0.00     0.067 A 
HETATM   18  C   UNL     1      26.627  48.248  49.365  1.00  0.00     0.036 A 
HETATM   19  C   UNL     1      25.493  47.588  49.832  1.00  0.00     0.005 A 
HETATM   20  C   UNL     1      24.223  48.113  49.575  1.00  0.00     0.029 A 
BRANCH  17  21
HETATM   21  O   UNL     1      27.562  50.103  48.163  1.00  0.00    -0.361 OA
HETATM   22  H   UNL     1      27.334  51.043  48.079  1.00  0.00     0.217 HD
ENDBRANCH  17  21
ENDBRANCH  12  15
ENDBRANCH   1  11
BRANCH   8  23
HETATM   23  C   UNL     1      17.606  49.418  46.218  1.00  0.00     0.409 C 
HETATM   24  F   UNL     1      18.314  50.384  45.596  1.00  0.00    -0.169 F 
HETATM   25  F   UNL     1      18.234  48.244  45.947  1.00  0.00    -0.169 F 
HETATM   26  F   UNL     1      16.394  49.348  45.628  1.00  0.00    -0.169 F 
ENDBRANCH   8  23
BRANCH   6  27
HETATM   27  C   UNL     1      15.287  52.674  48.523  1.00  0.00    -0.035 A 
HETATM   28  C   UNL     1      15.033  52.410  49.879  1.00  0.00     0.012 A 
HETATM   29  C   UNL     1      14.067  53.142  50.573  1.00  0.00     0.043 A 
HETATM   30  C   UNL     1      13.354  54.139  49.919  1.00  0.00     0.116 A 
HETATM   31  F   UNL     1      12.430  54.838  50.589  1.00  0.00    -0.206 F 
HETATM   32  C   UNL     1      13.585  54.420  48.579  1.00  0.00     0.043 A 
HETATM   33  C   UNL     1      14.548  53.689  47.883  1.00  0.00     0.012 A 
ENDBRANCH   6  27
TORSDOF 5
ENDMDL
MODEL 6
REMARK VINA RESULT:      -9.1      3.484      9.262
REMARK  5 active torsions:
REMARK  status: ('A' for Active; 'I' for Inactive)
REMARK    1  A    between atoms: C_3  and  O_4 
REMARK    2  A    between atoms: C_6  and  N_7 
REMARK       I    between atoms: N_7  and  C_8 
REMARK    3  A    between atoms: C_8  and  C_9 
REMARK    4  A    between atoms: C_14  and  C_15 
REMARK    5  A    between atoms: C_23  and  C_24 
ROOT
HETATM    1  C   UNL     1      24.888  45.199  51.456  1.00  0.00     0.148 A 
HETATM    2  N   UNL     1      23.850  44.531  50.893  1.00  0.00    -0.165 NA
HETATM    3  N   UNL     1      23.476  45.343  49.886  1.00  0.00    -0.240 N 
HETATM    4  C   UNL     1      24.134  46.539  49.859  1.00  0.00     0.123 A 
HETATM    5  N   UNL     1      23.764  47.521  49.013  1.00  0.00    -0.366 N 
HETATM    6  C   UNL     1      22.550  47.448  48.203  1.00  0.00     0.118 C 
HETATM    7  C   UNL     1      21.610  46.320  48.679  1.00  0.00     0.066 C 
HETATM    8  C   UNL     1      22.373  45.026  49.001  1.00  0.00     0.221 C 
HETATM    9  C   UNL     1      25.109  46.451  50.814  1.00  0.00     0.089 A 
HETATM   10  H   UNL     1      24.275  48.403  48.968  1.00  0.00     0.161 HD
ENDROOT
BRANCH   1  11
HETATM   11  C   UNL     1      25.624  44.670  52.620  1.00  0.00     0.276 C 
HETATM   12  N   UNL     1      26.988  44.833  52.478  1.00  0.00    -0.322 N 
HETATM   13  H   UNL     1      27.249  45.292  51.609  1.00  0.00     0.169 HD
HETATM   14  O   UNL     1      25.038  44.134  53.552  1.00  0.00    -0.266 OA
BRANCH  12  15
HETATM   15  C   UNL     1      28.013  44.409  53.340  1.00  0.00     0.037 A 
HETATM   16  C   UNL     1      28.381  45.084  54.504  1.00  0.00     0.066 A 
HETATM   17  C   UNL     1      29.408  44.583  55.304  1.00  0.00     0.067 A 
HETATM   18  C   UNL     1      30.077  43.412  54.966  1.00  0.00     0.036 A 
HETATM   19  C   UNL     1      29.715  42.733  53.805  1.00  0.00     0.005 A 
HETATM   20  C   UNL     1      28.690  43.231  52.995  1.00  0.00     0.029 A 
BRANCH  17  21
HETATM   21  O   UNL     1      29.737  45.283  56.429  1.00  0.00    -0.361 OA
HETATM   22  H   UNL     1      28.988  45.253  57.046  1.00  0.00     0.217 HD
ENDBRANCH  17  21
ENDBRANCH  12  15
ENDBRANCH   1  11
BRANCH   8  23
HETATM   23  C   UNL     1      22.887  44.326  47.764  1.00  0.00     0.409 C 
HETATM   24  F   UNL     1      22.352  43.096  47.608  1.00  0.00    -0.169 F 
HETATM   25  F   UNL     1      22.540  45.040  46.660  1.00  0.00    -0.169 F 
HETATM   26  F   UNL     1      24.230  44.201  47.732  1.00  0.00    -0.169 F 
ENDBRANCH   8  23
BRANCH   6  27
HETATM   27  C   UNL     1      21.846  48.795  48.251  1.00  0.00    -0.035 A 
HETATM   28  C   UNL     1      22.464  49.901  48.859  1.00  0.00     0.012 A 
HETATM   29  C   UNL     1      21.815  51.137  48.903  1.00  0.00     0.043 A 
HETATM   30  C   UNL     1      20.552  51.275  48.341  1.00  0.00     0.116 A 
HETATM   31  F   UNL     1      19.934  52.461  48.385  1.00  0.00    -0.206 F 
HETATM   32  C   UNL     1      19.919  50.197  47.735  1.00  0.00     0.043 A 
HETATM   33  C   UNL     1      20.563  48.961  47.691  1.00  0.00     0.012 A 
ENDBRANCH   6  27
TORSDOF 5
ENDMDL
MODEL 7
REMARK VINA RESULT:      -9.1      1.697      2.187
REMARK  5 active torsions:
REMARK  status: ('A' for Active; 'I' for Inactive)
REMARK    1  A    between atoms: C_3  and  O_4 
REMARK    2  A    between atoms: C_6  and  N_7 
REMARK       I    between atoms: N_7  and  C_8 
REMARK    3  A    between atoms: C_8  and  C_9 
REMARK    4  A    between atoms: C_14  and  C_15 
REMARK    5  A    between atoms: C_23  and  C_24 
ROOT
HETATM    1  C   UNL     1      24.721  44.676  50.376  1.00  0.00     0.148 A 
HETATM    2  N   UNL     1      25.723  43.934  49.841  1.00  0.00    -0.165 NA
HETATM    3  N   UNL     1      26.342  43.431  50.925  1.00  0.00    -0.240 N 
HETATM    4  C   UNL     1      25.869  43.913  52.112  1.00  0.00     0.123 A 
HETATM    5  N   UNL     1      26.486  43.630  53.277  1.00  0.00    -0.366 N 
HETATM    6  C   UNL     1      27.777  42.950  53.341  1.00  0.00     0.118 C 
HETATM    7  C   UNL     1      28.476  42.916  51.964  1.00  0.00     0.066 C 
HETATM    8  C   UNL     1      27.501  42.567  50.828  1.00  0.00     0.221 C 
HETATM    9  C   UNL     1      24.769  44.663  51.799  1.00  0.00     0.089 A 
HETATM   10  H   UNL     1      26.115  43.960  54.168  1.00  0.00     0.161 HD
ENDROOT
BRANCH   1  11
HETATM   11  C   UNL     1      23.765  45.425  49.540  1.00  0.00     0.276 C 
HETATM   12  N   UNL     1      23.974  46.788  49.622  1.00  0.00    -0.322 N 
HETATM   13  H   UNL     1      24.749  47.039  50.232  1.00  0.00     0.169 HD
HETATM   14  O   UNL     1      22.893  44.851  48.899  1.00  0.00    -0.266 OA
BRANCH  12  15
HETATM   15  C   UNL     1      23.238  47.823  49.022  1.00  0.00     0.037 A 
HETATM   16  C   UNL     1      23.808  48.984  48.500  1.00  0.00     0.066 A 
HETATM   17  C   UNL     1      22.996  49.957  47.916  1.00  0.00     0.067 A 
HETATM   18  C   UNL     1      21.618  49.791  47.837  1.00  0.00     0.036 A 
HETATM   19  C   UNL     1      21.042  48.634  48.357  1.00  0.00     0.005 A 
HETATM   20  C   UNL     1      21.848  47.657  48.950  1.00  0.00     0.029 A 
BRANCH  17  21
HETATM   21  O   UNL     1      23.601  51.078  47.426  1.00  0.00    -0.361 OA
HETATM   22  H   UNL     1      23.044  51.453  46.725  1.00  0.00     0.217 HD
ENDBRANCH  17  21
ENDBRANCH  12  15
ENDBRANCH   1  11
BRANCH   8  23
HETATM   23  C   UNL     1      27.070  41.119  50.850  1.00  0.00     0.409 C 
HETATM   24  F   UNL     1      27.444  40.452  49.737  1.00  0.00    -0.169 F 
HETATM   25  F   UNL     1      27.662  40.484  51.897  1.00  0.00    -0.169 F 
HETATM   26  F   UNL     1      25.740  40.953  51.005  1.00  0.00    -0.169 F 
ENDBRANCH   8  23
BRANCH   6  27
HETATM   27  C   UNL     1      28.650  43.648  54.372  1.00  0.00    -0.035 A 
HETATM   28  C   UNL     1      29.874  43.084  54.769  1.00  0.00     0.012 A 
HETATM   29  C   UNL     1      30.674  43.728  55.716  1.00  0.00     0.043 A 
HETATM   30  C   UNL     1      30.258  44.933  56.267  1.00  0.00     0.116 A 
HETATM   31  F   UNL     1      31.028  45.545  57.175  1.00  0.00    -0.206 F 
HETATM   32  C   UNL     1      29.052  45.511  55.893  1.00  0.00     0.043 A 
HETATM   33  C   UNL     1      28.250  44.870  54.949  1.00  0.00     0.012 A 
ENDBRANCH   6  27
TORSDOF 5
ENDMDL
MODEL 8
REMARK VINA RESULT:      -9.1      3.916      9.023
REMARK  5 active torsions:
REMARK  status: ('A' for Active; 'I' for Inactive)
REMARK    1  A    between atoms: C_3  and  O_4 
REMARK    2  A    between atoms: C_6  and  N_7 
REMARK       I    between atoms: N_7  and  C_8 
REMARK    3  A    between atoms: C_8  and  C_9 
REMARK    4  A    between atoms: C_14  and  C_15 
REMARK    5  A    between atoms: C_23  and  C_24 
ROOT
HETATM    1  C   UNL     1      28.090  43.491  52.153  1.00  0.00     0.148 A 
HETATM    2  N   UNL     1      27.062  42.606  52.161  1.00  0.00    -0.165 NA
HETATM    3  N   UNL     1      26.319  42.993  51.108  1.00  0.00    -0.240 N 
HETATM    4  C   UNL     1      26.748  44.145  50.515  1.00  0.00     0.123 A 
HETATM    5  N   UNL     1      26.021  44.747  49.552  1.00  0.00    -0.366 N 
HETATM    6  C   UNL     1      24.668  44.322  49.202  1.00  0.00     0.118 C 
HETATM    7  C   UNL     1      24.074  43.372  50.264  1.00  0.00     0.066 C 
HETATM    8  C   UNL     1      25.090  42.320  50.735  1.00  0.00     0.221 C 
HETATM    9  C   UNL     1      27.936  44.455  51.116  1.00  0.00     0.089 A 
HETATM   10  H   UNL     1      26.356  45.590  49.084  1.00  0.00     0.161 HD
ENDROOT
BRANCH   1  11
HETATM   11  C   UNL     1      29.174  43.446  53.152  1.00  0.00     0.276 C 
HETATM   12  N   UNL     1      28.831  44.121  54.307  1.00  0.00    -0.322 N 
HETATM   13  H   UNL     1      27.897  44.522  54.276  1.00  0.00     0.169 HD
HETATM   14  O   UNL     1      30.239  42.890  52.912  1.00  0.00    -0.266 OA
BRANCH  12  15
HETATM   15  C   UNL     1      29.613  44.348  55.452  1.00  0.00     0.037 A 
HETATM   16  C   UNL     1      30.614  43.483  55.895  1.00  0.00     0.066 A 
HETATM   17  C   UNL     1      31.346  43.795  57.042  1.00  0.00     0.067 A 
HETATM   18  C   UNL     1      31.101  44.961  57.756  1.00  0.00     0.036 A 
HETATM   19  C   UNL     1      30.103  45.830  57.319  1.00  0.00     0.005 A 
HETATM   20  C   UNL     1      29.361  45.521  56.175  1.00  0.00     0.029 A 
BRANCH  17  21
HETATM   21  O   UNL     1      32.309  42.913  57.439  1.00  0.00    -0.361 OA
HETATM   22  H   UNL     1      33.014  43.403  57.892  1.00  0.00     0.217 HD
ENDBRANCH  17  21
ENDBRANCH  12  15
ENDBRANCH   1  11
BRANCH   8  23
HETATM   23  C   UNL     1      25.375  41.269  49.686  1.00  0.00     0.409 C 
HETATM   24  F   UNL     1      26.401  41.611  48.879  1.00  0.00    -0.169 F 
HETATM   25  F   UNL     1      25.732  40.106  50.293  1.00  0.00    -0.169 F 
HETATM   26  F   UNL     1      24.312  40.982  48.905  1.00  0.00    -0.169 F 
ENDBRANCH   8  23
BRANCH   6  27
HETATM   27  C   UNL     1      23.795  45.555  49.031  1.00  0.00    -0.035 A 
HETATM   28  C   UNL     1      24.185  46.787  49.582  1.00  0.00     0.012 A 
HETATM   29  C   UNL     1      23.381  47.918  49.424  1.00  0.00     0.043 A 
HETATM   30  C   UNL     1      22.189  47.825  48.716  1.00  0.00     0.116 A 
HETATM   31  F   UNL     1      21.422  48.912  48.568  1.00  0.00    -0.206 F 
HETATM   32  C   UNL     1      21.780  46.619  48.162  1.00  0.00     0.043 A 
HETATM   33  C   UNL     1      22.580  45.487  48.320  1.00  0.00     0.012 A 
ENDBRANCH   6  27
TORSDOF 5
ENDMDL
MODEL 9
REMARK VINA RESULT:      -8.9      3.818      9.457
REMARK  5 active torsions:
REMARK  status: ('A' for Active; 'I' for Inactive)
REMARK    1  A    between atoms: C_3  and  O_4 
REMARK    2  A    between atoms: C_6  and  N_7 
REMARK       I    between atoms: N_7  and  C_8 
REMARK    3  A    between atoms: C_8  and  C_9 
REMARK    4  A    between atoms: C_14  and  C_15 
REMARK    5  A    between atoms: C_23  and  C_24 
ROOT
HETATM    1  C   UNL     1      24.333  44.938  50.621  1.00  0.00     0.148 A 
HETATM    2  N   UNL     1      23.205  44.377  50.118  1.00  0.00    -0.165 NA
HETATM    3  N   UNL     1      22.796  45.279  49.206  1.00  0.00    -0.240 N 
HETATM    4  C   UNL     1      23.529  46.431  49.194  1.00  0.00     0.123 A 
HETATM    5  N   UNL     1      23.150  47.491  48.452  1.00  0.00    -0.366 N 
HETATM    6  C   UNL     1      21.866  47.551  47.758  1.00  0.00     0.118 C 
HETATM    7  C   UNL     1      20.898  46.453  48.249  1.00  0.00     0.066 C 
HETATM    8  C   UNL     1      21.598  45.094  48.412  1.00  0.00     0.221 C 
HETATM    9  C   UNL     1      24.578  46.216  50.044  1.00  0.00     0.089 A 
HETATM   10  H   UNL     1      23.714  48.341  48.415  1.00  0.00     0.161 HD
ENDROOT
BRANCH   1  11
HETATM   11  C   UNL     1      25.134  44.284  51.673  1.00  0.00     0.276 C 
HETATM   12  N   UNL     1      26.401  43.967  51.226  1.00  0.00    -0.322 N 
HETATM   13  H   UNL     1      26.567  44.243  50.261  1.00  0.00     0.169 HD
HETATM   14  O   UNL     1      24.661  44.049  52.779  1.00  0.00    -0.266 OA
BRANCH  12  15
HETATM   15  C   UNL     1      27.425  43.291  51.910  1.00  0.00     0.037 A 
HETATM   16  C   UNL     1      27.779  41.963  51.669  1.00  0.00     0.066 A 
HETATM   17  C   UNL     1      28.816  41.376  52.394  1.00  0.00     0.067 A 
HETATM   18  C   UNL     1      29.515  42.093  53.358  1.00  0.00     0.036 A 
HETATM   19  C   UNL     1      29.167  43.419  53.604  1.00  0.00     0.005 A 
HETATM   20  C   UNL     1      28.125  44.013  52.886  1.00  0.00     0.029 A 
BRANCH  17  21
HETATM   21  O   UNL     1      29.119  40.072  52.127  1.00  0.00    -0.361 OA
HETATM   22  H   UNL     1      30.073  39.941  52.250  1.00  0.00     0.217 HD
ENDBRANCH  17  21
ENDBRANCH  12  15
ENDBRANCH   1  11
BRANCH   8  23
HETATM   23  C   UNL     1      21.948  44.453  47.089  1.00  0.00     0.409 C 
HETATM   24  F   UNL     1      23.265  44.543  46.805  1.00  0.00    -0.169 F 
HETATM   25  F   UNL     1      21.653  43.127  47.135  1.00  0.00    -0.169 F 
HETATM   26  F   UNL     1      21.263  44.961  46.043  1.00  0.00    -0.169 F 
ENDBRANCH   8  23
BRANCH   6  27
HETATM   27  C   UNL     1      21.263  48.932  47.961  1.00  0.00    -0.035 A 
HETATM   28  C   UNL     1      19.892  49.150  47.741  1.00  0.00     0.012 A 
HETATM   29  C   UNL     1      19.340  50.419  47.928  1.00  0.00     0.043 A 
HETATM   30  C   UNL     1      20.150  51.472  48.335  1.00  0.00     0.116 A 
HETATM   31  F   UNL     1      19.615  52.686  48.512  1.00  0.00    -0.206 F 
HETATM   32  C   UNL     1      21.508  51.283  48.557  1.00  0.00     0.043 A 
HETATM   33  C   UNL     1      22.063  50.018  48.370  1.00  0.00     0.012 A 
ENDBRANCH   6  27
TORSDOF 5
ENDMDL
MODEL 10
REMARK VINA RESULT:      -8.8      4.469      9.320
REMARK  5 active torsions:
REMARK  status: ('A' for Active; 'I' for Inactive)
REMARK    1  A    between atoms: C_3  and  O_4 
REMARK    2  A    between atoms: C_6  and  N_7 
REMARK       I    between atoms: N_7  and  C_8 
REMARK    3  A    between atoms: C_8  and  C_9 
REMARK    4  A    between atoms: C_14  and  C_15 
REMARK    5  A    between atoms: C_23  and  C_24 
ROOT
HETATM    1  C   UNL     1      26.394  44.626  53.376  1.00  0.00     0.148 A 
HETATM    2  N   UNL     1      26.966  45.311  52.355  1.00  0.00    -0.165 NA
HETATM    3  N   UNL     1      25.976  45.385  51.446  1.00  0.00    -0.240 N 
HETATM    4  C   UNL     1      24.856  44.680  51.782  1.00  0.00     0.123 A 
HETATM    5  N   UNL     1      23.840  44.525  50.909  1.00  0.00    -0.366 N 
HETATM    6  C   UNL     1      23.931  44.938  49.511  1.00  0.00     0.118 C 
HETATM    7  C   UNL     1      25.389  45.235  49.095  1.00  0.00     0.066 C 
HETATM    8  C   UNL     1      26.144  46.039  50.164  1.00  0.00     0.221 C 
HETATM    9  C   UNL     1      25.062  44.238  53.059  1.00  0.00     0.089 A 
HETATM   10  H   UNL     1      22.988  44.027  51.169  1.00  0.00     0.161 HD
ENDROOT
BRANCH   1  11
HETATM   11  C   UNL     1      27.128  44.304  54.615  1.00  0.00     0.276 C 
HETATM   12  N   UNL     1      28.418  44.797  54.586  1.00  0.00    -0.322 N 
HETATM   13  H   UNL     1      28.637  45.299  53.729  1.00  0.00     0.169 HD
HETATM   14  O   UNL     1      26.610  43.647  55.510  1.00  0.00    -0.266 OA
BRANCH  12  15
HETATM   15  C   UNL     1      29.433  44.646  55.545  1.00  0.00     0.037 A 
HETATM   16  C   UNL     1      29.656  45.541  56.592  1.00  0.00     0.066 A 
HETATM   17  C   UNL     1      30.686  45.305  57.503  1.00  0.00     0.067 A 
HETATM   18  C   UNL     1      31.500  44.183  57.393  1.00  0.00     0.036 A 
HETATM   19  C   UNL     1      31.283  43.285  56.350  1.00  0.00     0.005 A 
HETATM   20  C   UNL     1      30.257  43.518  55.429  1.00  0.00     0.029 A 
BRANCH  17  21
HETATM   21  O   UNL     1      30.868  46.214  58.504  1.00  0.00    -0.361 OA
HETATM   22  H   UNL     1      30.538  45.836  59.335  1.00  0.00     0.217 HD
ENDBRANCH  17  21
ENDBRANCH  12  15
ENDBRANCH   1  11
BRANCH   8  23
HETATM   23  C   UNL     1      25.682  47.476  50.251  1.00  0.00     0.409 C 
HETATM   24  F   UNL     1      24.757  47.662  51.217  1.00  0.00    -0.169 F 
HETATM   25  F   UNL     1      26.736  48.274  50.568  1.00  0.00    -0.169 F 
HETATM   26  F   UNL     1      25.175  47.953  49.095  1.00  0.00    -0.169 F 
ENDBRANCH   8  23
BRANCH   6  27
HETATM   27  C   UNL     1      23.332  43.848  48.636  1.00  0.00    -0.035 A 
HETATM   28  C   UNL     1      22.756  44.167  47.395  1.00  0.00     0.012 A 
HETATM   29  C   UNL     1      22.205  43.165  46.593  1.00  0.00     0.043 A 
HETATM   30  C   UNL     1      22.229  41.844  47.024  1.00  0.00     0.116 A 
HETATM   31  F   UNL     1      21.700  40.887  46.252  1.00  0.00    -0.206 F 
HETATM   32  C   UNL     1      22.791  41.503  48.248  1.00  0.00     0.043 A 
HETATM   33  C   UNL     1      23.340  42.502  49.051  1.00  0.00     0.012 A 
ENDBRANCH   6  27
TORSDOF 5
ENDMDL
