MODEL 1
REMARK VINA RESULT:      -9.8      0.000      0.000
REMARK  8 active torsions:
REMARK  status: ('A' for Active; 'I' for Inactive)
REMARK    1  A    between atoms: N_2  and  C_4 
REMARK    2  A    between atoms: N_2  and  C_32 
REMARK    3  A    between atoms: C_4  and  C_5 
REMARK    4  A    between atoms: N_8  and  C_9 
REMARK    5  A    between atoms: C_12  and  N_13 
REMARK       I    between atoms: N_13  and  C_14 
REMARK       I    between atoms: C_14  and  N_15 
REMARK    6  A    between atoms: N_15  and  C_16 
REMARK    7  A    between atoms: C_18  and  C_19 
REMARK    8  A    between atoms: C_32  and  C_33 
ROOT
HETATM    1  C   UNL     1      22.705  45.350  48.063  1.00  0.00     0.161 C 
HETATM    2  C   UNL     1      22.313  44.344  49.132  1.00  0.00     0.179 C 
HETATM    3  C   UNL     1      23.332  44.559  50.242  1.00  0.00     0.177 C 
HETATM    4  C   UNL     1      24.225  43.330  50.158  1.00  0.00     0.141 C 
HETATM    5  C   UNL     1      23.295  42.286  49.545  1.00  0.00     0.196 C 
HETATM    6  O   UNL     1      22.434  43.001  48.637  1.00  0.00    -0.379 OA
HETATM    7  O   UNL     1      24.059  45.764  49.947  1.00  0.00    -0.379 OA
HETATM    8  C   UNL     1      23.346  46.445  48.899  1.00  0.00     0.198 C 
ENDROOT
BRANCH   1   9
HETATM    9  N   UNL     1      21.594  45.747  47.232  1.00  0.00    -0.274 N 
HETATM   10  N   UNL     1      21.744  46.022  45.924  1.00  0.00     0.005 NA
HETATM   11  N   UNL     1      20.559  46.358  45.439  1.00  0.00    -0.161 NA
HETATM   12  C   UNL     1      19.645  46.286  46.456  1.00  0.00     0.095 A 
HETATM   13  C   UNL     1      20.282  45.881  47.606  1.00  0.00     0.139 A 
BRANCH  12  14
HETATM   14  C   UNL     1      18.233  46.665  46.208  1.00  0.00     0.296 C 
BRANCH  14  15
HETATM   15  N   UNL     1      17.766  47.785  47.116  1.00  0.00    -0.066 N 
HETATM   16  C   UNL     1      16.454  47.476  47.780  1.00  0.00     0.270 C 
HETATM   17  H   UNL     1      18.465  47.821  47.873  1.00  0.00     0.280 HD
BRANCH  15  18
HETATM   18  C   UNL     1      17.785  49.119  46.420  1.00  0.00     0.273 C 
BRANCH  18  19
HETATM   19  C   UNL     1      18.584  50.164  47.149  1.00  0.00    -0.033 A 
HETATM   20  C   UNL     1      19.925  49.927  47.488  1.00  0.00     0.009 A 
HETATM   21  C   UNL     1      20.655  50.885  48.192  1.00  0.00     0.001 A 
HETATM   22  C   UNL     1      20.055  52.087  48.563  1.00  0.00     0.000 A 
HETATM   23  C   UNL     1      18.726  52.334  48.229  1.00  0.00     0.001 A 
HETATM   24  C   UNL     1      17.991  51.380  47.524  1.00  0.00     0.009 A 
ENDBRANCH  18  19
ENDBRANCH  15  18
ENDBRANCH  14  15
ENDBRANCH  12  14
ENDBRANCH   1   9
BRANCH   4  25
HETATM   25  N   UNL     1      24.884  42.954  51.401  1.00  0.00    -0.334 N 
HETATM   26  C   UNL     1      26.162  43.373  51.716  1.00  0.00     0.321 C 
HETATM   27  N   UNL     1      26.531  42.927  52.965  1.00  0.00    -0.309 N 
HETATM   28  O   UNL     1      26.816  44.080  50.963  1.00  0.00    -0.247 OA
HETATM   29  H   UNL     1      25.847  42.373  53.456  1.00  0.00     0.170 HD
HETATM   30  H   UNL     1      24.614  42.057  51.781  1.00  0.00     0.164 HD
BRANCH  27  31
HETATM   31  C   UNL     1      27.704  43.240  53.682  1.00  0.00     0.037 A 
HETATM   32  C   UNL     1      27.893  44.428  54.393  1.00  0.00     0.045 A 
HETATM   33  C   UNL     1      29.075  44.654  55.124  1.00  0.00     0.050 A 
HETATM   34  C   UNL     1      30.083  43.679  55.110  1.00  0.00     0.016 A 
HETATM   35  C   UNL     1      29.906  42.497  54.395  1.00  0.00     0.003 A 
HETATM   36  C   UNL     1      28.722  42.279  53.690  1.00  0.00     0.029 A 
BRANCH  33  37
HETATM   37  C   UNL     1      29.271  45.939  55.890  1.00  0.00     0.417 C 
HETATM   38  F   UNL     1      28.809  47.039  55.234  1.00  0.00    -0.166 F 
HETATM   39  F   UNL     1      28.636  45.935  57.096  1.00  0.00    -0.166 F 
HETATM   40  F   UNL     1      30.582  46.186  56.159  1.00  0.00    -0.166 F 
ENDBRANCH  33  37
ENDBRANCH  27  31
ENDBRANCH   4  25
TORSDOF 8
ENDMDL
MODEL 2
REMARK VINA RESULT:      -9.7      1.640      2.360
REMARK  8 active torsions:
REMARK  status: ('A' for Active; 'I' for Inactive)
REMARK    1  A    between atoms: N_2  and  C_4 
REMARK    2  A    between atoms: N_2  and  C_32 
REMARK    3  A    between atoms: C_4  and  C_5 
REMARK    4  A    between atoms: N_8  and  C_9 
REMARK    5  A    between atoms: C_12  and  N_13 
REMARK       I    between atoms: N_13  and  C_14 
REMARK       I    between atoms: C_14  and  N_15 
REMARK    6  A    between atoms: N_15  and  C_16 
REMARK    7  A    between atoms: C_18  and  C_19 
REMARK    8  A    between atoms: C_32  and  C_33 
ROOT
HETATM    1  C   UNL     1      22.698  44.051  49.777  1.00  0.00     0.161 C 
HETATM    2  C   UNL     1      23.970  44.827  49.476  1.00  0.00     0.179 C 
HETATM    3  C   UNL     1      25.079  43.978  50.077  1.00  0.00     0.177 C 
HETATM    4  C   UNL     1      25.515  44.765  51.304  1.00  0.00     0.141 C 
HETATM    5  C   UNL     1      25.148  46.198  50.926  1.00  0.00     0.196 C 
HETATM    6  O   UNL     1      23.951  46.106  50.129  1.00  0.00    -0.379 OA
HETATM    7  O   UNL     1      24.516  42.704  50.438  1.00  0.00    -0.379 OA
HETATM    8  C   UNL     1      23.218  42.625  49.820  1.00  0.00     0.198 C 
ENDROOT
BRANCH   1   9
HETATM    9  N   UNL     1      21.641  44.318  48.831  1.00  0.00    -0.274 N 
HETATM   10  N   UNL     1      21.445  43.549  47.745  1.00  0.00     0.005 NA
HETATM   11  N   UNL     1      20.416  44.043  47.075  1.00  0.00    -0.161 NA
HETATM   12  C   UNL     1      19.951  45.138  47.753  1.00  0.00     0.095 A 
HETATM   13  C   UNL     1      20.710  45.321  48.885  1.00  0.00     0.139 A 
BRANCH  12  14
HETATM   14  C   UNL     1      18.827  45.930  47.196  1.00  0.00     0.296 C 
BRANCH  14  15
HETATM   15  N   UNL     1      18.624  47.241  47.928  1.00  0.00    -0.066 N 
HETATM   16  C   UNL     1      17.306  47.296  48.649  1.00  0.00     0.270 C 
HETATM   17  H   UNL     1      19.348  47.250  48.661  1.00  0.00     0.280 HD
BRANCH  15  18
HETATM   18  C   UNL     1      18.867  48.427  47.036  1.00  0.00     0.273 C 
BRANCH  18  19
HETATM   19  C   UNL     1      19.901  49.378  47.573  1.00  0.00    -0.033 A 
HETATM   20  C   UNL     1      21.243  48.982  47.685  1.00  0.00     0.009 A 
HETATM   21  C   UNL     1      22.195  49.855  48.213  1.00  0.00     0.001 A 
HETATM   22  C   UNL     1      21.818  51.129  48.632  1.00  0.00     0.000 A 
HETATM   23  C   UNL     1      20.491  51.535  48.523  1.00  0.00     0.001 A 
HETATM   24  C   UNL     1      19.534  50.666  47.995  1.00  0.00     0.009 A 
ENDBRANCH  18  19
ENDBRANCH  15  18
ENDBRANCH  14  15
ENDBRANCH  12  14
ENDBRANCH   1   9
BRANCH   4  25
HETATM   25  N   UNL     1      26.891  44.544  51.729  1.00  0.00    -0.334 N 
HETATM   26  C   UNL     1      27.287  44.673  53.047  1.00  0.00     0.321 C 
HETATM   27  N   UNL     1      28.619  44.359  53.192  1.00  0.00    -0.309 N 
HETATM   28  O   UNL     1      26.503  44.986  53.931  1.00  0.00    -0.247 OA
HETATM   29  H   UNL     1      29.104  44.094  52.349  1.00  0.00     0.170 HD
HETATM   30  H   UNL     1      27.598  44.758  51.040  1.00  0.00     0.164 HD
BRANCH  27  31
HETATM   31  C   UNL     1      29.357  44.259  54.388  1.00  0.00     0.037 A 
HETATM   32  C   UNL     1      29.198  45.117  55.480  1.00  0.00     0.045 A 
HETATM   33  C   UNL     1      29.940  44.930  56.661  1.00  0.00     0.050 A 
HETATM   34  C   UNL     1      30.870  43.882  56.725  1.00  0.00     0.016 A 
HETATM   35  C   UNL     1      31.041  43.029  55.638  1.00  0.00     0.003 A 
HETATM   36  C   UNL     1      30.286  43.215  54.479  1.00  0.00     0.029 A 
BRANCH  33  37
HETATM   37  C   UNL     1      29.762  45.860  57.836  1.00  0.00     0.417 C 
HETATM   38  F   UNL     1      30.816  46.700  58.030  1.00  0.00    -0.166 F 
HETATM   39  F   UNL     1      28.668  46.664  57.711  1.00  0.00    -0.166 F 
HETATM   40  F   UNL     1      29.598  45.188  59.008  1.00  0.00    -0.166 F 
ENDBRANCH  33  37
ENDBRANCH  27  31
ENDBRANCH   4  25
TORSDOF 8
ENDMDL
MODEL 3
REMARK VINA RESULT:      -9.1      4.896     11.248
REMARK  8 active torsions:
REMARK  status: ('A' for Active; 'I' for Inactive)
REMARK    1  A    between atoms: N_2  and  C_4 
REMARK    2  A    between atoms: N_2  and  C_32 
REMARK    3  A    between atoms: C_4  and  C_5 
REMARK    4  A    between atoms: N_8  and  C_9 
REMARK    5  A    between atoms: C_12  and  N_13 
REMARK       I    between atoms: N_13  and  C_14 
REMARK       I    between atoms: C_14  and  N_15 
REMARK    6  A    between atoms: N_15  and  C_16 
REMARK    7  A    between atoms: C_18  and  C_19 
REMARK    8  A    between atoms: C_32  and  C_33 
ROOT
HETATM    1  C   UNL     1      24.749  43.562  48.810  1.00  0.00     0.161 C 
HETATM    2  C   UNL     1      24.892  44.565  49.944  1.00  0.00     0.179 C 
HETATM    3  C   UNL     1      23.582  45.337  49.930  1.00  0.00     0.177 C 
HETATM    4  C   UNL     1      23.969  46.700  49.378  1.00  0.00     0.141 C 
HETATM    5  C   UNL     1      25.442  46.809  49.768  1.00  0.00     0.196 C 
HETATM    6  O   UNL     1      25.975  45.472  49.687  1.00  0.00    -0.379 OA
HETATM    7  O   UNL     1      22.672  44.649  49.053  1.00  0.00    -0.379 OA
HETATM    8  C   UNL     1      23.245  43.358  48.775  1.00  0.00     0.198 C 
ENDROOT
BRANCH   1   9
HETATM    9  N   UNL     1      25.552  42.379  49.004  1.00  0.00    -0.274 N 
HETATM   10  N   UNL     1      25.000  41.162  49.164  1.00  0.00     0.005 NA
HETATM   11  N   UNL     1      25.981  40.287  49.323  1.00  0.00    -0.161 NA
HETATM   12  C   UNL     1      27.170  40.962  49.255  1.00  0.00     0.095 A 
HETATM   13  C   UNL     1      26.919  42.296  49.035  1.00  0.00     0.139 A 
BRANCH  12  14
HETATM   14  C   UNL     1      28.446  40.232  49.457  1.00  0.00     0.296 C 
BRANCH  14  15
HETATM   15  N   UNL     1      28.920  40.283  50.895  1.00  0.00    -0.066 N 
HETATM   16  C   UNL     1      29.469  38.965  51.365  1.00  0.00     0.270 C 
HETATM   17  H   UNL     1      29.717  40.936  50.888  1.00  0.00     0.280 HD
BRANCH  15  18
HETATM   18  C   UNL     1      27.875  40.857  51.813  1.00  0.00     0.273 C 
BRANCH  18  19
HETATM   19  C   UNL     1      28.410  41.901  52.753  1.00  0.00    -0.033 A 
HETATM   20  C   UNL     1      29.793  42.098  52.885  1.00  0.00     0.009 A 
HETATM   21  C   UNL     1      30.289  43.045  53.782  1.00  0.00     0.001 A 
HETATM   22  C   UNL     1      29.411  43.804  54.552  1.00  0.00     0.000 A 
HETATM   23  C   UNL     1      28.036  43.620  54.427  1.00  0.00     0.001 A 
HETATM   24  C   UNL     1      27.535  42.674  53.531  1.00  0.00     0.009 A 
ENDBRANCH  18  19
ENDBRANCH  15  18
ENDBRANCH  14  15
ENDBRANCH  12  14
ENDBRANCH   1   9
BRANCH   4  25
HETATM   25  N   UNL     1      23.112  47.805  49.790  1.00  0.00    -0.334 N 
HETATM   26  C   UNL     1      22.214  48.403  48.928  1.00  0.00     0.321 C 
HETATM   27  N   UNL     1      21.490  49.380  49.574  1.00  0.00    -0.309 N 
HETATM   28  O   UNL     1      22.092  48.042  47.766  1.00  0.00    -0.247 OA
HETATM   29  H   UNL     1      21.711  49.522  50.547  1.00  0.00     0.170 HD
HETATM   30  H   UNL     1      23.494  48.406  50.507  1.00  0.00     0.164 HD
BRANCH  27  31
HETATM   31  C   UNL     1      20.408  50.129  49.069  1.00  0.00     0.037 A 
HETATM   32  C   UNL     1      19.138  49.600  48.823  1.00  0.00     0.045 A 
HETATM   33  C   UNL     1      18.090  50.419  48.361  1.00  0.00     0.050 A 
HETATM   34  C   UNL     1      18.341  51.777  48.119  1.00  0.00     0.016 A 
HETATM   35  C   UNL     1      19.607  52.309  48.352  1.00  0.00     0.003 A 
HETATM   36  C   UNL     1      20.632  51.490  48.828  1.00  0.00     0.029 A 
BRANCH  33  37
HETATM   37  C   UNL     1      16.721  49.840  48.099  1.00  0.00     0.417 C 
HETATM   38  F   UNL     1      15.718  50.514  48.726  1.00  0.00    -0.166 F 
HETATM   39  F   UNL     1      16.394  49.839  46.776  1.00  0.00    -0.166 F 
HETATM   40  F   UNL     1      16.619  48.547  48.510  1.00  0.00    -0.166 F 
ENDBRANCH  33  37
ENDBRANCH  27  31
ENDBRANCH   4  25
TORSDOF 8
ENDMDL
MODEL 4
REMARK VINA RESULT:      -8.9     14.105     14.978
REMARK  8 active torsions:
REMARK  status: ('A' for Active; 'I' for Inactive)
REMARK    1  A    between atoms: N_2  and  C_4 
REMARK    2  A    between atoms: N_2  and  C_32 
REMARK    3  A    between atoms: C_4  and  C_5 
REMARK    4  A    between atoms: N_8  and  C_9 
REMARK    5  A    between atoms: C_12  and  N_13 
REMARK       I    between atoms: N_13  and  C_14 
REMARK       I    between atoms: C_14  and  N_15 
REMARK    6  A    between atoms: N_15  and  C_16 
REMARK    7  A    between atoms: C_18  and  C_19 
REMARK    8  A    between atoms: C_32  and  C_33 
ROOT
HETATM    1  C   UNL     1      32.355  50.959  41.078  1.00  0.00     0.161 C 
HETATM    2  C   UNL     1      33.293  50.160  41.968  1.00  0.00     0.179 C 
HETATM    3  C   UNL     1      33.648  51.117  43.095  1.00  0.00     0.177 C 
HETATM    4  C   UNL     1      35.093  51.496  42.808  1.00  0.00     0.141 C 
HETATM    5  C   UNL     1      35.605  50.284  42.032  1.00  0.00     0.196 C 
HETATM    6  O   UNL     1      34.489  49.805  41.257  1.00  0.00    -0.379 OA
HETATM    7  O   UNL     1      32.773  52.254  43.002  1.00  0.00    -0.379 OA
HETATM    8  C   UNL     1      31.722  51.907  42.082  1.00  0.00     0.198 C 
ENDROOT
BRANCH   1   9
HETATM    9  N   UNL     1      31.448  50.125  40.327  1.00  0.00    -0.274 N 
HETATM   10  N   UNL     1      31.560  49.969  38.996  1.00  0.00     0.005 NA
HETATM   11  N   UNL     1      30.592  49.158  38.596  1.00  0.00    -0.161 NA
HETATM   12  C   UNL     1      29.862  48.792  39.695  1.00  0.00     0.095 A 
HETATM   13  C   UNL     1      30.402  49.385  40.813  1.00  0.00     0.139 A 
BRANCH  12  14
HETATM   14  C   UNL     1      28.671  47.923  39.534  1.00  0.00     0.296 C 
BRANCH  14  15
HETATM   15  N   UNL     1      27.412  48.558  40.088  1.00  0.00    -0.066 N 
HETATM   16  C   UNL     1      26.344  47.545  40.392  1.00  0.00     0.270 C 
HETATM   17  H   UNL     1      27.693  48.955  40.996  1.00  0.00     0.280 HD
BRANCH  15  18
HETATM   18  C   UNL     1      26.930  49.695  39.227  1.00  0.00     0.273 C 
BRANCH  18  19
HETATM   19  C   UNL     1      27.596  51.006  39.540  1.00  0.00    -0.033 A 
HETATM   20  C   UNL     1      28.223  51.746  38.525  1.00  0.00     0.009 A 
HETATM   21  C   UNL     1      28.868  52.947  38.823  1.00  0.00     0.001 A 
HETATM   22  C   UNL     1      28.890  53.422  40.133  1.00  0.00     0.000 A 
HETATM   23  C   UNL     1      28.268  52.699  41.147  1.00  0.00     0.001 A 
HETATM   24  C   UNL     1      27.621  51.497  40.855  1.00  0.00     0.009 A 
ENDBRANCH  18  19
ENDBRANCH  15  18
ENDBRANCH  14  15
ENDBRANCH  12  14
ENDBRANCH   1   9
BRANCH   4  25
HETATM   25  N   UNL     1      35.876  51.893  43.971  1.00  0.00    -0.334 N 
HETATM   26  C   UNL     1      36.865  52.855  43.902  1.00  0.00     0.321 C 
HETATM   27  N   UNL     1      37.414  53.085  45.143  1.00  0.00    -0.309 N 
HETATM   28  O   UNL     1      37.144  53.423  42.856  1.00  0.00    -0.247 OA
HETATM   29  H   UNL     1      37.037  52.537  45.900  1.00  0.00     0.170 HD
HETATM   30  H   UNL     1      36.016  51.173  44.665  1.00  0.00     0.164 HD
BRANCH  27  31
HETATM   31  C   UNL     1      38.361  54.066  45.500  1.00  0.00     0.037 A 
HETATM   32  C   UNL     1      38.256  55.416  45.158  1.00  0.00     0.045 A 
HETATM   33  C   UNL     1      39.219  56.349  45.587  1.00  0.00     0.050 A 
HETATM   34  C   UNL     1      40.310  55.903  46.346  1.00  0.00     0.016 A 
HETATM   35  C   UNL     1      40.427  54.556  46.683  1.00  0.00     0.003 A 
HETATM   36  C   UNL     1      39.456  53.646  46.265  1.00  0.00     0.029 A 
BRANCH  33  37
HETATM   37  C   UNL     1      39.098  57.806  45.214  1.00  0.00     0.417 C 
HETATM   38  F   UNL     1      39.865  58.159  44.146  1.00  0.00    -0.166 F 
HETATM   39  F   UNL     1      37.824  58.162  44.888  1.00  0.00    -0.166 F 
HETATM   40  F   UNL     1      39.468  58.632  46.230  1.00  0.00    -0.166 F 
ENDBRANCH  33  37
ENDBRANCH  27  31
ENDBRANCH   4  25
TORSDOF 8
ENDMDL
MODEL 5
REMARK VINA RESULT:      -8.8     13.850     14.782
REMARK  8 active torsions:
REMARK  status: ('A' for Active; 'I' for Inactive)
REMARK    1  A    between atoms: N_2  and  C_4 
REMARK    2  A    between atoms: N_2  and  C_32 
REMARK    3  A    between atoms: C_4  and  C_5 
REMARK    4  A    between atoms: N_8  and  C_9 
REMARK    5  A    between atoms: C_12  and  N_13 
REMARK       I    between atoms: N_13  and  C_14 
REMARK       I    between atoms: C_14  and  N_15 
REMARK    6  A    between atoms: N_15  and  C_16 
REMARK    7  A    between atoms: C_18  and  C_19 
REMARK    8  A    between atoms: C_32  and  C_33 
ROOT
HETATM    1  C   UNL     1      32.397  50.987  41.094  1.00  0.00     0.161 C 
HETATM    2  C   UNL     1      33.352  50.191  41.969  1.00  0.00     0.179 C 
HETATM    3  C   UNL     1      33.667  51.125  43.128  1.00  0.00     0.177 C 
HETATM    4  C   UNL     1      35.102  51.558  42.866  1.00  0.00     0.141 C 
HETATM    5  C   UNL     1      35.659  50.385  42.061  1.00  0.00     0.196 C 
HETATM    6  O   UNL     1      34.565  49.895  41.261  1.00  0.00    -0.379 OA
HETATM    7  O   UNL     1      32.758  52.238  43.059  1.00  0.00    -0.379 OA
HETATM    8  C   UNL     1      31.727  51.886  42.119  1.00  0.00     0.198 C 
ENDROOT
BRANCH   1   9
HETATM    9  N   UNL     1      31.524  50.148  40.310  1.00  0.00    -0.274 N 
HETATM   10  N   UNL     1      31.652  50.035  38.976  1.00  0.00     0.005 NA
HETATM   11  N   UNL     1      30.714  49.207  38.544  1.00  0.00    -0.161 NA
HETATM   12  C   UNL     1      29.986  48.786  39.624  1.00  0.00     0.095 A 
HETATM   13  C   UNL     1      30.497  49.362  40.764  1.00  0.00     0.139 A 
BRANCH  12  14
HETATM   14  C   UNL     1      28.824  47.885  39.426  1.00  0.00     0.296 C 
BRANCH  14  15
HETATM   15  N   UNL     1      27.546  48.453  40.009  1.00  0.00    -0.066 N 
HETATM   16  C   UNL     1      26.515  47.392  40.275  1.00  0.00     0.270 C 
HETATM   17  H   UNL     1      27.817  48.823  40.932  1.00  0.00     0.280 HD
BRANCH  15  18
HETATM   18  C   UNL     1      27.021  49.606  39.197  1.00  0.00     0.273 C 
BRANCH  18  19
HETATM   19  C   UNL     1      27.660  50.923  39.543  1.00  0.00    -0.033 A 
HETATM   20  C   UNL     1      27.636  51.401  40.862  1.00  0.00     0.009 A 
HETATM   21  C   UNL     1      28.203  52.637  41.175  1.00  0.00     0.001 A 
HETATM   22  C   UNL     1      28.797  53.406  40.176  1.00  0.00     0.000 A 
HETATM   23  C   UNL     1      28.829  52.940  38.864  1.00  0.00     0.001 A 
HETATM   24  C   UNL     1      28.265  51.704  38.546  1.00  0.00     0.009 A 
ENDBRANCH  18  19
ENDBRANCH  15  18
ENDBRANCH  14  15
ENDBRANCH  12  14
ENDBRANCH   1   9
BRANCH   4  25
HETATM   25  N   UNL     1      35.861  51.944  44.048  1.00  0.00    -0.334 N 
HETATM   26  C   UNL     1      36.837  52.922  44.011  1.00  0.00     0.321 C 
HETATM   27  N   UNL     1      37.364  53.136  45.264  1.00  0.00    -0.309 N 
HETATM   28  O   UNL     1      37.123  53.514  42.980  1.00  0.00    -0.247 OA
HETATM   29  H   UNL     1      36.984  52.569  46.006  1.00  0.00     0.170 HD
HETATM   30  H   UNL     1      36.003  51.213  44.731  1.00  0.00     0.164 HD
BRANCH  27  31
HETATM   31  C   UNL     1      38.291  54.124  45.654  1.00  0.00     0.037 A 
HETATM   32  C   UNL     1      39.378  53.888  46.499  1.00  0.00     0.045 A 
HETATM   33  C   UNL     1      40.290  54.914  46.810  1.00  0.00     0.050 A 
HETATM   34  C   UNL     1      40.080  56.196  46.283  1.00  0.00     0.016 A 
HETATM   35  C   UNL     1      38.993  56.443  45.448  1.00  0.00     0.003 A 
HETATM   36  C   UNL     1      38.107  55.411  45.134  1.00  0.00     0.029 A 
BRANCH  33  37
HETATM   37  C   UNL     1      41.462  54.650  47.723  1.00  0.00     0.417 C 
HETATM   38  F   UNL     1      42.369  53.777  47.203  1.00  0.00    -0.166 F 
HETATM   39  F   UNL     1      42.165  55.779  48.018  1.00  0.00    -0.166 F 
HETATM   40  F   UNL     1      41.080  54.125  48.918  1.00  0.00    -0.166 F 
ENDBRANCH  33  37
ENDBRANCH  27  31
ENDBRANCH   4  25
TORSDOF 8
ENDMDL
MODEL 6
REMARK VINA RESULT:      -8.8      1.611      2.193
REMARK  8 active torsions:
REMARK  status: ('A' for Active; 'I' for Inactive)
REMARK    1  A    between atoms: N_2  and  C_4 
REMARK    2  A    between atoms: N_2  and  C_32 
REMARK    3  A    between atoms: C_4  and  C_5 
REMARK    4  A    between atoms: N_8  and  C_9 
REMARK    5  A    between atoms: C_12  and  N_13 
REMARK       I    between atoms: N_13  and  C_14 
REMARK       I    between atoms: C_14  and  N_15 
REMARK    6  A    between atoms: N_15  and  C_16 
REMARK    7  A    between atoms: C_18  and  C_19 
REMARK    8  A    between atoms: C_32  and  C_33 
ROOT
HETATM    1  C   UNL     1      22.157  44.710  49.426  1.00  0.00     0.161 C 
HETATM    2  C   UNL     1      23.484  45.379  49.105  1.00  0.00     0.179 C 
HETATM    3  C   UNL     1      24.531  44.410  49.631  1.00  0.00     0.177 C 
HETATM    4  C   UNL     1      25.080  45.104  50.868  1.00  0.00     0.141 C 
HETATM    5  C   UNL     1      24.833  46.579  50.556  1.00  0.00     0.196 C 
HETATM    6  O   UNL     1      23.606  46.628  49.803  1.00  0.00    -0.379 OA
HETATM    7  O   UNL     1      23.866  43.179  49.966  1.00  0.00    -0.379 OA
HETATM    8  C   UNL     1      22.546  43.242  49.397  1.00  0.00     0.198 C 
ENDROOT
BRANCH   1   9
HETATM    9  N   UNL     1      21.097  45.109  48.532  1.00  0.00    -0.274 N 
HETATM   10  N   UNL     1      20.509  44.240  47.690  1.00  0.00     0.005 NA
HETATM   11  N   UNL     1      19.586  44.896  47.004  1.00  0.00    -0.161 NA
HETATM   12  C   UNL     1      19.588  46.199  47.425  1.00  0.00     0.095 A 
HETATM   13  C   UNL     1      20.534  46.352  48.412  1.00  0.00     0.139 A 
BRANCH  12  14
HETATM   14  C   UNL     1      18.684  47.184  46.782  1.00  0.00     0.296 C 
BRANCH  14  15
HETATM   15  N   UNL     1      17.923  48.016  47.794  1.00  0.00    -0.066 N 
HETATM   16  C   UNL     1      16.945  47.199  48.591  1.00  0.00     0.270 C 
HETATM   17  H   UNL     1      18.636  48.337  48.464  1.00  0.00     0.280 HD
BRANCH  15  18
HETATM   18  C   UNL     1      17.308  49.239  47.169  1.00  0.00     0.273 C 
BRANCH  18  19
HETATM   19  C   UNL     1      17.138  50.382  48.130  1.00  0.00    -0.033 A 
HETATM   20  C   UNL     1      18.250  50.939  48.779  1.00  0.00     0.009 A 
HETATM   21  C   UNL     1      18.086  51.979  49.695  1.00  0.00     0.001 A 
HETATM   22  C   UNL     1      16.813  52.473  49.970  1.00  0.00     0.000 A 
HETATM   23  C   UNL     1      15.702  51.931  49.330  1.00  0.00     0.001 A 
HETATM   24  C   UNL     1      15.860  50.892  48.412  1.00  0.00     0.009 A 
ENDBRANCH  18  19
ENDBRANCH  15  18
ENDBRANCH  14  15
ENDBRANCH  12  14
ENDBRANCH   1   9
BRANCH   4  25
HETATM   25  N   UNL     1      26.444  44.744  51.230  1.00  0.00    -0.334 N 
HETATM   26  C   UNL     1      26.910  44.828  52.528  1.00  0.00     0.321 C 
HETATM   27  N   UNL     1      28.209  44.380  52.614  1.00  0.00    -0.309 N 
HETATM   28  O   UNL     1      26.203  45.218  53.446  1.00  0.00    -0.247 OA
HETATM   29  H   UNL     1      28.626  44.069  51.750  1.00  0.00     0.170 HD
HETATM   30  H   UNL     1      27.137  44.887  50.509  1.00  0.00     0.164 HD
BRANCH  27  31
HETATM   31  C   UNL     1      28.986  44.202  53.776  1.00  0.00     0.037 A 
HETATM   32  C   UNL     1      28.964  45.068  54.872  1.00  0.00     0.045 A 
HETATM   33  C   UNL     1      29.736  44.804  56.019  1.00  0.00     0.050 A 
HETATM   34  C   UNL     1      30.557  43.667  56.043  1.00  0.00     0.016 A 
HETATM   35  C   UNL     1      30.593  42.805  54.949  1.00  0.00     0.003 A 
HETATM   36  C   UNL     1      29.809  43.070  53.826  1.00  0.00     0.029 A 
BRANCH  33  37
HETATM   37  C   UNL     1      29.705  45.743  57.200  1.00  0.00     0.417 C 
HETATM   38  F   UNL     1      28.536  46.432  57.316  1.00  0.00    -0.166 F 
HETATM   39  F   UNL     1      29.874  45.100  58.390  1.00  0.00    -0.166 F 
HETATM   40  F   UNL     1      30.688  46.681  57.140  1.00  0.00    -0.166 F 
ENDBRANCH  33  37
ENDBRANCH  27  31
ENDBRANCH   4  25
TORSDOF 8
ENDMDL
MODEL 7
REMARK VINA RESULT:      -8.6      2.899      4.318
REMARK  8 active torsions:
REMARK  status: ('A' for Active; 'I' for Inactive)
REMARK    1  A    between atoms: N_2  and  C_4 
REMARK    2  A    between atoms: N_2  and  C_32 
REMARK    3  A    between atoms: C_4  and  C_5 
REMARK    4  A    between atoms: N_8  and  C_9 
REMARK    5  A    between atoms: C_12  and  N_13 
REMARK       I    between atoms: N_13  and  C_14 
REMARK       I    between atoms: C_14  and  N_15 
REMARK    6  A    between atoms: N_15  and  C_16 
REMARK    7  A    between atoms: C_18  and  C_19 
REMARK    8  A    between atoms: C_32  and  C_33 
ROOT
HETATM    1  C   UNL     1      20.713  47.639  48.822  1.00  0.00     0.161 C 
HETATM    2  C   UNL     1      22.126  47.872  48.314  1.00  0.00     0.179 C 
HETATM    3  C   UNL     1      22.788  46.505  48.403  1.00  0.00     0.177 C 
HETATM    4  C   UNL     1      23.749  46.642  49.574  1.00  0.00     0.141 C 
HETATM    5  C   UNL     1      24.044  48.141  49.586  1.00  0.00     0.196 C 
HETATM    6  O   UNL     1      22.828  48.790  49.167  1.00  0.00    -0.379 OA
HETATM    7  O   UNL     1      21.762  45.534  48.671  1.00  0.00    -0.379 OA
HETATM    8  C   UNL     1      20.495  46.182  48.452  1.00  0.00     0.198 C 
ENDROOT
BRANCH   1   9
HETATM    9  N   UNL     1      19.762  48.584  48.288  1.00  0.00    -0.274 N 
HETATM   10  N   UNL     1      18.597  48.191  47.740  1.00  0.00     0.005 NA
HETATM   11  N   UNL     1      17.949  49.274  47.340  1.00  0.00    -0.161 NA
HETATM   12  C   UNL     1      18.714  50.367  47.647  1.00  0.00     0.095 A 
HETATM   13  C   UNL     1      19.868  49.950  48.267  1.00  0.00     0.139 A 
BRANCH  12  14
HETATM   14  C   UNL     1      18.253  51.723  47.259  1.00  0.00     0.296 C 
BRANCH  14  15
HETATM   15  N   UNL     1      17.440  52.392  48.349  1.00  0.00    -0.066 N 
HETATM   16  C   UNL     1      18.145  52.384  49.677  1.00  0.00     0.270 C 
HETATM   17  H   UNL     1      17.380  53.380  48.066  1.00  0.00     0.280 HD
BRANCH  15  18
HETATM   18  C   UNL     1      16.037  51.854  48.415  1.00  0.00     0.273 C 
BRANCH  18  19
HETATM   19  C   UNL     1      15.045  52.835  48.977  1.00  0.00    -0.033 A 
HETATM   20  C   UNL     1      14.517  53.855  48.171  1.00  0.00     0.009 A 
HETATM   21  C   UNL     1      13.621  54.783  48.703  1.00  0.00     0.001 A 
HETATM   22  C   UNL     1      13.244  54.701  50.041  1.00  0.00     0.000 A 
HETATM   23  C   UNL     1      13.758  53.691  50.850  1.00  0.00     0.001 A 
HETATM   24  C   UNL     1      14.654  52.760  50.323  1.00  0.00     0.009 A 
ENDBRANCH  18  19
ENDBRANCH  15  18
ENDBRANCH  14  15
ENDBRANCH  12  14
ENDBRANCH   1   9
BRANCH   4  25
HETATM   25  N   UNL     1      24.907  45.759  49.535  1.00  0.00    -0.334 N 
HETATM   26  C   UNL     1      25.375  45.104  50.658  1.00  0.00     0.321 C 
HETATM   27  N   UNL     1      26.441  44.292  50.344  1.00  0.00    -0.309 N 
HETATM   28  O   UNL     1      24.843  45.234  51.751  1.00  0.00    -0.247 OA
HETATM   29  H   UNL     1      26.727  44.293  49.377  1.00  0.00     0.170 HD
HETATM   30  H   UNL     1      25.607  45.992  48.844  1.00  0.00     0.164 HD
BRANCH  27  31
HETATM   31  C   UNL     1      27.111  43.383  51.187  1.00  0.00     0.037 A 
HETATM   32  C   UNL     1      28.039  43.757  52.163  1.00  0.00     0.045 A 
HETATM   33  C   UNL     1      28.637  42.796  53.000  1.00  0.00     0.050 A 
HETATM   34  C   UNL     1      28.312  41.443  52.826  1.00  0.00     0.016 A 
HETATM   35  C   UNL     1      27.396  41.061  51.849  1.00  0.00     0.003 A 
HETATM   36  C   UNL     1      26.798  42.026  51.038  1.00  0.00     0.029 A 
BRANCH  33  37
HETATM   37  C   UNL     1      29.637  43.209  54.052  1.00  0.00     0.417 C 
HETATM   38  F   UNL     1      29.516  44.510  54.436  1.00  0.00    -0.166 F 
HETATM   39  F   UNL     1      29.532  42.475  55.195  1.00  0.00    -0.166 F 
HETATM   40  F   UNL     1      30.922  43.062  53.630  1.00  0.00    -0.166 F 
ENDBRANCH  33  37
ENDBRANCH  27  31
ENDBRANCH   4  25
TORSDOF 8
ENDMDL
MODEL 8
REMARK VINA RESULT:      -8.4      8.029      9.953
REMARK  8 active torsions:
REMARK  status: ('A' for Active; 'I' for Inactive)
REMARK    1  A    between atoms: N_2  and  C_4 
REMARK    2  A    between atoms: N_2  and  C_32 
REMARK    3  A    between atoms: C_4  and  C_5 
REMARK    4  A    between atoms: N_8  and  C_9 
REMARK    5  A    between atoms: C_12  and  N_13 
REMARK       I    between atoms: N_13  and  C_14 
REMARK       I    between atoms: C_14  and  N_15 
REMARK    6  A    between atoms: N_15  and  C_16 
REMARK    7  A    between atoms: C_18  and  C_19 
REMARK    8  A    between atoms: C_32  and  C_33 
ROOT
HETATM    1  C   UNL     1      27.437  37.885  48.874  1.00  0.00     0.161 C 
HETATM    2  C   UNL     1      27.080  39.362  48.835  1.00  0.00     0.179 C 
HETATM    3  C   UNL     1      28.309  40.060  49.396  1.00  0.00     0.177 C 
HETATM    4  C   UNL     1      27.865  40.528  50.774  1.00  0.00     0.141 C 
HETATM    5  C   UNL     1      26.354  40.673  50.602  1.00  0.00     0.196 C 
HETATM    6  O   UNL     1      25.955  39.635  49.685  1.00  0.00    -0.379 OA
HETATM    7  O   UNL     1      29.368  39.091  49.481  1.00  0.00    -0.379 OA
HETATM    8  C   UNL     1      28.948  37.936  48.732  1.00  0.00     0.198 C 
ENDROOT
BRANCH   1   9
HETATM    9  N   UNL     1      26.727  37.110  47.884  1.00  0.00    -0.274 N 
HETATM   10  N   UNL     1      26.962  37.250  46.567  1.00  0.00     0.005 NA
HETATM   11  N   UNL     1      26.163  36.417  45.919  1.00  0.00    -0.161 NA
HETATM   12  C   UNL     1      25.416  35.736  46.843  1.00  0.00     0.095 A 
HETATM   13  C   UNL     1      25.773  36.152  48.104  1.00  0.00     0.139 A 
BRANCH  12  14
HETATM   14  C   UNL     1      24.387  34.768  46.392  1.00  0.00     0.296 C 
BRANCH  14  15
HETATM   15  N   UNL     1      22.991  35.160  46.832  1.00  0.00    -0.066 N 
HETATM   16  C   UNL     1      22.748  36.639  46.718  1.00  0.00     0.270 C 
HETATM   17  H   UNL     1      22.363  34.716  46.147  1.00  0.00     0.280 HD
BRANCH  15  18
HETATM   18  C   UNL     1      22.650  34.601  48.187  1.00  0.00     0.273 C 
BRANCH  18  19
HETATM   19  C   UNL     1      21.171  34.488  48.433  1.00  0.00    -0.033 A 
HETATM   20  C   UNL     1      20.619  34.902  49.655  1.00  0.00     0.009 A 
HETATM   21  C   UNL     1      19.250  34.766  49.893  1.00  0.00     0.001 A 
HETATM   22  C   UNL     1      18.422  34.219  48.916  1.00  0.00     0.000 A 
HETATM   23  C   UNL     1      18.958  33.808  47.698  1.00  0.00     0.001 A 
HETATM   24  C   UNL     1      20.326  33.942  47.454  1.00  0.00     0.009 A 
ENDBRANCH  18  19
ENDBRANCH  15  18
ENDBRANCH  14  15
ENDBRANCH  12  14
ENDBRANCH   1   9
BRANCH   4  25
HETATM   25  N   UNL     1      28.568  41.694  51.292  1.00  0.00    -0.334 N 
HETATM   26  C   UNL     1      28.442  42.110  52.603  1.00  0.00     0.321 C 
HETATM   27  N   UNL     1      29.247  43.197  52.853  1.00  0.00    -0.309 N 
HETATM   28  O   UNL     1      27.726  41.524  53.402  1.00  0.00    -0.247 OA
HETATM   29  H   UNL     1      29.793  43.531  52.074  1.00  0.00     0.170 HD
HETATM   30  H   UNL     1      28.750  42.426  50.619  1.00  0.00     0.164 HD
BRANCH  27  31
HETATM   31  C   UNL     1      29.483  43.832  54.090  1.00  0.00     0.037 A 
HETATM   32  C   UNL     1      30.383  43.365  55.050  1.00  0.00     0.045 A 
HETATM   33  C   UNL     1      30.600  44.076  56.246  1.00  0.00     0.050 A 
HETATM   34  C   UNL     1      29.876  45.254  56.480  1.00  0.00     0.016 A 
HETATM   35  C   UNL     1      28.969  45.721  55.532  1.00  0.00     0.003 A 
HETATM   36  C   UNL     1      28.777  45.015  54.343  1.00  0.00     0.029 A 
BRANCH  33  37
HETATM   37  C   UNL     1      31.575  43.565  57.278  1.00  0.00     0.417 C 
HETATM   38  F   UNL     1      31.266  42.327  57.753  1.00  0.00    -0.166 F 
HETATM   39  F   UNL     1      32.847  43.469  56.798  1.00  0.00    -0.166 F 
HETATM   40  F   UNL     1      31.647  44.377  58.367  1.00  0.00    -0.166 F 
ENDBRANCH  33  37
ENDBRANCH  27  31
ENDBRANCH   4  25
TORSDOF 8
ENDMDL
MODEL 9
REMARK VINA RESULT:      -8.3      2.374      4.340
REMARK  8 active torsions:
REMARK  status: ('A' for Active; 'I' for Inactive)
REMARK    1  A    between atoms: N_2  and  C_4 
REMARK    2  A    between atoms: N_2  and  C_32 
REMARK    3  A    between atoms: C_4  and  C_5 
REMARK    4  A    between atoms: N_8  and  C_9 
REMARK    5  A    between atoms: C_12  and  N_13 
REMARK       I    between atoms: N_13  and  C_14 
REMARK       I    between atoms: C_14  and  N_15 
REMARK    6  A    between atoms: N_15  and  C_16 
REMARK    7  A    between atoms: C_18  and  C_19 
REMARK    8  A    between atoms: C_32  and  C_33 
ROOT
HETATM    1  C   UNL     1      22.701  45.231  48.183  1.00  0.00     0.161 C 
HETATM    2  C   UNL     1      22.363  44.183  49.232  1.00  0.00     0.179 C 
HETATM    3  C   UNL     1      23.391  44.406  50.330  1.00  0.00     0.177 C 
HETATM    4  C   UNL     1      24.326  43.213  50.200  1.00  0.00     0.141 C 
HETATM    5  C   UNL     1      23.424  42.152  49.573  1.00  0.00     0.196 C 
HETATM    6  O   UNL     1      22.524  42.860  48.698  1.00  0.00    -0.379 OA
HETATM    7  O   UNL     1      24.071  45.643  50.057  1.00  0.00    -0.379 OA
HETATM    8  C   UNL     1      23.317  46.325  49.038  1.00  0.00     0.198 C 
ENDROOT
BRANCH   1   9
HETATM    9  N   UNL     1      21.563  45.609  47.381  1.00  0.00    -0.274 N 
HETATM   10  N   UNL     1      21.696  46.306  46.238  1.00  0.00     0.005 NA
HETATM   11  N   UNL     1      20.487  46.503  45.737  1.00  0.00    -0.161 NA
HETATM   12  C   UNL     1      19.577  45.915  46.574  1.00  0.00     0.095 A 
HETATM   13  C   UNL     1      20.244  45.324  47.621  1.00  0.00     0.139 A 
BRANCH  12  14
HETATM   14  C   UNL     1      18.127  46.029  46.284  1.00  0.00     0.296 C 
BRANCH  14  15
HETATM   15  N   UNL     1      17.785  45.612  44.868  1.00  0.00    -0.066 N 
HETATM   16  C   UNL     1      17.199  46.738  44.063  1.00  0.00     0.270 C 
HETATM   17  H   UNL     1      18.692  45.393  44.430  1.00  0.00     0.280 HD
BRANCH  15  18
HETATM   18  C   UNL     1      16.953  44.358  44.835  1.00  0.00     0.273 C 
BRANCH  18  19
HETATM   19  C   UNL     1      17.626  43.211  44.134  1.00  0.00    -0.033 A 
HETATM   20  C   UNL     1      16.942  42.476  43.153  1.00  0.00     0.009 A 
HETATM   21  C   UNL     1      17.557  41.392  42.526  1.00  0.00     0.001 A 
HETATM   22  C   UNL     1      18.859  41.033  42.870  1.00  0.00     0.000 A 
HETATM   23  C   UNL     1      19.549  41.757  43.838  1.00  0.00     0.001 A 
HETATM   24  C   UNL     1      18.939  42.842  44.468  1.00  0.00     0.009 A 
ENDBRANCH  18  19
ENDBRANCH  15  18
ENDBRANCH  14  15
ENDBRANCH  12  14
ENDBRANCH   1   9
BRANCH   4  25
HETATM   25  N   UNL     1      25.019  42.827  51.422  1.00  0.00    -0.334 N 
HETATM   26  C   UNL     1      26.271  43.312  51.746  1.00  0.00     0.321 C 
HETATM   27  N   UNL     1      26.678  42.839  52.973  1.00  0.00    -0.309 N 
HETATM   28  O   UNL     1      26.873  44.089  51.018  1.00  0.00    -0.247 OA
HETATM   29  H   UNL     1      26.034  42.225  53.445  1.00  0.00     0.170 HD
HETATM   30  H   UNL     1      24.808  41.901  51.766  1.00  0.00     0.164 HD
BRANCH  27  31
HETATM   31  C   UNL     1      27.836  43.195  53.694  1.00  0.00     0.037 A 
HETATM   32  C   UNL     1      27.998  44.411  54.363  1.00  0.00     0.045 A 
HETATM   33  C   UNL     1      29.166  44.681  55.102  1.00  0.00     0.050 A 
HETATM   34  C   UNL     1      30.187  43.721  55.139  1.00  0.00     0.016 A 
HETATM   35  C   UNL     1      30.037  42.510  54.466  1.00  0.00     0.003 A 
HETATM   36  C   UNL     1      28.867  42.249  53.752  1.00  0.00     0.029 A 
BRANCH  33  37
HETATM   37  C   UNL     1      29.333  45.996  55.823  1.00  0.00     0.417 C 
HETATM   38  F   UNL     1      29.086  47.081  55.038  1.00  0.00    -0.166 F 
HETATM   39  F   UNL     1      28.500  46.119  56.895  1.00  0.00    -0.166 F 
HETATM   40  F   UNL     1      30.593  46.163  56.308  1.00  0.00    -0.166 F 
ENDBRANCH  33  37
ENDBRANCH  27  31
ENDBRANCH   4  25
TORSDOF 8
ENDMDL
MODEL 10
REMARK VINA RESULT:      -8.2      2.999      4.270
REMARK  8 active torsions:
REMARK  status: ('A' for Active; 'I' for Inactive)
REMARK    1  A    between atoms: N_2  and  C_4 
REMARK    2  A    between atoms: N_2  and  C_32 
REMARK    3  A    between atoms: C_4  and  C_5 
REMARK    4  A    between atoms: N_8  and  C_9 
REMARK    5  A    between atoms: C_12  and  N_13 
REMARK       I    between atoms: N_13  and  C_14 
REMARK       I    between atoms: C_14  and  N_15 
REMARK    6  A    between atoms: N_15  and  C_16 
REMARK    7  A    between atoms: C_18  and  C_19 
REMARK    8  A    between atoms: C_32  and  C_33 
ROOT
HETATM    1  C   UNL     1      20.121  47.019  48.859  1.00  0.00     0.161 C 
HETATM    2  C   UNL     1      21.437  47.449  48.232  1.00  0.00     0.179 C 
HETATM    3  C   UNL     1      22.288  46.188  48.241  1.00  0.00     0.177 C 
HETATM    4  C   UNL     1      23.322  46.455  49.325  1.00  0.00     0.141 C 
HETATM    5  C   UNL     1      23.405  47.979  49.334  1.00  0.00     0.196 C 
HETATM    6  O   UNL     1      22.079  48.454  49.033  1.00  0.00    -0.379 OA
HETATM    7  O   UNL     1      21.435  45.082  48.584  1.00  0.00    -0.379 OA
HETATM    8  C   UNL     1      20.076  45.547  48.487  1.00  0.00     0.198 C 
ENDROOT
BRANCH   1   9
HETATM    9  N   UNL     1      19.004  47.824  48.425  1.00  0.00    -0.274 N 
HETATM   10  N   UNL     1      17.986  48.133  49.247  1.00  0.00     0.005 NA
HETATM   11  N   UNL     1      17.121  48.869  48.568  1.00  0.00    -0.161 NA
HETATM   12  C   UNL     1      17.605  49.033  47.297  1.00  0.00     0.095 A 
HETATM   13  C   UNL     1      18.815  48.387  47.190  1.00  0.00     0.139 A 
BRANCH  12  14
HETATM   14  C   UNL     1      16.807  49.777  46.293  1.00  0.00     0.296 C 
BRANCH  14  15
HETATM   15  N   UNL     1      17.504  51.034  45.815  1.00  0.00    -0.066 N 
HETATM   16  C   UNL     1      17.815  51.981  46.941  1.00  0.00     0.270 C 
HETATM   17  H   UNL     1      18.415  50.713  45.456  1.00  0.00     0.280 HD
BRANCH  15  18
HETATM   18  C   UNL     1      16.773  51.685  44.673  1.00  0.00     0.273 C 
BRANCH  18  19
HETATM   19  C   UNL     1      17.582  51.760  43.408  1.00  0.00    -0.033 A 
HETATM   20  C   UNL     1      18.582  50.811  43.145  1.00  0.00     0.009 A 
HETATM   21  C   UNL     1      19.353  50.900  41.986  1.00  0.00     0.001 A 
HETATM   22  C   UNL     1      19.133  51.935  41.079  1.00  0.00     0.000 A 
HETATM   23  C   UNL     1      18.142  52.880  41.327  1.00  0.00     0.001 A 
HETATM   24  C   UNL     1      17.367  52.795  42.485  1.00  0.00     0.009 A 
ENDBRANCH  18  19
ENDBRANCH  15  18
ENDBRANCH  14  15
ENDBRANCH  12  14
ENDBRANCH   1   9
BRANCH   4  25
HETATM   25  N   UNL     1      24.583  45.742  49.171  1.00  0.00    -0.334 N 
HETATM   26  C   UNL     1      25.119  44.962  50.177  1.00  0.00     0.321 C 
HETATM   27  N   UNL     1      26.283  44.357  49.762  1.00  0.00    -0.309 N 
HETATM   28  O   UNL     1      24.565  44.832  51.259  1.00  0.00    -0.247 OA
HETATM   29  H   UNL     1      26.576  44.562  48.820  1.00  0.00     0.170 HD
HETATM   30  H   UNL     1      25.255  46.177  48.553  1.00  0.00     0.164 HD
BRANCH  27  31
HETATM   31  C   UNL     1      27.055  43.403  50.456  1.00  0.00     0.037 A 
HETATM   32  C   UNL     1      27.845  43.696  51.570  1.00  0.00     0.045 A 
HETATM   33  C   UNL     1      28.556  42.683  52.241  1.00  0.00     0.050 A 
HETATM   34  C   UNL     1      28.487  41.368  51.760  1.00  0.00     0.016 A 
HETATM   35  C   UNL     1      27.709  41.069  50.644  1.00  0.00     0.003 A 
HETATM   36  C   UNL     1      26.995  42.080  49.999  1.00  0.00     0.029 A 
BRANCH  33  37
HETATM   37  C   UNL     1      29.406  43.008  53.445  1.00  0.00     0.417 C 
HETATM   38  F   UNL     1      29.297  44.303  53.854  1.00  0.00    -0.166 F 
HETATM   39  F   UNL     1      29.093  42.250  54.532  1.00  0.00    -0.166 F 
HETATM   40  F   UNL     1      30.731  42.800  53.213  1.00  0.00    -0.166 F 
ENDBRANCH  33  37
ENDBRANCH  27  31
ENDBRANCH   4  25
TORSDOF 8
ENDMDL
