MODEL 1
REMARK VINA RESULT:      -9.0      0.000      0.000
REMARK  10 active torsions:
REMARK  status: ('A' for Active; 'I' for Inactive)
REMARK    1  A    between atoms: C_2  and  N_3 
REMARK    2  A    between atoms: N_3  and  N_4 
REMARK       I    between atoms: N_4  and  C_5 
REMARK    3  A    between atoms: C_5  and  C_6 
REMARK    4  A    between atoms: C_7  and  N_8 
REMARK    5  A    between atoms: C_14  and  C_15 
REMARK       I    between atoms: C_15  and  N_16 
REMARK    6  A    between atoms: N_16  and  C_17 
REMARK    7  A    between atoms: C_17  and  C_18 
REMARK    8  A    between atoms: C_18  and  C_19 
REMARK    9  A    between atoms: C_21  and  O_22 
REMARK   10  A    between atoms: C_24  and  O_25 
ROOT
HETATM    1  C   UNL     1      23.547  46.085  49.499  1.00  0.00     0.070 C 
HETATM    2  C   UNL     1      24.493  47.263  49.587  1.00  0.00     0.027 C 
HETATM    3  C   UNL     1      25.798  47.106  49.894  1.00  0.00     0.100 C 
ENDROOT
BRANCH   2   4
HETATM    4  N   UNL     1      23.906  48.490  49.310  1.00  0.00    -0.302 N 
HETATM    5  H   UNL     1      24.223  48.946  48.445  1.00  0.00     0.186 HD
BRANCH   4   6
HETATM    6  N   UNL     1      22.600  48.837  49.662  1.00  0.00    -0.266 N 
HETATM    7  C   UNL     1      21.758  49.177  48.614  1.00  0.00     0.271 C 
HETATM    8  O   UNL     1      21.915  48.797  47.458  1.00  0.00    -0.266 OA
HETATM    9  H   UNL     1      22.497  49.357  50.534  1.00  0.00     0.190 HD
BRANCH   7  10
HETATM   10  C   UNL     1      20.627  50.071  48.984  1.00  0.00     0.054 A 
HETATM   11  C   UNL     1      19.587  49.650  49.839  1.00  0.00     0.021 A 
HETATM   12  C   UNL     1      18.489  50.503  50.014  1.00  0.00     0.024 A 
HETATM   13  C   UNL     1      18.486  51.790  49.468  1.00  0.00     0.002 A 
HETATM   14  C   UNL     1      19.565  52.229  48.704  1.00  0.00     0.001 A 
HETATM   15  C   UNL     1      20.633  51.369  48.455  1.00  0.00     0.019 A 
BRANCH  11  16
HETATM   16  N   UNL     1      19.515  48.340  50.370  1.00  0.00    -0.302 NA
HETATM   17  H   UNL     1      18.605  47.907  50.192  1.00  0.00     0.124 HD
HETATM   18  H   UNL     1      20.252  47.735  50.014  1.00  0.00     0.124 HD
ENDBRANCH  11  16
ENDBRANCH   7  10
ENDBRANCH   4   6
ENDBRANCH   2   4
BRANCH   3  19
HETATM   19  C   UNL     1      26.483  45.809  50.157  1.00  0.00     0.243 C 
HETATM   20  N   UNL     1      26.228  45.325  51.418  1.00  0.00    -0.357 N 
HETATM   21  H   UNL     1      25.603  45.821  52.037  1.00  0.00     0.162 HD
HETATM   22  O   UNL     1      27.205  45.241  49.350  1.00  0.00    -0.269 OA
BRANCH  20  23
HETATM   23  C   UNL     1      26.789  44.069  51.881  1.00  0.00     0.127 C 
BRANCH  23  24
HETATM   24  C   UNL     1      26.575  43.841  53.380  1.00  0.00     0.058 C 
BRANCH  24  25
HETATM   25  C   UNL     1      27.873  43.918  54.146  1.00  0.00    -0.054 A 
HETATM   26  C   UNL     1      28.125  44.992  55.014  1.00  0.00     0.046 A 
HETATM   27  C   UNL     1      29.344  45.091  55.700  1.00  0.00     0.102 A 
HETATM   28  C   UNL     1      30.328  44.099  55.517  1.00  0.00     0.101 A 
HETATM   29  C   UNL     1      30.069  43.023  54.660  1.00  0.00     0.040 A 
HETATM   30  C   UNL     1      28.854  42.936  53.979  1.00  0.00     0.010 A 
BRANCH  27  31
HETATM   31  O   UNL     1      29.671  46.113  56.556  1.00  0.00    -0.353 OA
HETATM   32  C   UNL     1      28.982  46.182  57.796  1.00  0.00     0.210 C 
ENDBRANCH  27  31
BRANCH  28  33
HETATM   33  O   UNL     1      31.497  44.268  56.217  1.00  0.00    -0.353 OA
HETATM   34  C   UNL     1      31.787  43.337  57.249  1.00  0.00     0.210 C 
ENDBRANCH  28  33
ENDBRANCH  24  25
ENDBRANCH  23  24
ENDBRANCH  20  23
ENDBRANCH   3  19
TORSDOF 10
ENDMDL
MODEL 2
REMARK VINA RESULT:      -8.7      2.046      2.833
REMARK  10 active torsions:
REMARK  status: ('A' for Active; 'I' for Inactive)
REMARK    1  A    between atoms: C_2  and  N_3 
REMARK    2  A    between atoms: N_3  and  N_4 
REMARK       I    between atoms: N_4  and  C_5 
REMARK    3  A    between atoms: C_5  and  C_6 
REMARK    4  A    between atoms: C_7  and  N_8 
REMARK    5  A    between atoms: C_14  and  C_15 
REMARK       I    between atoms: C_15  and  N_16 
REMARK    6  A    between atoms: N_16  and  C_17 
REMARK    7  A    between atoms: C_17  and  C_18 
REMARK    8  A    between atoms: C_18  and  C_19 
REMARK    9  A    between atoms: C_21  and  O_22 
REMARK   10  A    between atoms: C_24  and  O_25 
ROOT
HETATM    1  C   UNL     1      23.986  42.938  50.812  1.00  0.00     0.070 C 
HETATM    2  C   UNL     1      24.464  44.302  50.363  1.00  0.00     0.027 C 
HETATM    3  C   UNL     1      25.769  44.556  50.127  1.00  0.00     0.100 C 
ENDROOT
BRANCH   2   4
HETATM    4  N   UNL     1      23.453  45.241  50.205  1.00  0.00    -0.302 N 
HETATM    5  H   UNL     1      22.903  45.442  51.051  1.00  0.00     0.186 HD
BRANCH   4   6
HETATM    6  N   UNL     1      23.508  46.319  49.321  1.00  0.00    -0.266 N 
HETATM    7  C   UNL     1      23.877  47.538  49.871  1.00  0.00     0.271 C 
HETATM    8  O   UNL     1      24.542  47.654  50.895  1.00  0.00    -0.266 OA
HETATM    9  H   UNL     1      22.799  46.331  48.588  1.00  0.00     0.190 HD
BRANCH   7  10
HETATM   10  C   UNL     1      23.389  48.732  49.129  1.00  0.00     0.054 A 
HETATM   11  C   UNL     1      22.014  49.008  48.973  1.00  0.00     0.021 A 
HETATM   12  C   UNL     1      21.643  50.069  48.136  1.00  0.00     0.024 A 
HETATM   13  C   UNL     1      22.608  50.915  47.580  1.00  0.00     0.002 A 
HETATM   14  C   UNL     1      23.961  50.688  47.822  1.00  0.00     0.001 A 
HETATM   15  C   UNL     1      24.354  49.594  48.589  1.00  0.00     0.019 A 
BRANCH  11  16
HETATM   16  N   UNL     1      21.000  48.153  49.467  1.00  0.00    -0.302 NA
HETATM   17  H   UNL     1      21.235  47.779  50.391  1.00  0.00     0.124 HD
HETATM   18  H   UNL     1      20.092  48.611  49.509  1.00  0.00     0.124 HD
ENDBRANCH  11  16
ENDBRANCH   7  10
ENDBRANCH   4   6
ENDBRANCH   2   4
BRANCH   3  19
HETATM   19  C   UNL     1      26.884  43.574  50.241  1.00  0.00     0.243 C 
HETATM   20  N   UNL     1      27.434  43.547  51.501  1.00  0.00    -0.357 N 
HETATM   21  H   UNL     1      27.052  44.124  52.236  1.00  0.00     0.162 HD
HETATM   22  O   UNL     1      27.279  42.878  49.317  1.00  0.00    -0.269 OA
BRANCH  20  23
HETATM   23  C   UNL     1      28.529  42.654  51.836  1.00  0.00     0.127 C 
BRANCH  23  24
HETATM   24  C   UNL     1      28.454  42.139  53.276  1.00  0.00     0.058 C 
BRANCH  24  25
HETATM   25  C   UNL     1      29.000  43.149  54.257  1.00  0.00    -0.054 A 
HETATM   26  C   UNL     1      28.246  44.281  54.606  1.00  0.00     0.046 A 
HETATM   27  C   UNL     1      28.760  45.242  55.486  1.00  0.00     0.102 A 
HETATM   28  C   UNL     1      30.049  45.070  56.029  1.00  0.00     0.101 A 
HETATM   29  C   UNL     1      30.793  43.935  55.689  1.00  0.00     0.040 A 
HETATM   30  C   UNL     1      30.274  42.984  54.808  1.00  0.00     0.010 A 
BRANCH  27  31
HETATM   31  O   UNL     1      28.093  46.380  55.869  1.00  0.00    -0.353 OA
HETATM   32  C   UNL     1      27.809  47.347  54.868  1.00  0.00     0.210 C 
ENDBRANCH  27  31
BRANCH  28  33
HETATM   33  O   UNL     1      30.487  46.057  56.878  1.00  0.00    -0.353 OA
HETATM   34  C   UNL     1      30.630  45.728  58.252  1.00  0.00     0.210 C 
ENDBRANCH  28  33
ENDBRANCH  24  25
ENDBRANCH  23  24
ENDBRANCH  20  23
ENDBRANCH   3  19
TORSDOF 10
ENDMDL
MODEL 3
REMARK VINA RESULT:      -8.6      1.822      2.310
REMARK  10 active torsions:
REMARK  status: ('A' for Active; 'I' for Inactive)
REMARK    1  A    between atoms: C_2  and  N_3 
REMARK    2  A    between atoms: N_3  and  N_4 
REMARK       I    between atoms: N_4  and  C_5 
REMARK    3  A    between atoms: C_5  and  C_6 
REMARK    4  A    between atoms: C_7  and  N_8 
REMARK    5  A    between atoms: C_14  and  C_15 
REMARK       I    between atoms: C_15  and  N_16 
REMARK    6  A    between atoms: N_16  and  C_17 
REMARK    7  A    between atoms: C_17  and  C_18 
REMARK    8  A    between atoms: C_18  and  C_19 
REMARK    9  A    between atoms: C_21  and  O_22 
REMARK   10  A    between atoms: C_24  and  O_25 
ROOT
HETATM    1  C   UNL     1      23.278  43.676  49.998  1.00  0.00     0.070 C 
HETATM    2  C   UNL     1      23.988  45.011  50.056  1.00  0.00     0.027 C 
HETATM    3  C   UNL     1      24.946  45.269  50.971  1.00  0.00     0.100 C 
ENDROOT
BRANCH   2   4
HETATM    4  N   UNL     1      23.579  45.919  49.087  1.00  0.00    -0.302 N 
HETATM    5  H   UNL     1      23.674  45.598  48.115  1.00  0.00     0.186 HD
BRANCH   4   6
HETATM    6  N   UNL     1      22.548  46.845  49.258  1.00  0.00    -0.266 N 
HETATM    7  C   UNL     1      22.108  47.483  48.108  1.00  0.00     0.271 C 
HETATM    8  O   UNL     1      22.224  47.017  46.980  1.00  0.00    -0.266 OA
HETATM    9  H   UNL     1      22.582  47.395  50.117  1.00  0.00     0.190 HD
BRANCH   7  10
HETATM   10  C   UNL     1      21.481  48.813  48.333  1.00  0.00     0.054 A 
HETATM   11  C   UNL     1      22.083  49.801  49.142  1.00  0.00     0.021 A 
HETATM   12  C   UNL     1      21.353  50.965  49.418  1.00  0.00     0.024 A 
HETATM   13  C   UNL     1      20.122  51.203  48.800  1.00  0.00     0.002 A 
HETATM   14  C   UNL     1      19.583  50.262  47.926  1.00  0.00     0.001 A 
HETATM   15  C   UNL     1      20.256  49.064  47.697  1.00  0.00     0.019 A 
BRANCH  11  16
HETATM   16  N   UNL     1      23.298  49.586  49.834  1.00  0.00    -0.302 NA
HETATM   17  H   UNL     1      23.761  48.724  49.532  1.00  0.00     0.124 HD
HETATM   18  H   UNL     1      23.944  50.368  49.736  1.00  0.00     0.124 HD
ENDBRANCH  11  16
ENDBRANCH   7  10
ENDBRANCH   4   6
ENDBRANCH   2   4
BRANCH   3  19
HETATM   19  C   UNL     1      25.447  44.317  52.002  1.00  0.00     0.243 C 
HETATM   20  N   UNL     1      26.593  43.667  51.604  1.00  0.00    -0.357 N 
HETATM   21  H   UNL     1      27.020  43.885  50.716  1.00  0.00     0.162 HD
HETATM   22  O   UNL     1      24.899  44.120  53.076  1.00  0.00    -0.269 OA
BRANCH  20  23
HETATM   23  C   UNL     1      27.256  42.700  52.460  1.00  0.00     0.127 C 
BRANCH  23  24
HETATM   24  C   UNL     1      28.771  42.916  52.534  1.00  0.00     0.058 C 
BRANCH  24  25
HETATM   25  C   UNL     1      29.169  43.640  53.797  1.00  0.00    -0.054 A 
HETATM   26  C   UNL     1      28.425  44.740  54.251  1.00  0.00     0.046 A 
HETATM   27  C   UNL     1      28.809  45.442  55.402  1.00  0.00     0.102 A 
HETATM   28  C   UNL     1      29.956  45.036  56.113  1.00  0.00     0.101 A 
HETATM   29  C   UNL     1      30.689  43.931  55.666  1.00  0.00     0.040 A 
HETATM   30  C   UNL     1      30.300  43.242  54.515  1.00  0.00     0.010 A 
BRANCH  27  31
HETATM   31  O   UNL     1      28.144  46.533  55.905  1.00  0.00    -0.353 OA
HETATM   32  C   UNL     1      27.859  47.601  55.014  1.00  0.00     0.210 C 
ENDBRANCH  27  31
BRANCH  28  33
HETATM   33  O   UNL     1      30.273  45.776  57.226  1.00  0.00    -0.353 OA
HETATM   34  C   UNL     1      30.909  45.105  58.304  1.00  0.00     0.210 C 
ENDBRANCH  28  33
ENDBRANCH  24  25
ENDBRANCH  23  24
ENDBRANCH  20  23
ENDBRANCH   3  19
TORSDOF 10
ENDMDL
MODEL 4
REMARK VINA RESULT:      -8.3      1.674      2.342
REMARK  10 active torsions:
REMARK  status: ('A' for Active; 'I' for Inactive)
REMARK    1  A    between atoms: C_2  and  N_3 
REMARK    2  A    between atoms: N_3  and  N_4 
REMARK       I    between atoms: N_4  and  C_5 
REMARK    3  A    between atoms: C_5  and  C_6 
REMARK    4  A    between atoms: C_7  and  N_8 
REMARK    5  A    between atoms: C_14  and  C_15 
REMARK       I    between atoms: C_15  and  N_16 
REMARK    6  A    between atoms: N_16  and  C_17 
REMARK    7  A    between atoms: C_17  and  C_18 
REMARK    8  A    between atoms: C_18  and  C_19 
REMARK    9  A    between atoms: C_21  and  O_22 
REMARK   10  A    between atoms: C_24  and  O_25 
ROOT
HETATM    1  C   UNL     1      22.425  47.514  48.679  1.00  0.00     0.070 C 
HETATM    2  C   UNL     1      23.605  48.452  48.811  1.00  0.00     0.027 C 
HETATM    3  C   UNL     1      24.693  48.128  49.542  1.00  0.00     0.100 C 
ENDROOT
BRANCH   2   4
HETATM    4  N   UNL     1      23.471  49.643  48.110  1.00  0.00    -0.302 N 
HETATM    5  H   UNL     1      24.045  49.721  47.260  1.00  0.00     0.186 HD
BRANCH   4   6
HETATM    6  N   UNL     1      22.295  50.393  48.046  1.00  0.00    -0.266 N 
HETATM    7  C   UNL     1      21.772  50.808  49.261  1.00  0.00     0.271 C 
HETATM    8  O   UNL     1      22.438  50.949  50.281  1.00  0.00    -0.266 OA
HETATM    9  H   UNL     1      21.633  50.120  47.319  1.00  0.00     0.190 HD
BRANCH   7  10
HETATM   10  C   UNL     1      20.306  51.065  49.256  1.00  0.00     0.054 A 
HETATM   11  C   UNL     1      19.397  50.240  49.951  1.00  0.00     0.021 A 
HETATM   12  C   UNL     1      18.026  50.467  49.770  1.00  0.00     0.024 A 
HETATM   13  C   UNL     1      17.572  51.564  49.031  1.00  0.00     0.002 A 
HETATM   14  C   UNL     1      18.484  52.429  48.430  1.00  0.00     0.001 A 
HETATM   15  C   UNL     1      19.850  52.178  48.534  1.00  0.00     0.019 A 
BRANCH  11  16
HETATM   16  N   UNL     1      19.801  49.086  50.664  1.00  0.00    -0.302 NA
HETATM   17  H   UNL     1      20.136  49.317  51.603  1.00  0.00     0.124 HD
HETATM   18  H   UNL     1      19.059  48.392  50.731  1.00  0.00     0.124 HD
ENDBRANCH  11  16
ENDBRANCH   7  10
ENDBRANCH   4   6
ENDBRANCH   2   4
BRANCH   3  19
HETATM   19  C   UNL     1      24.902  46.848  50.276  1.00  0.00     0.243 C 
HETATM   20  N   UNL     1      25.280  47.046  51.583  1.00  0.00    -0.357 N 
HETATM   21  H   UNL     1      25.351  47.982  51.956  1.00  0.00     0.162 HD
HETATM   22  O   UNL     1      24.767  45.742  49.774  1.00  0.00    -0.269 OA
BRANCH  20  23
HETATM   23  C   UNL     1      25.527  45.934  52.483  1.00  0.00     0.127 C 
BRANCH  23  24
HETATM   24  C   UNL     1      25.820  46.386  53.917  1.00  0.00     0.058 C 
BRANCH  24  25
HETATM   25  C   UNL     1      27.150  45.864  54.404  1.00  0.00    -0.054 A 
HETATM   26  C   UNL     1      27.578  44.572  54.059  1.00  0.00     0.046 A 
HETATM   27  C   UNL     1      28.794  44.066  54.538  1.00  0.00     0.102 A 
HETATM   28  C   UNL     1      29.598  44.864  55.375  1.00  0.00     0.101 A 
HETATM   29  C   UNL     1      29.176  46.156  55.708  1.00  0.00     0.040 A 
HETATM   30  C   UNL     1      27.961  46.650  55.228  1.00  0.00     0.010 A 
BRANCH  27  31
HETATM   31  O   UNL     1      29.277  42.811  54.256  1.00  0.00    -0.353 OA
HETATM   32  C   UNL     1      29.828  42.590  52.967  1.00  0.00     0.210 C 
ENDBRANCH  27  31
BRANCH  28  33
HETATM   33  O   UNL     1      30.771  44.297  55.809  1.00  0.00    -0.353 OA
HETATM   34  C   UNL     1      31.039  44.324  57.203  1.00  0.00     0.210 C 
ENDBRANCH  28  33
ENDBRANCH  24  25
ENDBRANCH  23  24
ENDBRANCH  20  23
ENDBRANCH   3  19
TORSDOF 10
ENDMDL
MODEL 5
REMARK VINA RESULT:      -8.3      2.415     11.263
REMARK  10 active torsions:
REMARK  status: ('A' for Active; 'I' for Inactive)
REMARK    1  A    between atoms: C_2  and  N_3 
REMARK    2  A    between atoms: N_3  and  N_4 
REMARK       I    between atoms: N_4  and  C_5 
REMARK    3  A    between atoms: C_5  and  C_6 
REMARK    4  A    between atoms: C_7  and  N_8 
REMARK    5  A    between atoms: C_14  and  C_15 
REMARK       I    between atoms: C_15  and  N_16 
REMARK    6  A    between atoms: N_16  and  C_17 
REMARK    7  A    between atoms: C_17  and  C_18 
REMARK    8  A    between atoms: C_18  and  C_19 
REMARK    9  A    between atoms: C_21  and  O_22 
REMARK   10  A    between atoms: C_24  and  O_25 
ROOT
HETATM    1  C   UNL     1      24.691  44.842  49.239  1.00  0.00     0.070 C 
HETATM    2  C   UNL     1      24.621  45.239  50.698  1.00  0.00     0.027 C 
HETATM    3  C   UNL     1      24.584  46.533  51.082  1.00  0.00     0.100 C 
ENDROOT
BRANCH   2   4
HETATM    4  N   UNL     1      24.582  44.169  51.582  1.00  0.00    -0.302 N 
HETATM    5  H   UNL     1      23.826  43.491  51.421  1.00  0.00     0.186 HD
BRANCH   4   6
HETATM    6  N   UNL     1      25.708  43.599  52.180  1.00  0.00    -0.266 N 
HETATM    7  C   UNL     1      25.897  43.891  53.522  1.00  0.00     0.271 C 
HETATM    8  O   UNL     1      24.994  44.215  54.286  1.00  0.00    -0.266 OA
HETATM    9  H   UNL     1      26.539  43.533  51.592  1.00  0.00     0.190 HD
BRANCH   7  10
HETATM   10  C   UNL     1      27.307  43.802  53.989  1.00  0.00     0.054 A 
HETATM   11  C   UNL     1      28.070  42.623  53.852  1.00  0.00     0.021 A 
HETATM   12  C   UNL     1      29.336  42.581  54.452  1.00  0.00     0.024 A 
HETATM   13  C   UNL     1      29.884  43.719  55.052  1.00  0.00     0.002 A 
HETATM   14  C   UNL     1      29.157  44.907  55.095  1.00  0.00     0.001 A 
HETATM   15  C   UNL     1      27.867  44.949  54.571  1.00  0.00     0.019 A 
BRANCH  11  16
HETATM   16  N   UNL     1      27.543  41.429  53.305  1.00  0.00    -0.302 NA
HETATM   17  H   UNL     1      27.307  40.749  54.032  1.00  0.00     0.124 HD
HETATM   18  H   UNL     1      26.726  41.597  52.721  1.00  0.00     0.124 HD
ENDBRANCH  11  16
ENDBRANCH   7  10
ENDBRANCH   4   6
ENDBRANCH   2   4
BRANCH   3  19
HETATM   19  C   UNL     1      24.581  47.714  50.173  1.00  0.00     0.243 C 
HETATM   20  N   UNL     1      23.312  48.068  49.775  1.00  0.00    -0.357 N 
HETATM   21  H   UNL     1      22.510  47.567  50.128  1.00  0.00     0.162 HD
HETATM   22  O   UNL     1      25.590  48.298  49.807  1.00  0.00    -0.269 OA
BRANCH  20  23
HETATM   23  C   UNL     1      23.078  49.197  48.894  1.00  0.00     0.127 C 
BRANCH  23  24
HETATM   24  C   UNL     1      22.438  50.388  49.615  1.00  0.00     0.058 C 
BRANCH  24  25
HETATM   25  C   UNL     1      20.974  50.526  49.271  1.00  0.00    -0.054 A 
HETATM   26  C   UNL     1      20.069  49.500  49.587  1.00  0.00     0.046 A 
HETATM   27  C   UNL     1      18.716  49.604  49.237  1.00  0.00     0.102 A 
HETATM   28  C   UNL     1      18.258  50.752  48.561  1.00  0.00     0.101 A 
HETATM   29  C   UNL     1      19.160  51.778  48.257  1.00  0.00     0.040 A 
HETATM   30  C   UNL     1      20.507  51.663  48.607  1.00  0.00     0.010 A 
BRANCH  27  31
HETATM   31  O   UNL     1      17.771  48.642  49.501  1.00  0.00    -0.353 OA
HETATM   32  C   UNL     1      17.823  47.441  48.745  1.00  0.00     0.210 C 
ENDBRANCH  27  31
BRANCH  28  33
HETATM   33  O   UNL     1      16.922  50.777  48.246  1.00  0.00    -0.353 OA
HETATM   34  C   UNL     1      16.540  51.432  47.045  1.00  0.00     0.210 C 
ENDBRANCH  28  33
ENDBRANCH  24  25
ENDBRANCH  23  24
ENDBRANCH  20  23
ENDBRANCH   3  19
TORSDOF 10
ENDMDL
MODEL 6
REMARK VINA RESULT:      -8.2      2.254     11.135
REMARK  10 active torsions:
REMARK  status: ('A' for Active; 'I' for Inactive)
REMARK    1  A    between atoms: C_2  and  N_3 
REMARK    2  A    between atoms: N_3  and  N_4 
REMARK       I    between atoms: N_4  and  C_5 
REMARK    3  A    between atoms: C_5  and  C_6 
REMARK    4  A    between atoms: C_7  and  N_8 
REMARK    5  A    between atoms: C_14  and  C_15 
REMARK       I    between atoms: C_15  and  N_16 
REMARK    6  A    between atoms: N_16  and  C_17 
REMARK    7  A    between atoms: C_17  and  C_18 
REMARK    8  A    between atoms: C_18  and  C_19 
REMARK    9  A    between atoms: C_21  and  O_22 
REMARK   10  A    between atoms: C_24  and  O_25 
ROOT
HETATM    1  C   UNL     1      26.040  44.519  49.658  1.00  0.00     0.070 C 
HETATM    2  C   UNL     1      26.339  45.268  50.938  1.00  0.00     0.027 C 
HETATM    3  C   UNL     1      26.299  46.616  51.000  1.00  0.00     0.100 C 
ENDROOT
BRANCH   2   4
HETATM    4  N   UNL     1      26.636  44.452  52.022  1.00  0.00    -0.302 N 
HETATM    5  H   UNL     1      26.160  43.541  52.032  1.00  0.00     0.186 HD
BRANCH   4   6
HETATM    6  N   UNL     1      27.867  44.431  52.680  1.00  0.00    -0.266 N 
HETATM    7  C   UNL     1      27.971  43.551  53.746  1.00  0.00     0.271 C 
HETATM    8  O   UNL     1      27.282  42.544  53.874  1.00  0.00    -0.266 OA
HETATM    9  H   UNL     1      28.342  45.330  52.765  1.00  0.00     0.190 HD
BRANCH   7  10
HETATM   10  C   UNL     1      28.990  43.921  54.766  1.00  0.00     0.054 A 
HETATM   11  C   UNL     1      28.923  45.131  55.489  1.00  0.00     0.021 A 
HETATM   12  C   UNL     1      30.001  45.466  56.319  1.00  0.00     0.024 A 
HETATM   13  C   UNL     1      31.051  44.567  56.530  1.00  0.00     0.002 A 
HETATM   14  C   UNL     1      31.056  43.333  55.884  1.00  0.00     0.001 A 
HETATM   15  C   UNL     1      30.032  43.011  54.996  1.00  0.00     0.019 A 
BRANCH  11  16
HETATM   16  N   UNL     1      27.914  46.099  55.270  1.00  0.00    -0.302 NA
HETATM   17  H   UNL     1      27.365  46.274  56.116  1.00  0.00     0.124 HD
HETATM   18  H   UNL     1      28.290  46.980  54.923  1.00  0.00     0.124 HD
ENDBRANCH  11  16
ENDBRANCH   7  10
ENDBRANCH   4   6
ENDBRANCH   2   4
BRANCH   3  19
HETATM   19  C   UNL     1      25.946  47.531  49.879  1.00  0.00     0.243 C 
HETATM   20  N   UNL     1      24.624  47.909  49.904  1.00  0.00    -0.357 N 
HETATM   21  H   UNL     1      24.020  47.598  50.651  1.00  0.00     0.162 HD
HETATM   22  O   UNL     1      26.735  47.897  49.020  1.00  0.00    -0.269 OA
BRANCH  20  23
HETATM   23  C   UNL     1      24.068  48.806  48.907  1.00  0.00     0.127 C 
BRANCH  23  24
HETATM   24  C   UNL     1      22.755  48.288  48.311  1.00  0.00     0.058 C 
BRANCH  24  25
HETATM   25  C   UNL     1      21.562  49.022  48.873  1.00  0.00    -0.054 A 
HETATM   26  C   UNL     1      20.353  48.344  49.103  1.00  0.00     0.046 A 
HETATM   27  C   UNL     1      19.229  49.025  49.588  1.00  0.00     0.102 A 
HETATM   28  C   UNL     1      19.313  50.407  49.851  1.00  0.00     0.101 A 
HETATM   29  C   UNL     1      20.521  51.078  49.633  1.00  0.00     0.040 A 
HETATM   30  C   UNL     1      21.635  50.391  49.145  1.00  0.00     0.010 A 
BRANCH  27  31
HETATM   31  O   UNL     1      18.010  48.439  49.829  1.00  0.00    -0.353 OA
HETATM   32  C   UNL     1      17.180  48.160  48.711  1.00  0.00     0.210 C 
ENDBRANCH  27  31
BRANCH  28  33
HETATM   33  O   UNL     1      18.169  51.006  50.319  1.00  0.00    -0.353 OA
HETATM   34  C   UNL     1      17.861  52.305  49.836  1.00  0.00     0.210 C 
ENDBRANCH  28  33
ENDBRANCH  24  25
ENDBRANCH  23  24
ENDBRANCH  20  23
ENDBRANCH   3  19
TORSDOF 10
ENDMDL
MODEL 7
REMARK VINA RESULT:      -8.0      2.634     10.852
REMARK  10 active torsions:
REMARK  status: ('A' for Active; 'I' for Inactive)
REMARK    1  A    between atoms: C_2  and  N_3 
REMARK    2  A    between atoms: N_3  and  N_4 
REMARK       I    between atoms: N_4  and  C_5 
REMARK    3  A    between atoms: C_5  and  C_6 
REMARK    4  A    between atoms: C_7  and  N_8 
REMARK    5  A    between atoms: C_14  and  C_15 
REMARK       I    between atoms: C_15  and  N_16 
REMARK    6  A    between atoms: N_16  and  C_17 
REMARK    7  A    between atoms: C_17  and  C_18 
REMARK    8  A    between atoms: C_18  and  C_19 
REMARK    9  A    between atoms: C_21  and  O_22 
REMARK   10  A    between atoms: C_24  and  O_25 
ROOT
HETATM    1  C   UNL     1      25.479  42.882  49.232  1.00  0.00     0.070 C 
HETATM    2  C   UNL     1      24.922  43.152  50.613  1.00  0.00     0.027 C 
HETATM    3  C   UNL     1      23.783  43.854  50.796  1.00  0.00     0.100 C 
ENDROOT
BRANCH   2   4
HETATM    4  N   UNL     1      25.669  42.608  51.649  1.00  0.00    -0.302 N 
HETATM    5  H   UNL     1      26.137  41.718  51.435  1.00  0.00     0.186 HD
BRANCH   4   6
HETATM    6  N   UNL     1      26.342  43.359  52.616  1.00  0.00    -0.266 N 
HETATM    7  C   UNL     1      27.676  43.630  52.353  1.00  0.00     0.271 C 
HETATM    8  O   UNL     1      28.163  43.653  51.228  1.00  0.00    -0.266 OA
HETATM    9  H   UNL     1      26.082  43.172  53.584  1.00  0.00     0.190 HD
BRANCH   7  10
HETATM   10  C   UNL     1      28.511  43.884  53.559  1.00  0.00     0.054 A 
HETATM   11  C   UNL     1      28.233  44.937  54.457  1.00  0.00     0.021 A 
HETATM   12  C   UNL     1      29.155  45.195  55.480  1.00  0.00     0.024 A 
HETATM   13  C   UNL     1      30.249  44.349  55.689  1.00  0.00     0.002 A 
HETATM   14  C   UNL     1      30.459  43.255  54.853  1.00  0.00     0.001 A 
HETATM   15  C   UNL     1      29.596  43.025  53.784  1.00  0.00     0.019 A 
BRANCH  11  16
HETATM   16  N   UNL     1      27.173  45.853  54.258  1.00  0.00    -0.302 NA
HETATM   17  H   UNL     1      26.672  46.050  55.128  1.00  0.00     0.124 HD
HETATM   18  H   UNL     1      27.489  46.729  53.844  1.00  0.00     0.124 HD
ENDBRANCH  11  16
ENDBRANCH   7  10
ENDBRANCH   4   6
ENDBRANCH   2   4
BRANCH   3  19
HETATM   19  C   UNL     1      22.925  44.420  49.718  1.00  0.00     0.243 C 
HETATM   20  N   UNL     1      23.156  45.761  49.511  1.00  0.00    -0.357 N 
HETATM   21  H   UNL     1      23.871  46.241  50.037  1.00  0.00     0.162 HD
HETATM   22  O   UNL     1      22.096  43.775  49.093  1.00  0.00    -0.269 OA
BRANCH  20  23
HETATM   23  C   UNL     1      22.434  46.511  48.500  1.00  0.00     0.127 C 
BRANCH  23  24
HETATM   24  C   UNL     1      22.743  48.011  48.543  1.00  0.00     0.058 C 
BRANCH  24  25
HETATM   25  C   UNL     1      21.565  48.808  49.050  1.00  0.00    -0.054 A 
HETATM   26  C   UNL     1      20.316  48.194  49.231  1.00  0.00     0.046 A 
HETATM   27  C   UNL     1      19.208  48.934  49.665  1.00  0.00     0.102 A 
HETATM   28  C   UNL     1      19.350  50.311  49.926  1.00  0.00     0.101 A 
HETATM   29  C   UNL     1      20.600  50.918  49.757  1.00  0.00     0.040 A 
HETATM   30  C   UNL     1      21.696  50.173  49.320  1.00  0.00     0.010 A 
BRANCH  27  31
HETATM   31  O   UNL     1      17.952  48.412  49.855  1.00  0.00    -0.353 OA
HETATM   32  C   UNL     1      17.445  47.532  48.862  1.00  0.00     0.210 C 
ENDBRANCH  27  31
BRANCH  28  33
HETATM   33  O   UNL     1      18.219  50.970  50.342  1.00  0.00    -0.353 OA
HETATM   34  C   UNL     1      17.949  52.240  49.768  1.00  0.00     0.210 C 
ENDBRANCH  28  33
ENDBRANCH  24  25
ENDBRANCH  23  24
ENDBRANCH  20  23
ENDBRANCH   3  19
TORSDOF 10
ENDMDL
MODEL 8
REMARK VINA RESULT:      -8.0      2.388     10.358
REMARK  10 active torsions:
REMARK  status: ('A' for Active; 'I' for Inactive)
REMARK    1  A    between atoms: C_2  and  N_3 
REMARK    2  A    between atoms: N_3  and  N_4 
REMARK       I    between atoms: N_4  and  C_5 
REMARK    3  A    between atoms: C_5  and  C_6 
REMARK    4  A    between atoms: C_7  and  N_8 
REMARK    5  A    between atoms: C_14  and  C_15 
REMARK       I    between atoms: C_15  and  N_16 
REMARK    6  A    between atoms: N_16  and  C_17 
REMARK    7  A    between atoms: C_17  and  C_18 
REMARK    8  A    between atoms: C_18  and  C_19 
REMARK    9  A    between atoms: C_21  and  O_22 
REMARK   10  A    between atoms: C_24  and  O_25 
ROOT
HETATM    1  C   UNL     1      25.395  46.836  50.768  1.00  0.00     0.070 C 
HETATM    2  C   UNL     1      25.189  45.672  51.712  1.00  0.00     0.027 C 
HETATM    3  C   UNL     1      24.507  44.567  51.342  1.00  0.00     0.100 C 
ENDROOT
BRANCH   2   4
HETATM    4  N   UNL     1      25.770  45.840  52.963  1.00  0.00    -0.302 N 
HETATM    5  H   UNL     1      25.141  45.696  53.764  1.00  0.00     0.186 HD
BRANCH   4   6
HETATM    6  N   UNL     1      27.104  45.551  53.258  1.00  0.00    -0.266 N 
HETATM    7  C   UNL     1      27.326  44.404  54.004  1.00  0.00     0.271 C 
HETATM    8  O   UNL     1      26.554  43.452  54.044  1.00  0.00    -0.266 OA
HETATM    9  H   UNL     1      27.702  46.356  53.445  1.00  0.00     0.190 HD
BRANCH   7  10
HETATM   10  C   UNL     1      28.590  44.405  54.791  1.00  0.00     0.054 A 
HETATM   11  C   UNL     1      28.931  45.462  55.662  1.00  0.00     0.021 A 
HETATM   12  C   UNL     1      30.204  45.451  56.247  1.00  0.00     0.024 A 
HETATM   13  C   UNL     1      31.061  44.358  56.082  1.00  0.00     0.002 A 
HETATM   14  C   UNL     1      30.671  43.276  55.296  1.00  0.00     0.001 A 
HETATM   15  C   UNL     1      29.440  43.300  54.645  1.00  0.00     0.019 A 
BRANCH  11  16
HETATM   16  N   UNL     1      28.126  46.615  55.819  1.00  0.00    -0.302 NA
HETATM   17  H   UNL     1      27.960  46.831  56.805  1.00  0.00     0.124 HD
HETATM   18  H   UNL     1      28.522  47.431  55.356  1.00  0.00     0.124 HD
ENDBRANCH  11  16
ENDBRANCH   7  10
ENDBRANCH   4   6
ENDBRANCH   2   4
BRANCH   3  19
HETATM   19  C   UNL     1      23.903  44.323  50.002  1.00  0.00     0.243 C 
HETATM   20  N   UNL     1      22.585  44.711  49.941  1.00  0.00    -0.357 N 
HETATM   21  H   UNL     1      22.144  45.144  50.739  1.00  0.00     0.162 HD
HETATM   22  O   UNL     1      24.503  43.821  49.063  1.00  0.00    -0.269 OA
BRANCH  20  23
HETATM   23  C   UNL     1      21.805  44.570  48.724  1.00  0.00     0.127 C 
BRANCH  23  24
HETATM   24  C   UNL     1      21.995  45.745  47.760  1.00  0.00     0.058 C 
BRANCH  24  25
HETATM   25  C   UNL     1      21.521  47.044  48.365  1.00  0.00    -0.054 A 
HETATM   26  C   UNL     1      22.440  48.051  48.699  1.00  0.00     0.046 A 
HETATM   27  C   UNL     1      22.013  49.245  49.296  1.00  0.00     0.102 A 
HETATM   28  C   UNL     1      20.643  49.438  49.563  1.00  0.00     0.101 A 
HETATM   29  C   UNL     1      19.727  48.437  49.217  1.00  0.00     0.040 A 
HETATM   30  C   UNL     1      20.164  47.250  48.627  1.00  0.00     0.010 A 
BRANCH  27  31
HETATM   31  O   UNL     1      22.848  50.272  49.662  1.00  0.00    -0.353 OA
HETATM   32  C   UNL     1      23.334  51.125  48.637  1.00  0.00     0.210 C 
ENDBRANCH  27  31
BRANCH  28  33
HETATM   33  O   UNL     1      20.302  50.629  50.154  1.00  0.00    -0.353 OA
HETATM   34  C   UNL     1      19.521  51.541  49.396  1.00  0.00     0.210 C 
ENDBRANCH  28  33
ENDBRANCH  24  25
ENDBRANCH  23  24
ENDBRANCH  20  23
ENDBRANCH   3  19
TORSDOF 10
ENDMDL
MODEL 9
REMARK VINA RESULT:      -7.7      2.773     10.904
REMARK  10 active torsions:
REMARK  status: ('A' for Active; 'I' for Inactive)
REMARK    1  A    between atoms: C_2  and  N_3 
REMARK    2  A    between atoms: N_3  and  N_4 
REMARK       I    between atoms: N_4  and  C_5 
REMARK    3  A    between atoms: C_5  and  C_6 
REMARK    4  A    between atoms: C_7  and  N_8 
REMARK    5  A    between atoms: C_14  and  C_15 
REMARK       I    between atoms: C_15  and  N_16 
REMARK    6  A    between atoms: N_16  and  C_17 
REMARK    7  A    between atoms: C_17  and  C_18 
REMARK    8  A    between atoms: C_18  and  C_19 
REMARK    9  A    between atoms: C_21  and  O_22 
REMARK   10  A    between atoms: C_24  and  O_25 
ROOT
HETATM    1  C   UNL     1      25.092  45.291  52.098  1.00  0.00     0.070 C 
HETATM    2  C   UNL     1      25.294  43.808  51.874  1.00  0.00     0.027 C 
HETATM    3  C   UNL     1      24.545  43.113  50.991  1.00  0.00     0.100 C 
ENDROOT
BRANCH   2   4
HETATM    4  N   UNL     1      26.311  43.246  52.635  1.00  0.00    -0.302 N 
HETATM    5  H   UNL     1      26.821  42.474  52.187  1.00  0.00     0.186 HD
BRANCH   4   6
HETATM    6  N   UNL     1      27.088  43.951  53.556  1.00  0.00    -0.266 N 
HETATM    7  C   UNL     1      28.460  43.890  53.367  1.00  0.00     0.271 C 
HETATM    8  O   UNL     1      28.993  43.660  52.286  1.00  0.00    -0.266 OA
HETATM    9  H   UNL     1      26.746  43.952  54.518  1.00  0.00     0.190 HD
BRANCH   7  10
HETATM   10  C   UNL     1      29.272  44.110  54.595  1.00  0.00     0.054 A 
HETATM   11  C   UNL     1      29.113  45.255  55.405  1.00  0.00     0.021 A 
HETATM   12  C   UNL     1      30.019  45.452  56.455  1.00  0.00     0.024 A 
HETATM   13  C   UNL     1      30.967  44.477  56.778  1.00  0.00     0.002 A 
HETATM   14  C   UNL     1      31.050  43.305  56.029  1.00  0.00     0.001 A 
HETATM   15  C   UNL     1      30.209  43.123  54.933  1.00  0.00     0.019 A 
BRANCH  11  16
HETATM   16  N   UNL     1      28.209  46.296  55.089  1.00  0.00    -0.302 NA
HETATM   17  H   UNL     1      27.973  46.857  55.912  1.00  0.00     0.124 HD
HETATM   18  H   UNL     1      28.560  46.906  54.353  1.00  0.00     0.124 HD
ENDBRANCH  11  16
ENDBRANCH   7  10
ENDBRANCH   4   6
ENDBRANCH   2   4
BRANCH   3  19
HETATM   19  C   UNL     1      23.473  43.676  50.124  1.00  0.00     0.243 C 
HETATM   20  N   UNL     1      23.964  44.191  48.947  1.00  0.00    -0.357 N 
HETATM   21  H   UNL     1      24.949  44.127  48.735  1.00  0.00     0.162 HD
HETATM   22  O   UNL     1      22.288  43.695  50.425  1.00  0.00    -0.269 OA
BRANCH  20  23
HETATM   23  C   UNL     1      23.090  44.782  47.950  1.00  0.00     0.127 C 
BRANCH  23  24
HETATM   24  C   UNL     1      22.978  46.304  48.088  1.00  0.00     0.058 C 
BRANCH  24  25
HETATM   25  C   UNL     1      21.563  46.732  48.395  1.00  0.00    -0.054 A 
HETATM   26  C   UNL     1      21.302  48.013  48.906  1.00  0.00     0.046 A 
HETATM   27  C   UNL     1      19.995  48.405  49.229  1.00  0.00     0.102 A 
HETATM   28  C   UNL     1      18.931  47.502  49.036  1.00  0.00     0.101 A 
HETATM   29  C   UNL     1      19.192  46.230  48.515  1.00  0.00     0.040 A 
HETATM   30  C   UNL     1      20.498  45.848  48.200  1.00  0.00     0.010 A 
BRANCH  27  31
HETATM   31  O   UNL     1      19.658  49.633  49.742  1.00  0.00    -0.353 OA
HETATM   32  C   UNL     1      20.699  50.583  49.919  1.00  0.00     0.210 C 
ENDBRANCH  27  31
BRANCH  28  33
HETATM   33  O   UNL     1      17.681  47.956  49.381  1.00  0.00    -0.353 OA
HETATM   34  C   UNL     1      16.573  47.456  48.647  1.00  0.00     0.210 C 
ENDBRANCH  28  33
ENDBRANCH  24  25
ENDBRANCH  23  24
ENDBRANCH  20  23
ENDBRANCH   3  19
TORSDOF 10
ENDMDL
MODEL 10
REMARK VINA RESULT:      -7.4      2.253      3.222
REMARK  10 active torsions:
REMARK  status: ('A' for Active; 'I' for Inactive)
REMARK    1  A    between atoms: C_2  and  N_3 
REMARK    2  A    between atoms: N_3  and  N_4 
REMARK       I    between atoms: N_4  and  C_5 
REMARK    3  A    between atoms: C_5  and  C_6 
REMARK    4  A    between atoms: C_7  and  N_8 
REMARK    5  A    between atoms: C_14  and  C_15 
REMARK       I    between atoms: C_15  and  N_16 
REMARK    6  A    between atoms: N_16  and  C_17 
REMARK    7  A    between atoms: C_17  and  C_18 
REMARK    8  A    between atoms: C_18  and  C_19 
REMARK    9  A    between atoms: C_21  and  O_22 
REMARK   10  A    between atoms: C_24  and  O_25 
ROOT
HETATM    1  C   UNL     1      23.300  44.161  47.654  1.00  0.00     0.070 C 
HETATM    2  C   UNL     1      22.099  44.378  48.550  1.00  0.00     0.027 C 
HETATM    3  C   UNL     1      22.181  44.253  49.892  1.00  0.00     0.100 C 
ENDROOT
BRANCH   2   4
HETATM    4  N   UNL     1      20.937  44.727  47.875  1.00  0.00    -0.302 N 
HETATM    5  H   UNL     1      20.263  43.963  47.734  1.00  0.00     0.186 HD
BRANCH   4   6
HETATM    6  N   UNL     1      20.331  45.983  47.944  1.00  0.00    -0.266 N 
HETATM    7  C   UNL     1      20.885  46.969  47.142  1.00  0.00     0.271 C 
HETATM    8  O   UNL     1      21.527  46.742  46.121  1.00  0.00    -0.266 OA
HETATM    9  H   UNL     1      19.990  46.262  48.863  1.00  0.00     0.190 HD
BRANCH   7  10
HETATM   10  C   UNL     1      20.661  48.361  47.618  1.00  0.00     0.054 A 
HETATM   11  C   UNL     1      21.370  48.905  48.710  1.00  0.00     0.021 A 
HETATM   12  C   UNL     1      20.990  50.168  49.182  1.00  0.00     0.024 A 
HETATM   13  C   UNL     1      20.029  50.927  48.508  1.00  0.00     0.002 A 
HETATM   14  C   UNL     1      19.404  50.417  47.372  1.00  0.00     0.001 A 
HETATM   15  C   UNL     1      19.713  49.132  46.930  1.00  0.00     0.019 A 
BRANCH  11  16
HETATM   16  N   UNL     1      22.310  48.159  49.460  1.00  0.00    -0.302 NA
HETATM   17  H   UNL     1      22.361  47.186  49.146  1.00  0.00     0.124 HD
HETATM   18  H   UNL     1      23.241  48.571  49.436  1.00  0.00     0.124 HD
ENDBRANCH  11  16
ENDBRANCH   7  10
ENDBRANCH   4   6
ENDBRANCH   2   4
BRANCH   3  19
HETATM   19  C   UNL     1      23.411  43.923  50.664  1.00  0.00     0.243 C 
HETATM   20  N   UNL     1      24.074  45.046  51.103  1.00  0.00    -0.357 N 
HETATM   21  H   UNL     1      23.695  45.964  50.923  1.00  0.00     0.162 HD
HETATM   22  O   UNL     1      23.802  42.784  50.876  1.00  0.00    -0.269 OA
BRANCH  20  23
HETATM   23  C   UNL     1      25.294  44.954  51.884  1.00  0.00     0.127 C 
BRANCH  23  24
HETATM   24  C   UNL     1      25.676  46.282  52.545  1.00  0.00     0.058 C 
BRANCH  24  25
HETATM   25  C   UNL     1      26.801  46.108  53.536  1.00  0.00    -0.054 A 
HETATM   26  C   UNL     1      27.478  44.882  53.636  1.00  0.00     0.046 A 
HETATM   27  C   UNL     1      28.498  44.699  54.580  1.00  0.00     0.102 A 
HETATM   28  C   UNL     1      28.849  45.760  55.438  1.00  0.00     0.101 A 
HETATM   29  C   UNL     1      28.181  46.985  55.328  1.00  0.00     0.040 A 
HETATM   30  C   UNL     1      27.164  47.155  54.387  1.00  0.00     0.010 A 
BRANCH  27  31
HETATM   31  O   UNL     1      29.199  43.531  54.748  1.00  0.00    -0.353 OA
HETATM   32  C   UNL     1      28.795  42.403  53.986  1.00  0.00     0.210 C 
ENDBRANCH  27  31
BRANCH  28  33
HETATM   33  O   UNL     1      29.852  45.504  56.340  1.00  0.00    -0.353 OA
HETATM   34  C   UNL     1      29.652  45.917  57.683  1.00  0.00     0.210 C 
ENDBRANCH  28  33
ENDBRANCH  24  25
ENDBRANCH  23  24
ENDBRANCH  20  23
ENDBRANCH   3  19
TORSDOF 10
ENDMDL
