MODEL 1
REMARK VINA RESULT:      -9.5      0.000      0.000
REMARK  9 active torsions:
REMARK  status: ('A' for Active; 'I' for Inactive)
REMARK    1  A    between atoms: O_2  and  C_3 
REMARK    2  A    between atoms: C_6  and  C_7 
REMARK    3  A    between atoms: C_13  and  C_14 
REMARK       I    between atoms: C_14  and  N_15 
REMARK    4  A    between atoms: N_15  and  N_16 
REMARK    5  A    between atoms: N_16  and  C_17 
REMARK    6  A    between atoms: C_17  and  N_18 
REMARK    7  A    between atoms: N_18  and  C_19 
REMARK    8  A    between atoms: C_19  and  C_20 
REMARK    9  A    between atoms: C_27  and  C_28 
ROOT
HETATM    1  C   UNL     1      27.816  43.976  53.269  1.00  0.00     0.118 C 
HETATM    2  N   UNL     1      27.071  45.055  52.639  1.00  0.00    -0.365 N 
HETATM    3  C   UNL     1      26.584  44.945  51.380  1.00  0.00     0.138 A 
HETATM    4  N   UNL     1      26.954  43.896  50.580  1.00  0.00    -0.240 N 
HETATM    5  N   UNL     1      26.487  43.982  49.323  1.00  0.00    -0.181 NA
HETATM    6  C   UNL     1      25.760  45.105  49.352  1.00  0.00     0.160 A 
HETATM    7  C   UNL     1      25.727  45.725  50.628  1.00  0.00     0.098 A 
HETATM    8  C   UNL     1      27.813  42.808  51.008  1.00  0.00     0.221 C 
HETATM    9  C   UNL     1      28.673  43.259  52.204  1.00  0.00     0.066 C 
HETATM   10  H   UNL     1      26.769  45.825  53.243  1.00  0.00     0.161 HD
ENDROOT
BRANCH   7  11
HETATM   11  C   UNL     1      25.042  46.921  51.087  1.00  0.00     0.275 C 
HETATM   12  N   UNL     1      23.928  47.361  50.399  1.00  0.00    -0.263 N 
HETATM   13  H   UNL     1      23.462  48.177  50.793  1.00  0.00     0.190 HD
HETATM   14  O   UNL     1      25.406  47.543  52.086  1.00  0.00    -0.266 OA
BRANCH  12  15
HETATM   15  N   UNL     1      23.153  46.572  49.526  1.00  0.00    -0.274 N 
HETATM   16  H   UNL     1      22.927  45.638  49.856  1.00  0.00     0.189 HD
BRANCH  15  17
HETATM   17  C   UNL     1      22.185  47.175  48.754  1.00  0.00     0.186 C 
HETATM   18  S   UNL     1      21.606  46.600  47.296  1.00  0.00    -0.040 SA
BRANCH  17  19
HETATM   19  N   UNL     1      21.644  48.319  49.264  1.00  0.00    -0.364 N 
HETATM   20  H   UNL     1      21.669  48.343  50.282  1.00  0.00     0.162 HD
BRANCH  19  21
HETATM   21  C   UNL     1      21.674  49.640  48.643  1.00  0.00     0.154 C 
BRANCH  21  22
HETATM   22  C   UNL     1      20.265  50.226  48.539  1.00  0.00     0.139 C 
HETATM   23  O   UNL     1      19.410  49.615  49.530  1.00  0.00    -0.384 OA
HETATM   24  C   UNL     1      18.616  50.640  50.143  1.00  0.00     0.168 C 
HETATM   25  C   UNL     1      18.800  51.892  49.312  1.00  0.00     0.029 C 
HETATM   26  C   UNL     1      20.208  51.722  48.796  1.00  0.00     0.035 C 
ENDBRANCH  21  22
ENDBRANCH  19  21
ENDBRANCH  17  19
ENDBRANCH  15  17
ENDBRANCH  12  15
ENDBRANCH   7  11
BRANCH   1  27
HETATM   27  C   UNL     1      28.614  44.522  54.439  1.00  0.00    -0.035 A 
HETATM   28  C   UNL     1      28.171  45.684  55.093  1.00  0.00     0.012 A 
HETATM   29  C   UNL     1      28.866  46.211  56.188  1.00  0.00     0.037 A 
HETATM   30  C   UNL     1      30.023  45.586  56.649  1.00  0.00     0.068 A 
HETATM   31  C   UNL     1      30.495  44.456  55.981  1.00  0.00     0.037 A 
HETATM   32  C   UNL     1      29.806  43.932  54.882  1.00  0.00     0.012 A 
BRANCH  30  33
HETATM   33  O   UNL     1      30.779  45.982  57.717  1.00  0.00    -0.356 OA
HETATM   34  C   UNL     1      31.258  44.953  58.577  1.00  0.00     0.210 C 
ENDBRANCH  30  33
ENDBRANCH   1  27
BRANCH   8  35
HETATM   35  C   UNL     1      26.974  41.591  51.328  1.00  0.00     0.409 C 
HETATM   36  F   UNL     1      25.663  41.875  51.486  1.00  0.00    -0.169 F 
HETATM   37  F   UNL     1      27.071  40.627  50.387  1.00  0.00    -0.169 F 
HETATM   38  F   UNL     1      27.392  41.033  52.493  1.00  0.00    -0.169 F 
ENDBRANCH   8  35
TORSDOF 9
ENDMDL
MODEL 2
REMARK VINA RESULT:      -9.4      1.253      1.463
REMARK  9 active torsions:
REMARK  status: ('A' for Active; 'I' for Inactive)
REMARK    1  A    between atoms: O_2  and  C_3 
REMARK    2  A    between atoms: C_6  and  C_7 
REMARK    3  A    between atoms: C_13  and  C_14 
REMARK       I    between atoms: C_14  and  N_15 
REMARK    4  A    between atoms: N_15  and  N_16 
REMARK    5  A    between atoms: N_16  and  C_17 
REMARK    6  A    between atoms: C_17  and  N_18 
REMARK    7  A    between atoms: N_18  and  C_19 
REMARK    8  A    between atoms: C_19  and  C_20 
REMARK    9  A    between atoms: C_27  and  C_28 
ROOT
HETATM    1  C   UNL     1      27.953  43.829  53.386  1.00  0.00     0.118 C 
HETATM    2  N   UNL     1      27.241  44.851  52.634  1.00  0.00    -0.365 N 
HETATM    3  C   UNL     1      26.845  44.646  51.354  1.00  0.00     0.138 A 
HETATM    4  N   UNL     1      27.282  43.552  50.656  1.00  0.00    -0.240 N 
HETATM    5  N   UNL     1      26.903  43.545  49.367  1.00  0.00    -0.181 NA
HETATM    6  C   UNL     1      26.162  44.656  49.268  1.00  0.00     0.160 A 
HETATM    7  C   UNL     1      26.033  45.360  50.494  1.00  0.00     0.098 A 
HETATM    8  C   UNL     1      28.122  42.510  51.216  1.00  0.00     0.221 C 
HETATM    9  C   UNL     1      28.891  43.056  52.435  1.00  0.00     0.066 C 
HETATM   10  H   UNL     1      26.889  45.654  53.161  1.00  0.00     0.161 HD
ENDROOT
BRANCH   7  11
HETATM   11  C   UNL     1      25.304  46.572  50.821  1.00  0.00     0.275 C 
HETATM   12  N   UNL     1      24.030  46.746  50.313  1.00  0.00    -0.263 N 
HETATM   13  H   UNL     1      23.550  47.593  50.613  1.00  0.00     0.190 HD
HETATM   14  O   UNL     1      25.772  47.441  51.558  1.00  0.00    -0.266 OA
BRANCH  12  15
HETATM   15  N   UNL     1      23.208  45.713  49.822  1.00  0.00    -0.274 N 
HETATM   16  H   UNL     1      22.507  45.360  50.468  1.00  0.00     0.189 HD
BRANCH  15  17
HETATM   17  C   UNL     1      22.838  45.720  48.496  1.00  0.00     0.186 C 
HETATM   18  S   UNL     1      22.840  44.395  47.478  1.00  0.00    -0.040 SA
BRANCH  17  19
HETATM   19  N   UNL     1      22.403  46.916  48.006  1.00  0.00    -0.364 N 
HETATM   20  H   UNL     1      22.777  47.120  47.080  1.00  0.00     0.162 HD
BRANCH  19  21
HETATM   21  C   UNL     1      21.107  47.538  48.266  1.00  0.00     0.154 C 
BRANCH  21  22
HETATM   22  C   UNL     1      21.280  48.896  48.947  1.00  0.00     0.139 C 
HETATM   23  O   UNL     1      22.642  49.040  49.406  1.00  0.00    -0.384 OA
HETATM   24  C   UNL     1      23.097  50.362  49.084  1.00  0.00     0.168 C 
HETATM   25  C   UNL     1      21.879  51.148  48.647  1.00  0.00     0.029 C 
HETATM   26  C   UNL     1      21.019  50.076  48.025  1.00  0.00     0.035 C 
ENDBRANCH  21  22
ENDBRANCH  19  21
ENDBRANCH  17  19
ENDBRANCH  15  17
ENDBRANCH  12  15
ENDBRANCH   7  11
BRANCH   1  27
HETATM   27  C   UNL     1      28.662  44.467  54.567  1.00  0.00    -0.035 A 
HETATM   28  C   UNL     1      28.112  45.615  55.163  1.00  0.00     0.012 A 
HETATM   29  C   UNL     1      28.721  46.223  56.266  1.00  0.00     0.037 A 
HETATM   30  C   UNL     1      29.898  45.696  56.795  1.00  0.00     0.068 A 
HETATM   31  C   UNL     1      30.476  44.582  56.185  1.00  0.00     0.037 A 
HETATM   32  C   UNL     1      29.871  43.976  55.078  1.00  0.00     0.012 A 
BRANCH  30  33
HETATM   33  O   UNL     1      30.579  46.177  57.878  1.00  0.00    -0.356 OA
HETATM   34  C   UNL     1      31.248  45.218  58.690  1.00  0.00     0.210 C 
ENDBRANCH  30  33
ENDBRANCH   1  27
BRANCH   8  35
HETATM   35  C   UNL     1      27.277  41.304  51.560  1.00  0.00     0.409 C 
HETATM   36  F   UNL     1      25.950  41.554  51.521  1.00  0.00    -0.169 F 
HETATM   37  F   UNL     1      27.516  40.249  50.750  1.00  0.00    -0.169 F 
HETATM   38  F   UNL     1      27.556  40.889  52.823  1.00  0.00    -0.169 F 
ENDBRANCH   8  35
TORSDOF 9
ENDMDL
MODEL 3
REMARK VINA RESULT:      -9.0      3.947      5.164
REMARK  9 active torsions:
REMARK  status: ('A' for Active; 'I' for Inactive)
REMARK    1  A    between atoms: O_2  and  C_3 
REMARK    2  A    between atoms: C_6  and  C_7 
REMARK    3  A    between atoms: C_13  and  C_14 
REMARK       I    between atoms: C_14  and  N_15 
REMARK    4  A    between atoms: N_15  and  N_16 
REMARK    5  A    between atoms: N_16  and  C_17 
REMARK    6  A    between atoms: C_17  and  N_18 
REMARK    7  A    between atoms: N_18  and  C_19 
REMARK    8  A    between atoms: C_19  and  C_20 
REMARK    9  A    between atoms: C_27  and  C_28 
ROOT
HETATM    1  C   UNL     1      27.402  44.792  52.876  1.00  0.00     0.118 C 
HETATM    2  N   UNL     1      27.074  43.475  52.352  1.00  0.00    -0.365 N 
HETATM    3  C   UNL     1      25.918  43.242  51.685  1.00  0.00     0.138 A 
HETATM    4  N   UNL     1      24.925  44.186  51.660  1.00  0.00    -0.240 N 
HETATM    5  N   UNL     1      23.797  43.770  51.063  1.00  0.00    -0.181 NA
HETATM    6  C   UNL     1      24.112  42.534  50.657  1.00  0.00     0.160 A 
HETATM    7  C   UNL     1      25.448  42.164  50.960  1.00  0.00     0.098 A 
HETATM    8  C   UNL     1      25.036  45.501  52.264  1.00  0.00     0.221 C 
HETATM    9  C   UNL     1      26.111  45.482  53.367  1.00  0.00     0.066 C 
HETATM   10  H   UNL     1      27.824  42.779  52.343  1.00  0.00     0.161 HD
ENDROOT
BRANCH   7  11
HETATM   11  C   UNL     1      26.186  40.946  50.673  1.00  0.00     0.275 C 
HETATM   12  N   UNL     1      25.724  40.100  49.682  1.00  0.00    -0.263 N 
HETATM   13  H   UNL     1      26.306  39.285  49.494  1.00  0.00     0.190 HD
HETATM   14  O   UNL     1      27.224  40.653  51.266  1.00  0.00    -0.266 OA
BRANCH  12  15
HETATM   15  N   UNL     1      24.830  40.468  48.658  1.00  0.00    -0.274 N 
HETATM   16  H   UNL     1      23.919  40.799  48.962  1.00  0.00     0.189 HD
BRANCH  15  17
HETATM   17  C   UNL     1      25.322  41.061  47.516  1.00  0.00     0.186 C 
HETATM   18  S   UNL     1      26.746  40.651  46.744  1.00  0.00    -0.040 SA
BRANCH  17  19
HETATM   19  N   UNL     1      24.543  42.039  46.970  1.00  0.00    -0.364 N 
HETATM   20  H   UNL     1      24.967  42.462  46.146  1.00  0.00     0.162 HD
BRANCH  19  21
HETATM   21  C   UNL     1      23.084  42.081  46.969  1.00  0.00     0.154 C 
BRANCH  21  22
HETATM   22  C   UNL     1      22.580  43.526  46.982  1.00  0.00     0.139 C 
HETATM   23  O   UNL     1      21.352  43.607  47.738  1.00  0.00    -0.384 OA
HETATM   24  C   UNL     1      21.410  44.765  48.582  1.00  0.00     0.168 C 
HETATM   25  C   UNL     1      22.608  45.574  48.133  1.00  0.00     0.029 C 
HETATM   26  C   UNL     1      23.545  44.500  47.638  1.00  0.00     0.035 C 
ENDBRANCH  21  22
ENDBRANCH  19  21
ENDBRANCH  17  19
ENDBRANCH  15  17
ENDBRANCH  12  15
ENDBRANCH   7  11
BRANCH   1  27
HETATM   27  C   UNL     1      28.476  44.664  53.941  1.00  0.00    -0.035 A 
HETATM   28  C   UNL     1      28.614  45.675  54.906  1.00  0.00     0.012 A 
HETATM   29  C   UNL     1      29.578  45.587  55.918  1.00  0.00     0.037 A 
HETATM   30  C   UNL     1      30.428  44.485  55.981  1.00  0.00     0.068 A 
HETATM   31  C   UNL     1      30.329  43.496  55.002  1.00  0.00     0.037 A 
HETATM   32  C   UNL     1      29.370  43.585  53.987  1.00  0.00     0.012 A 
BRANCH  30  33
HETATM   33  O   UNL     1      31.392  44.266  56.925  1.00  0.00    -0.356 OA
HETATM   34  C   UNL     1      31.701  42.908  57.219  1.00  0.00     0.210 C 
ENDBRANCH  30  33
ENDBRANCH   1  27
BRANCH   8  35
HETATM   35  C   UNL     1      25.325  46.530  51.194  1.00  0.00     0.409 C 
HETATM   36  F   UNL     1      26.004  46.027  50.140  1.00  0.00    -0.169 F 
HETATM   37  F   UNL     1      24.205  47.115  50.714  1.00  0.00    -0.169 F 
HETATM   38  F   UNL     1      26.089  47.529  51.706  1.00  0.00    -0.169 F 
ENDBRANCH   8  35
TORSDOF 9
ENDMDL
MODEL 4
REMARK VINA RESULT:      -9.0      4.619      7.412
REMARK  9 active torsions:
REMARK  status: ('A' for Active; 'I' for Inactive)
REMARK    1  A    between atoms: O_2  and  C_3 
REMARK    2  A    between atoms: C_6  and  C_7 
REMARK    3  A    between atoms: C_13  and  C_14 
REMARK       I    between atoms: C_14  and  N_15 
REMARK    4  A    between atoms: N_15  and  N_16 
REMARK    5  A    between atoms: N_16  and  C_17 
REMARK    6  A    between atoms: C_17  and  N_18 
REMARK    7  A    between atoms: N_18  and  C_19 
REMARK    8  A    between atoms: C_19  and  C_20 
REMARK    9  A    between atoms: C_27  and  C_28 
ROOT
HETATM    1  C   UNL     1      27.535  44.763  52.975  1.00  0.00     0.118 C 
HETATM    2  N   UNL     1      27.137  43.487  52.401  1.00  0.00    -0.365 N 
HETATM    3  C   UNL     1      25.975  43.344  51.721  1.00  0.00     0.138 A 
HETATM    4  N   UNL     1      25.036  44.341  51.728  1.00  0.00    -0.240 N 
HETATM    5  N   UNL     1      23.890  44.011  51.111  1.00  0.00    -0.181 NA
HETATM    6  C   UNL     1      24.138  42.775  50.661  1.00  0.00     0.160 A 
HETATM    7  C   UNL     1      25.450  42.321  50.955  1.00  0.00     0.098 A 
HETATM    8  C   UNL     1      25.215  45.625  52.381  1.00  0.00     0.221 C 
HETATM    9  C   UNL     1      26.282  45.506  53.486  1.00  0.00     0.066 C 
HETATM   10  H   UNL     1      27.848  42.751  52.369  1.00  0.00     0.161 HD
ENDROOT
BRANCH   7  11
HETATM   11  C   UNL     1      26.121  41.075  50.625  1.00  0.00     0.275 C 
HETATM   12  N   UNL     1      25.572  40.254  49.659  1.00  0.00    -0.263 N 
HETATM   13  H   UNL     1      26.110  39.417  49.437  1.00  0.00     0.190 HD
HETATM   14  O   UNL     1      27.177  40.738  51.161  1.00  0.00    -0.266 OA
BRANCH  12  15
HETATM   15  N   UNL     1      24.640  40.663  48.684  1.00  0.00    -0.274 N 
HETATM   16  H   UNL     1      24.075  41.472  48.925  1.00  0.00     0.189 HD
BRANCH  15  17
HETATM   17  C   UNL     1      24.965  40.544  47.351  1.00  0.00     0.186 C 
HETATM   18  S   UNL     1      24.029  39.797  46.186  1.00  0.00    -0.040 SA
BRANCH  17  19
HETATM   19  N   UNL     1      26.138  41.126  46.971  1.00  0.00    -0.364 N 
HETATM   20  H   UNL     1      26.641  41.541  47.754  1.00  0.00     0.162 HD
BRANCH  19  21
HETATM   21  C   UNL     1      27.005  40.690  45.879  1.00  0.00     0.154 C 
BRANCH  21  22
HETATM   22  C   UNL     1      28.106  39.761  46.395  1.00  0.00     0.139 C 
HETATM   23  O   UNL     1      28.274  39.948  47.817  1.00  0.00    -0.384 OA
HETATM   24  C   UNL     1      28.400  38.660  48.436  1.00  0.00     0.168 C 
HETATM   25  C   UNL     1      28.584  37.655  47.320  1.00  0.00     0.029 C 
HETATM   26  C   UNL     1      27.798  38.286  46.196  1.00  0.00     0.035 C 
ENDBRANCH  21  22
ENDBRANCH  19  21
ENDBRANCH  17  19
ENDBRANCH  15  17
ENDBRANCH  12  15
ENDBRANCH   7  11
BRANCH   1  27
HETATM   27  C   UNL     1      28.594  44.536  54.038  1.00  0.00    -0.035 A 
HETATM   28  C   UNL     1      29.383  43.374  53.988  1.00  0.00     0.012 A 
HETATM   29  C   UNL     1      30.384  43.134  54.937  1.00  0.00     0.037 A 
HETATM   30  C   UNL     1      30.614  44.053  55.959  1.00  0.00     0.068 A 
HETATM   31  C   UNL     1      29.808  45.189  56.044  1.00  0.00     0.037 A 
HETATM   32  C   UNL     1      28.803  45.427  55.100  1.00  0.00     0.012 A 
BRANCH  30  33
HETATM   33  O   UNL     1      31.570  43.952  56.932  1.00  0.00    -0.356 OA
HETATM   34  C   UNL     1      31.314  44.636  58.152  1.00  0.00     0.210 C 
ENDBRANCH  30  33
ENDBRANCH   1  27
BRANCH   8  35
HETATM   35  C   UNL     1      25.567  46.675  51.351  1.00  0.00     0.409 C 
HETATM   36  F   UNL     1      26.390  47.635  51.827  1.00  0.00    -0.169 F 
HETATM   37  F   UNL     1      26.147  46.153  50.248  1.00  0.00    -0.169 F 
HETATM   38  F   UNL     1      24.441  47.306  50.929  1.00  0.00    -0.169 F 
ENDBRANCH   8  35
TORSDOF 9
ENDMDL
MODEL 5
REMARK VINA RESULT:      -8.9      2.639      3.637
REMARK  9 active torsions:
REMARK  status: ('A' for Active; 'I' for Inactive)
REMARK    1  A    between atoms: O_2  and  C_3 
REMARK    2  A    between atoms: C_6  and  C_7 
REMARK    3  A    between atoms: C_13  and  C_14 
REMARK       I    between atoms: C_14  and  N_15 
REMARK    4  A    between atoms: N_15  and  N_16 
REMARK    5  A    between atoms: N_16  and  C_17 
REMARK    6  A    between atoms: C_17  and  N_18 
REMARK    7  A    between atoms: N_18  and  C_19 
REMARK    8  A    between atoms: C_19  and  C_20 
REMARK    9  A    between atoms: C_27  and  C_28 
ROOT
HETATM    1  C   UNL     1      27.405  41.746  51.728  1.00  0.00     0.118 C 
HETATM    2  N   UNL     1      26.201  42.469  51.346  1.00  0.00    -0.365 N 
HETATM    3  C   UNL     1      25.580  42.243  50.164  1.00  0.00     0.138 A 
HETATM    4  N   UNL     1      26.177  41.479  49.197  1.00  0.00    -0.240 N 
HETATM    5  N   UNL     1      25.498  41.442  48.039  1.00  0.00    -0.181 NA
HETATM    6  C   UNL     1      24.411  42.174  48.307  1.00  0.00     0.160 A 
HETATM    7  C   UNL     1      24.369  42.656  49.642  1.00  0.00     0.098 A 
HETATM    8  C   UNL     1      27.452  40.805  49.363  1.00  0.00     0.221 C 
HETATM    9  C   UNL     1      28.268  41.495  50.473  1.00  0.00     0.066 C 
HETATM   10  H   UNL     1      25.738  43.017  52.077  1.00  0.00     0.161 HD
ENDROOT
BRANCH   7  11
HETATM   11  C   UNL     1      23.368  43.447  50.336  1.00  0.00     0.275 C 
HETATM   12  N   UNL     1      23.600  44.795  50.536  1.00  0.00    -0.263 N 
HETATM   13  H   UNL     1      22.844  45.308  50.987  1.00  0.00     0.190 HD
HETATM   14  O   UNL     1      22.308  42.962  50.732  1.00  0.00    -0.266 OA
BRANCH  12  15
HETATM   15  N   UNL     1      24.524  45.572  49.811  1.00  0.00    -0.274 N 
HETATM   16  H   UNL     1      24.188  45.955  48.932  1.00  0.00     0.189 HD
BRANCH  15  17
HETATM   17  C   UNL     1      25.420  46.364  50.495  1.00  0.00     0.186 C 
HETATM   18  S   UNL     1      25.609  46.408  52.155  1.00  0.00    -0.040 SA
BRANCH  17  19
HETATM   19  N   UNL     1      26.234  47.142  49.726  1.00  0.00    -0.364 N 
HETATM   20  H   UNL     1      26.660  46.625  48.958  1.00  0.00     0.162 HD
BRANCH  19  21
HETATM   21  C   UNL     1      26.061  48.566  49.452  1.00  0.00     0.154 C 
BRANCH  21  22
HETATM   22  C   UNL     1      24.745  48.824  48.715  1.00  0.00     0.139 C 
HETATM   23  O   UNL     1      23.657  48.864  49.664  1.00  0.00    -0.384 OA
HETATM   24  C   UNL     1      22.801  49.966  49.331  1.00  0.00     0.168 C 
HETATM   25  C   UNL     1      23.235  50.461  47.968  1.00  0.00     0.029 C 
HETATM   26  C   UNL     1      24.712  50.152  47.977  1.00  0.00     0.035 C 
ENDBRANCH  21  22
ENDBRANCH  19  21
ENDBRANCH  17  19
ENDBRANCH  15  17
ENDBRANCH  12  15
ENDBRANCH   7  11
BRANCH   1  27
HETATM   27  C   UNL     1      28.124  42.499  52.832  1.00  0.00    -0.035 A 
HETATM   28  C   UNL     1      29.500  42.290  53.025  1.00  0.00     0.012 A 
HETATM   29  C   UNL     1      30.206  42.978  54.019  1.00  0.00     0.037 A 
HETATM   30  C   UNL     1      29.548  43.889  54.842  1.00  0.00     0.068 A 
HETATM   31  C   UNL     1      28.174  44.073  54.687  1.00  0.00     0.037 A 
HETATM   32  C   UNL     1      27.465  43.381  53.699  1.00  0.00     0.012 A 
BRANCH  30  33
HETATM   33  O   UNL     1      30.121  44.641  55.830  1.00  0.00    -0.356 OA
HETATM   34  C   UNL     1      31.121  44.005  56.617  1.00  0.00     0.210 C 
ENDBRANCH  30  33
ENDBRANCH   1  27
BRANCH   8  35
HETATM   35  C   UNL     1      27.219  39.338  49.646  1.00  0.00     0.409 C 
HETATM   36  F   UNL     1      26.139  39.109  50.423  1.00  0.00    -0.169 F 
HETATM   37  F   UNL     1      27.074  38.605  48.520  1.00  0.00    -0.169 F 
HETATM   38  F   UNL     1      28.287  38.819  50.306  1.00  0.00    -0.169 F 
ENDBRANCH   8  35
TORSDOF 9
ENDMDL
MODEL 6
REMARK VINA RESULT:      -8.8      3.486      5.865
REMARK  9 active torsions:
REMARK  status: ('A' for Active; 'I' for Inactive)
REMARK    1  A    between atoms: O_2  and  C_3 
REMARK    2  A    between atoms: C_6  and  C_7 
REMARK    3  A    between atoms: C_13  and  C_14 
REMARK       I    between atoms: C_14  and  N_15 
REMARK    4  A    between atoms: N_15  and  N_16 
REMARK    5  A    between atoms: N_16  and  C_17 
REMARK    6  A    between atoms: C_17  and  N_18 
REMARK    7  A    between atoms: N_18  and  C_19 
REMARK    8  A    between atoms: C_19  and  C_20 
REMARK    9  A    between atoms: C_27  and  C_28 
ROOT
HETATM    1  C   UNL     1      27.870  41.545  51.386  1.00  0.00     0.118 C 
HETATM    2  N   UNL     1      26.644  42.326  51.317  1.00  0.00    -0.365 N 
HETATM    3  C   UNL     1      26.305  43.207  52.289  1.00  0.00     0.138 A 
HETATM    4  N   UNL     1      26.998  43.242  53.470  1.00  0.00    -0.240 N 
HETATM    5  N   UNL     1      26.475  44.080  54.380  1.00  0.00    -0.181 NA
HETATM    6  C   UNL     1      25.442  44.624  53.726  1.00  0.00     0.160 A 
HETATM    7  C   UNL     1      25.317  44.167  52.388  1.00  0.00     0.098 A 
HETATM    8  C   UNL     1      28.159  42.420  53.758  1.00  0.00     0.221 C 
HETATM    9  C   UNL     1      28.154  41.171  52.856  1.00  0.00     0.066 C 
HETATM   10  H   UNL     1      26.142  42.324  50.424  1.00  0.00     0.161 HD
ENDROOT
BRANCH   7  11
HETATM   11  C   UNL     1      24.368  44.523  51.347  1.00  0.00     0.275 C 
HETATM   12  N   UNL     1      24.357  45.818  50.865  1.00  0.00    -0.263 N 
HETATM   13  H   UNL     1      23.703  45.997  50.104  1.00  0.00     0.190 HD
HETATM   14  O   UNL     1      23.590  43.702  50.861  1.00  0.00    -0.266 OA
BRANCH  12  15
HETATM   15  N   UNL     1      25.415  46.739  50.997  1.00  0.00    -0.274 N 
HETATM   16  H   UNL     1      26.242  46.398  51.479  1.00  0.00     0.189 HD
BRANCH  15  17
HETATM   17  C   UNL     1      25.653  47.641  49.984  1.00  0.00     0.186 C 
HETATM   18  S   UNL     1      27.160  48.140  49.461  1.00  0.00    -0.040 SA
BRANCH  17  19
HETATM   19  N   UNL     1      24.549  48.124  49.346  1.00  0.00    -0.364 N 
HETATM   20  H   UNL     1      23.682  47.745  49.724  1.00  0.00     0.162 HD
BRANCH  19  21
HETATM   21  C   UNL     1      24.403  49.452  48.757  1.00  0.00     0.154 C 
BRANCH  21  22
HETATM   22  C   UNL     1      22.959  49.697  48.314  1.00  0.00     0.139 C 
HETATM   23  O   UNL     1      22.053  49.039  49.226  1.00  0.00    -0.384 OA
HETATM   24  C   UNL     1      20.968  49.932  49.516  1.00  0.00     0.168 C 
HETATM   25  C   UNL     1      21.075  51.083  48.538  1.00  0.00     0.029 C 
HETATM   26  C   UNL     1      22.565  51.165  48.311  1.00  0.00     0.035 C 
ENDBRANCH  21  22
ENDBRANCH  19  21
ENDBRANCH  17  19
ENDBRANCH  15  17
ENDBRANCH  12  15
ENDBRANCH   7  11
BRANCH   1  27
HETATM   27  C   UNL     1      27.767  40.352  50.454  1.00  0.00    -0.035 A 
HETATM   28  C   UNL     1      26.633  40.211  49.637  1.00  0.00     0.012 A 
HETATM   29  C   UNL     1      26.506  39.137  48.748  1.00  0.00     0.037 A 
HETATM   30  C   UNL     1      27.513  38.177  48.663  1.00  0.00     0.068 A 
HETATM   31  C   UNL     1      28.623  38.283  49.500  1.00  0.00     0.037 A 
HETATM   32  C   UNL     1      28.748  39.353  50.393  1.00  0.00     0.012 A 
BRANCH  30  33
HETATM   33  O   UNL     1      27.524  37.096  47.825  1.00  0.00    -0.356 OA
HETATM   34  C   UNL     1      28.403  37.164  46.708  1.00  0.00     0.210 C 
ENDBRANCH  30  33
ENDBRANCH   1  27
BRANCH   8  35
HETATM   35  C   UNL     1      29.418  43.243  53.597  1.00  0.00     0.409 C 
HETATM   36  F   UNL     1      29.735  43.954  54.700  1.00  0.00    -0.169 F 
HETATM   37  F   UNL     1      30.494  42.493  53.272  1.00  0.00    -0.169 F 
HETATM   38  F   UNL     1      29.258  44.141  52.590  1.00  0.00    -0.169 F 
ENDBRANCH   8  35
TORSDOF 9
ENDMDL
MODEL 7
REMARK VINA RESULT:      -8.7      4.358     10.566
REMARK  9 active torsions:
REMARK  status: ('A' for Active; 'I' for Inactive)
REMARK    1  A    between atoms: O_2  and  C_3 
REMARK    2  A    between atoms: C_6  and  C_7 
REMARK    3  A    between atoms: C_13  and  C_14 
REMARK       I    between atoms: C_14  and  N_15 
REMARK    4  A    between atoms: N_15  and  N_16 
REMARK    5  A    between atoms: N_16  and  C_17 
REMARK    6  A    between atoms: C_17  and  N_18 
REMARK    7  A    between atoms: N_18  and  C_19 
REMARK    8  A    between atoms: C_19  and  C_20 
REMARK    9  A    between atoms: C_27  and  C_28 
ROOT
HETATM    1  C   UNL     1      21.329  47.946  48.645  1.00  0.00     0.118 C 
HETATM    2  N   UNL     1      22.363  47.128  49.260  1.00  0.00    -0.365 N 
HETATM    3  C   UNL     1      23.611  47.605  49.480  1.00  0.00     0.138 A 
HETATM    4  N   UNL     1      24.005  48.803  48.943  1.00  0.00    -0.240 N 
HETATM    5  N   UNL     1      25.301  49.088  49.146  1.00  0.00    -0.181 NA
HETATM    6  C   UNL     1      25.724  48.050  49.878  1.00  0.00     0.160 A 
HETATM    7  C   UNL     1      24.699  47.115  50.176  1.00  0.00     0.098 A 
HETATM    8  C   UNL     1      23.136  49.676  48.175  1.00  0.00     0.221 C 
HETATM    9  C   UNL     1      21.970  48.863  47.581  1.00  0.00     0.066 C 
HETATM   10  H   UNL     1      22.064  46.247  49.688  1.00  0.00     0.161 HD
ENDROOT
BRANCH   7  11
HETATM   11  C   UNL     1      24.728  45.889  50.955  1.00  0.00     0.275 C 
HETATM   12  N   UNL     1      25.303  45.907  52.212  1.00  0.00    -0.263 N 
HETATM   13  H   UNL     1      25.254  45.030  52.729  1.00  0.00     0.190 HD
HETATM   14  O   UNL     1      24.235  44.839  50.543  1.00  0.00    -0.266 OA
BRANCH  12  15
HETATM   15  N   UNL     1      25.527  47.065  52.982  1.00  0.00    -0.274 N 
HETATM   16  H   UNL     1      24.711  47.646  53.156  1.00  0.00     0.189 HD
BRANCH  15  17
HETATM   17  C   UNL     1      26.452  47.027  54.002  1.00  0.00     0.186 C 
HETATM   18  S   UNL     1      26.533  48.097  55.282  1.00  0.00    -0.040 SA
BRANCH  17  19
HETATM   19  N   UNL     1      27.345  45.997  53.956  1.00  0.00    -0.364 N 
HETATM   20  H   UNL     1      28.123  46.182  53.324  1.00  0.00     0.162 HD
BRANCH  19  21
HETATM   21  C   UNL     1      27.680  45.094  55.053  1.00  0.00     0.154 C 
BRANCH  21  22
HETATM   22  C   UNL     1      28.312  43.805  54.525  1.00  0.00     0.139 C 
HETATM   23  O   UNL     1      28.159  43.741  53.090  1.00  0.00    -0.384 OA
HETATM   24  C   UNL     1      29.398  43.298  52.518  1.00  0.00     0.168 C 
HETATM   25  C   UNL     1      30.262  42.818  53.664  1.00  0.00     0.029 C 
HETATM   26  C   UNL     1      29.804  43.704  54.796  1.00  0.00     0.035 C 
ENDBRANCH  21  22
ENDBRANCH  19  21
ENDBRANCH  17  19
ENDBRANCH  15  17
ENDBRANCH  12  15
ENDBRANCH   7  11
BRANCH   1  27
HETATM   27  C   UNL     1      20.225  47.054  48.107  1.00  0.00    -0.035 A 
HETATM   28  C   UNL     1      20.334  45.660  48.251  1.00  0.00     0.012 A 
HETATM   29  C   UNL     1      19.331  44.802  47.787  1.00  0.00     0.037 A 
HETATM   30  C   UNL     1      18.197  45.321  47.166  1.00  0.00     0.068 A 
HETATM   31  C   UNL     1      18.098  46.700  46.979  1.00  0.00     0.037 A 
HETATM   32  C   UNL     1      19.103  47.560  47.436  1.00  0.00     0.012 A 
BRANCH  30  33
HETATM   33  O   UNL     1      17.138  44.599  46.690  1.00  0.00    -0.356 OA
HETATM   34  C   UNL     1      17.126  44.327  45.293  1.00  0.00     0.210 C 
ENDBRANCH  30  33
ENDBRANCH   1  27
BRANCH   8  35
HETATM   35  C   UNL     1      22.660  50.816  49.046  1.00  0.00     0.409 C 
HETATM   36  F   UNL     1      21.621  51.496  48.515  1.00  0.00    -0.169 F 
HETATM   37  F   UNL     1      22.292  50.411  50.282  1.00  0.00    -0.169 F 
HETATM   38  F   UNL     1      23.662  51.716  49.221  1.00  0.00    -0.169 F 
ENDBRANCH   8  35
TORSDOF 9
ENDMDL
MODEL 8
REMARK VINA RESULT:      -8.5      2.060      2.862
REMARK  9 active torsions:
REMARK  status: ('A' for Active; 'I' for Inactive)
REMARK    1  A    between atoms: O_2  and  C_3 
REMARK    2  A    between atoms: C_6  and  C_7 
REMARK    3  A    between atoms: C_13  and  C_14 
REMARK       I    between atoms: C_14  and  N_15 
REMARK    4  A    between atoms: N_15  and  N_16 
REMARK    5  A    between atoms: N_16  and  C_17 
REMARK    6  A    between atoms: C_17  and  N_18 
REMARK    7  A    between atoms: N_18  and  C_19 
REMARK    8  A    between atoms: C_19  and  C_20 
REMARK    9  A    between atoms: C_27  and  C_28 
ROOT
HETATM    1  C   UNL     1      27.592  43.559  52.859  1.00  0.00     0.118 C 
HETATM    2  N   UNL     1      26.915  44.744  52.355  1.00  0.00    -0.365 N 
HETATM    3  C   UNL     1      26.328  44.762  51.134  1.00  0.00     0.138 A 
HETATM    4  N   UNL     1      26.529  43.738  50.248  1.00  0.00    -0.240 N 
HETATM    5  N   UNL     1      25.982  43.950  49.040  1.00  0.00    -0.181 NA
HETATM    6  C   UNL     1      25.376  45.134  49.191  1.00  0.00     0.160 A 
HETATM    7  C   UNL     1      25.501  45.669  50.499  1.00  0.00     0.098 A 
HETATM    8  C   UNL     1      27.303  42.546  50.542  1.00  0.00     0.221 C 
HETATM    9  C   UNL     1      28.291  42.833  51.690  1.00  0.00     0.066 C 
HETATM   10  H   UNL     1      26.738  45.497  53.024  1.00  0.00     0.161 HD
ENDROOT
BRANCH   7  11
HETATM   11  C   UNL     1      24.976  46.893  51.080  1.00  0.00     0.275 C 
HETATM   12  N   UNL     1      23.939  47.547  50.442  1.00  0.00    -0.263 N 
HETATM   13  H   UNL     1      23.582  48.373  50.919  1.00  0.00     0.190 HD
HETATM   14  O   UNL     1      25.408  47.355  52.137  1.00  0.00    -0.266 OA
BRANCH  12  15
HETATM   15  N   UNL     1      23.076  46.962  49.494  1.00  0.00    -0.274 N 
HETATM   16  H   UNL     1      22.771  46.014  49.698  1.00  0.00     0.189 HD
BRANCH  15  17
HETATM   17  C   UNL     1      22.152  47.752  48.847  1.00  0.00     0.186 C 
HETATM   18  S   UNL     1      22.480  49.199  48.078  1.00  0.00    -0.040 SA
BRANCH  17  19
HETATM   19  N   UNL     1      20.876  47.272  48.815  1.00  0.00    -0.364 N 
HETATM   20  H   UNL     1      20.234  47.900  48.333  1.00  0.00     0.162 HD
BRANCH  19  21
HETATM   21  C   UNL     1      20.482  45.868  48.756  1.00  0.00     0.154 C 
BRANCH  21  22
HETATM   22  C   UNL     1      20.585  45.332  47.326  1.00  0.00     0.139 C 
HETATM   23  O   UNL     1      20.108  43.970  47.282  1.00  0.00    -0.384 OA
HETATM   24  C   UNL     1      19.277  43.813  46.123  1.00  0.00     0.168 C 
HETATM   25  C   UNL     1      19.465  45.056  45.279  1.00  0.00     0.029 C 
HETATM   26  C   UNL     1      19.742  46.107  46.326  1.00  0.00     0.035 C 
ENDBRANCH  21  22
ENDBRANCH  19  21
ENDBRANCH  17  19
ENDBRANCH  15  17
ENDBRANCH  12  15
ENDBRANCH   7  11
BRANCH   1  27
HETATM   27  C   UNL     1      28.525  43.948  53.991  1.00  0.00    -0.035 A 
HETATM   28  C   UNL     1      28.292  45.139  54.698  1.00  0.00     0.012 A 
HETATM   29  C   UNL     1      29.116  45.527  55.761  1.00  0.00     0.037 A 
HETATM   30  C   UNL     1      30.196  44.729  56.136  1.00  0.00     0.068 A 
HETATM   31  C   UNL     1      30.463  43.566  55.413  1.00  0.00     0.037 A 
HETATM   32  C   UNL     1      29.643  43.181  54.346  1.00  0.00     0.012 A 
BRANCH  30  33
HETATM   33  O   UNL     1      31.061  44.979  57.165  1.00  0.00    -0.356 OA
HETATM   34  C   UNL     1      30.513  45.595  58.324  1.00  0.00     0.210 C 
ENDBRANCH  30  33
ENDBRANCH   1  27
BRANCH   8  35
HETATM   35  C   UNL     1      26.371  41.398  50.858  1.00  0.00     0.409 C 
HETATM   36  F   UNL     1      26.143  40.590  49.800  1.00  0.00    -0.169 F 
HETATM   37  F   UNL     1      26.819  40.624  51.871  1.00  0.00    -0.169 F 
HETATM   38  F   UNL     1      25.161  41.877  51.247  1.00  0.00    -0.169 F 
ENDBRANCH   8  35
TORSDOF 9
ENDMDL
MODEL 9
REMARK VINA RESULT:      -8.5      4.952      8.044
REMARK  9 active torsions:
REMARK  status: ('A' for Active; 'I' for Inactive)
REMARK    1  A    between atoms: O_2  and  C_3 
REMARK    2  A    between atoms: C_6  and  C_7 
REMARK    3  A    between atoms: C_13  and  C_14 
REMARK       I    between atoms: C_14  and  N_15 
REMARK    4  A    between atoms: N_15  and  N_16 
REMARK    5  A    between atoms: N_16  and  C_17 
REMARK    6  A    between atoms: C_17  and  N_18 
REMARK    7  A    between atoms: N_18  and  C_19 
REMARK    8  A    between atoms: C_19  and  C_20 
REMARK    9  A    between atoms: C_27  and  C_28 
ROOT
HETATM    1  C   UNL     1      27.628  44.189  52.788  1.00  0.00     0.118 C 
HETATM    2  N   UNL     1      27.787  42.947  52.047  1.00  0.00    -0.365 N 
HETATM    3  C   UNL     1      26.800  42.457  51.259  1.00  0.00     0.138 A 
HETATM    4  N   UNL     1      25.544  43.002  51.295  1.00  0.00    -0.240 N 
HETATM    5  N   UNL     1      24.644  42.338  50.550  1.00  0.00    -0.181 NA
HETATM    6  C   UNL     1      25.377  41.367  49.992  1.00  0.00     0.160 A 
HETATM    7  C   UNL     1      26.750  41.422  50.345  1.00  0.00     0.098 A 
HETATM    8  C   UNL     1      25.179  44.156  52.095  1.00  0.00     0.221 C 
HETATM    9  C   UNL     1      26.166  44.313  53.268  1.00  0.00     0.066 C 
HETATM   10  H   UNL     1      28.731  42.556  51.996  1.00  0.00     0.161 HD
ENDROOT
BRANCH   7  11
HETATM   11  C   UNL     1      27.869  40.589  49.941  1.00  0.00     0.275 C 
HETATM   12  N   UNL     1      28.153  40.455  48.595  1.00  0.00    -0.263 N 
HETATM   13  H   UNL     1      28.976  39.896  48.373  1.00  0.00     0.190 HD
HETATM   14  O   UNL     1      28.591  40.018  50.759  1.00  0.00    -0.266 OA
BRANCH  12  15
HETATM   15  N   UNL     1      27.715  41.334  47.585  1.00  0.00    -0.274 N 
HETATM   16  H   UNL     1      28.277  42.170  47.452  1.00  0.00     0.189 HD
BRANCH  15  17
HETATM   17  C   UNL     1      27.148  40.817  46.441  1.00  0.00     0.186 C 
HETATM   18  S   UNL     1      25.510  40.620  46.172  1.00  0.00    -0.040 SA
BRANCH  17  19
HETATM   19  N   UNL     1      28.017  40.477  45.447  1.00  0.00    -0.364 N 
HETATM   20  H   UNL     1      28.195  39.474  45.409  1.00  0.00     0.162 HD
BRANCH  19  21
HETATM   21  C   UNL     1      28.164  41.150  44.160  1.00  0.00     0.154 C 
BRANCH  21  22
HETATM   22  C   UNL     1      28.721  40.192  43.104  1.00  0.00     0.139 C 
HETATM   23  O   UNL     1      29.931  40.743  42.539  1.00  0.00    -0.384 OA
HETATM   24  C   UNL     1      30.906  39.696  42.436  1.00  0.00     0.168 C 
HETATM   25  C   UNL     1      30.179  38.395  42.701  1.00  0.00     0.029 C 
HETATM   26  C   UNL     1      29.097  38.829  43.659  1.00  0.00     0.035 C 
ENDBRANCH  21  22
ENDBRANCH  19  21
ENDBRANCH  17  19
ENDBRANCH  15  17
ENDBRANCH  12  15
ENDBRANCH   7  11
BRANCH   1  27
HETATM   27  C   UNL     1      28.652  44.251  53.906  1.00  0.00    -0.035 A 
HETATM   28  C   UNL     1      28.609  45.315  54.822  1.00  0.00     0.012 A 
HETATM   29  C   UNL     1      29.521  45.400  55.880  1.00  0.00     0.037 A 
HETATM   30  C   UNL     1      30.501  44.422  56.041  1.00  0.00     0.068 A 
HETATM   31  C   UNL     1      30.580  43.384  55.111  1.00  0.00     0.037 A 
HETATM   32  C   UNL     1      29.672  43.301  54.050  1.00  0.00     0.012 A 
BRANCH  30  33
HETATM   33  O   UNL     1      31.434  44.374  57.038  1.00  0.00    -0.356 OA
HETATM   34  C   UNL     1      32.016  43.103  57.308  1.00  0.00     0.210 C 
ENDBRANCH  30  33
ENDBRANCH   1  27
BRANCH   8  35
HETATM   35  C   UNL     1      25.124  45.387  51.219  1.00  0.00     0.409 C 
HETATM   36  F   UNL     1      25.386  46.530  51.889  1.00  0.00    -0.169 F 
HETATM   37  F   UNL     1      25.977  45.323  50.173  1.00  0.00    -0.169 F 
HETATM   38  F   UNL     1      23.880  45.524  50.691  1.00  0.00    -0.169 F 
ENDBRANCH   8  35
TORSDOF 9
ENDMDL
MODEL 10
REMARK VINA RESULT:      -8.4      5.215     10.993
REMARK  9 active torsions:
REMARK  status: ('A' for Active; 'I' for Inactive)
REMARK    1  A    between atoms: O_2  and  C_3 
REMARK    2  A    between atoms: C_6  and  C_7 
REMARK    3  A    between atoms: C_13  and  C_14 
REMARK       I    between atoms: C_14  and  N_15 
REMARK    4  A    between atoms: N_15  and  N_16 
REMARK    5  A    between atoms: N_16  and  C_17 
REMARK    6  A    between atoms: C_17  and  N_18 
REMARK    7  A    between atoms: N_18  and  C_19 
REMARK    8  A    between atoms: C_19  and  C_20 
REMARK    9  A    between atoms: C_27  and  C_28 
ROOT
HETATM    1  C   UNL     1      19.186  50.755  49.224  1.00  0.00     0.118 C 
HETATM    2  N   UNL     1      19.027  49.409  48.694  1.00  0.00    -0.365 N 
HETATM    3  C   UNL     1      20.076  48.712  48.194  1.00  0.00     0.138 A 
HETATM    4  N   UNL     1      21.281  49.325  47.978  1.00  0.00    -0.240 N 
HETATM    5  N   UNL     1      22.187  48.541  47.371  1.00  0.00    -0.181 NA
HETATM    6  C   UNL     1      21.537  47.378  47.243  1.00  0.00     0.160 A 
HETATM    7  C   UNL     1      20.230  47.398  47.796  1.00  0.00     0.098 A 
HETATM    8  C   UNL     1      21.563  50.709  48.315  1.00  0.00     0.221 C 
HETATM    9  C   UNL     1      20.248  51.507  48.393  1.00  0.00     0.066 C 
HETATM   10  H   UNL     1      18.137  48.939  48.881  1.00  0.00     0.161 HD
ENDROOT
BRANCH   7  11
HETATM   11  C   UNL     1      19.223  46.355  47.892  1.00  0.00     0.275 C 
HETATM   12  N   UNL     1      19.516  45.204  48.598  1.00  0.00    -0.263 N 
HETATM   13  H   UNL     1      18.757  44.528  48.670  1.00  0.00     0.190 HD
HETATM   14  O   UNL     1      18.106  46.474  47.387  1.00  0.00    -0.266 OA
BRANCH  12  15
HETATM   15  N   UNL     1      20.543  45.081  49.555  1.00  0.00    -0.274 N 
HETATM   16  H   UNL     1      20.240  44.988  50.520  1.00  0.00     0.189 HD
BRANCH  15  17
HETATM   17  C   UNL     1      21.689  44.391  49.228  1.00  0.00     0.186 C 
HETATM   18  S   UNL     1      22.041  43.746  47.726  1.00  0.00    -0.040 SA
BRANCH  17  19
HETATM   19  N   UNL     1      22.614  44.268  50.222  1.00  0.00    -0.364 N 
HETATM   20  H   UNL     1      22.260  43.748  51.024  1.00  0.00     0.162 HD
BRANCH  19  21
HETATM   21  C   UNL     1      24.061  44.169  50.050  1.00  0.00     0.154 C 
BRANCH  21  22
HETATM   22  C   UNL     1      24.757  45.440  50.542  1.00  0.00     0.139 C 
HETATM   23  O   UNL     1      26.175  45.349  50.283  1.00  0.00    -0.384 OA
HETATM   24  C   UNL     1      26.626  46.607  49.762  1.00  0.00     0.168 C 
HETATM   25  C   UNL     1      25.493  47.592  49.957  1.00  0.00     0.029 C 
HETATM   26  C   UNL     1      24.280  46.703  49.844  1.00  0.00     0.035 C 
ENDBRANCH  21  22
ENDBRANCH  19  21
ENDBRANCH  17  19
ENDBRANCH  15  17
ENDBRANCH  12  15
ENDBRANCH   7  11
BRANCH   1  27
HETATM   27  C   UNL     1      17.837  51.446  49.273  1.00  0.00    -0.035 A 
HETATM   28  C   UNL     1      16.760  50.909  48.546  1.00  0.00     0.012 A 
HETATM   29  C   UNL     1      15.493  51.504  48.579  1.00  0.00     0.037 A 
HETATM   30  C   UNL     1      15.278  52.653  49.338  1.00  0.00     0.068 A 
HETATM   31  C   UNL     1      16.350  53.219  50.029  1.00  0.00     0.037 A 
HETATM   32  C   UNL     1      17.619  52.629  49.992  1.00  0.00     0.012 A 
BRANCH  30  33
HETATM   33  O   UNL     1      14.091  53.316  49.474  1.00  0.00    -0.356 OA
HETATM   34  C   UNL     1      13.765  53.780  50.779  1.00  0.00     0.210 C 
ENDBRANCH  30  33
ENDBRANCH   1  27
BRANCH   8  35
HETATM   35  C   UNL     1      22.352  50.769  49.603  1.00  0.00     0.409 C 
HETATM   36  F   UNL     1      23.545  51.388  49.470  1.00  0.00    -0.169 F 
HETATM   37  F   UNL     1      21.681  51.388  50.599  1.00  0.00    -0.169 F 
HETATM   38  F   UNL     1      22.616  49.511  50.043  1.00  0.00    -0.169 F 
ENDBRANCH   8  35
TORSDOF 9
ENDMDL
