MODEL 1
REMARK VINA RESULT:      -7.7      0.000      0.000
REMARK  3 active torsions:
REMARK  status: ('A' for Active; 'I' for Inactive)
REMARK       I    between atoms: C_2  and  N_3 
REMARK    1  A    between atoms: N_3  and  C_4 
REMARK    2  A    between atoms: C_7  and  N_8 
REMARK       I    between atoms: N_8  and  C_9 
REMARK    3  A    between atoms: C_9  and  C_10 
ROOT
HETATM    1  C   UNL     1      24.334  45.722  49.972  1.00  0.00     0.052 A 
HETATM    2  C   UNL     1      25.571  46.344  50.088  1.00  0.00     0.148 A 
HETATM    3  N   UNL     1      26.506  46.018  51.019  1.00  0.00    -0.241 NA
HETATM    4  C   UNL     1      26.208  45.030  51.887  1.00  0.00     0.130 A 
HETATM    5  C   UNL     1      24.996  44.360  51.859  1.00  0.00     0.053 A 
HETATM    6  C   UNL     1      24.053  44.712  50.889  1.00  0.00     0.035 A 
ENDROOT
BRANCH   4   7
HETATM    7  N   UNL     1      27.239  44.762  52.788  1.00  0.00    -0.307 N 
HETATM    8  C   UNL     1      27.532  45.412  53.962  1.00  0.00     0.257 C 
HETATM    9  O   UNL     1      26.915  46.359  54.437  1.00  0.00    -0.267 OA
HETATM   10  H   UNL     1      27.753  43.937  52.515  1.00  0.00     0.170 HD
BRANCH   8  11
HETATM   11  C   UNL     1      28.698  44.871  54.725  1.00  0.00     0.032 A 
HETATM   12  C   UNL     1      29.214  45.644  55.778  1.00  0.00     0.018 A 
HETATM   13  C   UNL     1      30.299  45.184  56.528  1.00  0.00     0.025 A 
HETATM   14  C   UNL     1      30.877  43.953  56.224  1.00  0.00     0.034 A 
HETATM   15 CL   UNL     1      32.211  43.384  57.149  1.00  0.00    -0.084 Cl
HETATM   16  C   UNL     1      30.385  43.184  55.171  1.00  0.00     0.025 A 
HETATM   17  C   UNL     1      29.299  43.643  54.416  1.00  0.00     0.018 A 
ENDBRANCH   8  11
ENDBRANCH   4   7
BRANCH   1  18
HETATM   18  N   UNL     1      23.353  46.026  49.007  1.00  0.00    -0.326 N 
HETATM   19  C   UNL     1      22.737  47.248  48.814  1.00  0.00     0.218 C 
HETATM   20  C   UNL     1      21.762  47.219  47.665  1.00  0.00     0.117 C 
HETATM   21  O   UNL     1      22.929  48.271  49.462  1.00  0.00    -0.274 OA
HETATM   22  H   UNL     1      23.082  45.273  48.387  1.00  0.00     0.169 HD
ENDBRANCH   1  18
TORSDOF 3
ENDMDL
MODEL 2
REMARK VINA RESULT:      -7.6      1.397      1.966
REMARK  3 active torsions:
REMARK  status: ('A' for Active; 'I' for Inactive)
REMARK       I    between atoms: C_2  and  N_3 
REMARK    1  A    between atoms: N_3  and  C_4 
REMARK    2  A    between atoms: C_7  and  N_8 
REMARK       I    between atoms: N_8  and  C_9 
REMARK    3  A    between atoms: C_9  and  C_10 
ROOT
HETATM    1  C   UNL     1      24.064  45.288  50.252  1.00  0.00     0.052 A 
HETATM    2  C   UNL     1      24.271  44.186  51.073  1.00  0.00     0.148 A 
HETATM    3  N   UNL     1      25.323  44.053  51.924  1.00  0.00    -0.241 NA
HETATM    4  C   UNL     1      26.223  45.056  51.969  1.00  0.00     0.130 A 
HETATM    5  C   UNL     1      26.109  46.190  51.180  1.00  0.00     0.053 A 
HETATM    6  C   UNL     1      25.016  46.303  50.316  1.00  0.00     0.035 A 
ENDROOT
BRANCH   4   7
HETATM    7  N   UNL     1      27.251  44.830  52.885  1.00  0.00    -0.307 N 
HETATM    8  C   UNL     1      27.467  45.451  54.091  1.00  0.00     0.257 C 
HETATM    9  O   UNL     1      26.768  46.328  54.587  1.00  0.00    -0.267 OA
HETATM   10  H   UNL     1      27.833  44.058  52.592  1.00  0.00     0.170 HD
BRANCH   8  11
HETATM   11  C   UNL     1      28.653  44.969  54.861  1.00  0.00     0.032 A 
HETATM   12  C   UNL     1      29.227  43.742  54.492  1.00  0.00     0.018 A 
HETATM   13  C   UNL     1      30.341  43.247  55.174  1.00  0.00     0.025 A 
HETATM   14  C   UNL     1      30.881  43.973  56.233  1.00  0.00     0.034 A 
HETATM   15 CL   UNL     1      32.254  43.367  57.073  1.00  0.00    -0.084 Cl
HETATM   16  C   UNL     1      30.311  45.184  56.622  1.00  0.00     0.025 A 
HETATM   17  C   UNL     1      29.193  45.682  55.942  1.00  0.00     0.018 A 
ENDBRANCH   8  11
ENDBRANCH   4   7
BRANCH   1  18
HETATM   18  N   UNL     1      22.975  45.461  49.374  1.00  0.00    -0.326 N 
HETATM   19  C   UNL     1      22.841  44.918  48.111  1.00  0.00     0.218 C 
HETATM   20  C   UNL     1      21.527  45.286  47.470  1.00  0.00     0.117 C 
HETATM   21  O   UNL     1      23.655  44.206  47.533  1.00  0.00    -0.274 OA
HETATM   22  H   UNL     1      22.212  46.033  49.711  1.00  0.00     0.169 HD
ENDBRANCH   1  18
TORSDOF 3
ENDMDL
MODEL 3
REMARK VINA RESULT:      -7.5      2.619      2.880
REMARK  3 active torsions:
REMARK  status: ('A' for Active; 'I' for Inactive)
REMARK       I    between atoms: C_2  and  N_3 
REMARK    1  A    between atoms: N_3  and  C_4 
REMARK    2  A    between atoms: C_7  and  N_8 
REMARK       I    between atoms: N_8  and  C_9 
REMARK    3  A    between atoms: C_9  and  C_10 
ROOT
HETATM    1  C   UNL     1      25.394  43.368  49.494  1.00  0.00     0.052 A 
HETATM    2  C   UNL     1      25.562  42.498  50.564  1.00  0.00     0.148 A 
HETATM    3  N   UNL     1      26.340  42.761  51.648  1.00  0.00    -0.241 NA
HETATM    4  C   UNL     1      26.989  43.942  51.682  1.00  0.00     0.130 A 
HETATM    5  C   UNL     1      26.893  44.870  50.656  1.00  0.00     0.053 A 
HETATM    6  C   UNL     1      26.085  44.576  49.554  1.00  0.00     0.035 A 
ENDROOT
BRANCH   4   7
HETATM    7  N   UNL     1      27.743  44.121  52.842  1.00  0.00    -0.307 N 
HETATM    8  C   UNL     1      28.968  43.582  53.151  1.00  0.00     0.257 C 
HETATM    9  O   UNL     1      29.631  42.838  52.436  1.00  0.00    -0.267 OA
HETATM   10  H   UNL     1      27.305  44.791  53.457  1.00  0.00     0.170 HD
BRANCH   8  11
HETATM   11  C   UNL     1      29.533  43.983  54.475  1.00  0.00     0.032 A 
HETATM   12  C   UNL     1      28.984  45.105  55.115  1.00  0.00     0.018 A 
HETATM   13  C   UNL     1      29.471  45.520  56.358  1.00  0.00     0.025 A 
HETATM   14  C   UNL     1      30.513  44.820  56.960  1.00  0.00     0.034 A 
HETATM   15 CL   UNL     1      31.112  45.328  58.491  1.00  0.00    -0.084 Cl
HETATM   16  C   UNL     1      31.080  43.715  56.327  1.00  0.00     0.025 A 
HETATM   17  C   UNL     1      30.596  43.297  55.082  1.00  0.00     0.018 A 
ENDBRANCH   8  11
ENDBRANCH   4   7
BRANCH   1  18
HETATM   18  N   UNL     1      24.582  43.130  48.367  1.00  0.00    -0.326 N 
HETATM   19  C   UNL     1      23.200  43.103  48.337  1.00  0.00     0.218 C 
HETATM   20  C   UNL     1      22.665  42.855  46.950  1.00  0.00     0.117 C 
HETATM   21  O   UNL     1      22.448  43.265  49.292  1.00  0.00    -0.274 OA
HETATM   22  H   UNL     1      25.062  42.975  47.490  1.00  0.00     0.169 HD
ENDBRANCH   1  18
TORSDOF 3
ENDMDL
MODEL 4
REMARK VINA RESULT:      -7.5      3.970      4.477
REMARK  3 active torsions:
REMARK  status: ('A' for Active; 'I' for Inactive)
REMARK       I    between atoms: C_2  and  N_3 
REMARK    1  A    between atoms: N_3  and  C_4 
REMARK    2  A    between atoms: C_7  and  N_8 
REMARK       I    between atoms: N_8  and  C_9 
REMARK    3  A    between atoms: C_9  and  C_10 
ROOT
HETATM    1  C   UNL     1      26.771  42.045  49.207  1.00  0.00     0.052 A 
HETATM    2  C   UNL     1      26.836  43.380  49.583  1.00  0.00     0.148 A 
HETATM    3  N   UNL     1      27.323  43.817  50.775  1.00  0.00    -0.241 NA
HETATM    4  C   UNL     1      27.769  42.889  51.647  1.00  0.00     0.130 A 
HETATM    5  C   UNL     1      27.735  41.533  51.367  1.00  0.00     0.053 A 
HETATM    6  C   UNL     1      27.232  41.110  50.133  1.00  0.00     0.035 A 
ENDROOT
BRANCH   4   7
HETATM    7  N   UNL     1      28.264  43.441  52.828  1.00  0.00    -0.307 N 
HETATM    8  C   UNL     1      29.496  43.248  53.406  1.00  0.00     0.257 C 
HETATM    9  O   UNL     1      30.399  42.546  52.964  1.00  0.00    -0.267 OA
HETATM   10  H   UNL     1      27.610  44.103  53.220  1.00  0.00     0.170 HD
BRANCH   8  11
HETATM   11  C   UNL     1      29.739  44.002  54.673  1.00  0.00     0.032 A 
HETATM   12  C   UNL     1      30.754  43.546  55.529  1.00  0.00     0.018 A 
HETATM   13  C   UNL     1      31.028  44.217  56.723  1.00  0.00     0.025 A 
HETATM   14  C   UNL     1      30.284  45.342  57.070  1.00  0.00     0.034 A 
HETATM   15 CL   UNL     1      30.622  46.171  58.539  1.00  0.00    -0.084 Cl
HETATM   16  C   UNL     1      29.261  45.796  56.238  1.00  0.00     0.025 A 
HETATM   17  C   UNL     1      28.983  45.125  55.041  1.00  0.00     0.018 A 
ENDBRANCH   8  11
ENDBRANCH   4   7
BRANCH   1  18
HETATM   18  N   UNL     1      26.288  41.565  47.973  1.00  0.00    -0.326 N 
HETATM   19  C   UNL     1      27.047  41.180  46.884  1.00  0.00     0.218 C 
HETATM   20  C   UNL     1      26.196  40.684  45.744  1.00  0.00     0.117 C 
HETATM   21  O   UNL     1      28.270  41.207  46.803  1.00  0.00    -0.274 OA
HETATM   22  H   UNL     1      25.283  41.485  47.883  1.00  0.00     0.169 HD
ENDBRANCH   1  18
TORSDOF 3
ENDMDL
MODEL 5
REMARK VINA RESULT:      -7.2      1.851      2.702
REMARK  3 active torsions:
REMARK  status: ('A' for Active; 'I' for Inactive)
REMARK       I    between atoms: C_2  and  N_3 
REMARK    1  A    between atoms: N_3  and  C_4 
REMARK    2  A    between atoms: C_7  and  N_8 
REMARK       I    between atoms: N_8  and  C_9 
REMARK    3  A    between atoms: C_9  and  C_10 
ROOT
HETATM    1  C   UNL     1      22.919  47.710  48.806  1.00  0.00     0.052 A 
HETATM    2  C   UNL     1      23.802  48.370  49.651  1.00  0.00     0.148 A 
HETATM    3  N   UNL     1      24.734  47.748  50.421  1.00  0.00    -0.241 NA
HETATM    4  C   UNL     1      24.800  46.402  50.360  1.00  0.00     0.130 A 
HETATM    5  C   UNL     1      23.954  45.655  49.556  1.00  0.00     0.053 A 
HETATM    6  C   UNL     1      23.007  46.319  48.771  1.00  0.00     0.035 A 
ENDROOT
BRANCH   4   7
HETATM    7  N   UNL     1      25.798  45.865  51.172  1.00  0.00    -0.307 N 
HETATM    8  C   UNL     1      25.661  44.988  52.220  1.00  0.00     0.257 C 
HETATM    9  O   UNL     1      24.609  44.506  52.626  1.00  0.00    -0.267 OA
HETATM   10  H   UNL     1      26.714  46.146  50.853  1.00  0.00     0.170 HD
BRANCH   8  11
HETATM   11  C   UNL     1      26.933  44.575  52.887  1.00  0.00     0.032 A 
HETATM   12  C   UNL     1      27.183  45.051  54.184  1.00  0.00     0.018 A 
HETATM   13  C   UNL     1      28.353  44.692  54.857  1.00  0.00     0.025 A 
HETATM   14  C   UNL     1      29.282  43.862  54.233  1.00  0.00     0.034 A 
HETATM   15 CL   UNL     1      30.723  43.416  55.061  1.00  0.00    -0.084 Cl
HETATM   16  C   UNL     1      29.055  43.396  52.939  1.00  0.00     0.025 A 
HETATM   17  C   UNL     1      27.884  43.756  52.261  1.00  0.00     0.018 A 
ENDBRANCH   8  11
ENDBRANCH   4   7
BRANCH   1  18
HETATM   18  N   UNL     1      21.956  48.329  47.983  1.00  0.00    -0.326 N 
HETATM   19  C   UNL     1      20.670  48.684  48.345  1.00  0.00     0.218 C 
HETATM   20  C   UNL     1      19.930  49.360  47.219  1.00  0.00     0.117 C 
HETATM   21  O   UNL     1      20.145  48.507  49.438  1.00  0.00    -0.274 OA
HETATM   22  H   UNL     1      22.243  48.542  47.036  1.00  0.00     0.169 HD
ENDBRANCH   1  18
TORSDOF 3
ENDMDL
MODEL 6
REMARK VINA RESULT:      -7.2      4.982      6.080
REMARK  3 active torsions:
REMARK  status: ('A' for Active; 'I' for Inactive)
REMARK       I    between atoms: C_2  and  N_3 
REMARK    1  A    between atoms: N_3  and  C_4 
REMARK    2  A    between atoms: C_7  and  N_8 
REMARK       I    between atoms: N_8  and  C_9 
REMARK    3  A    between atoms: C_9  and  C_10 
ROOT
HETATM    1  C   UNL     1      26.987  39.422  49.869  1.00  0.00     0.052 A 
HETATM    2  C   UNL     1      26.229  40.307  50.626  1.00  0.00     0.148 A 
HETATM    3  N   UNL     1      26.739  41.117  51.591  1.00  0.00    -0.241 NA
HETATM    4  C   UNL     1      28.064  41.052  51.829  1.00  0.00     0.130 A 
HETATM    5  C   UNL     1      28.900  40.191  51.135  1.00  0.00     0.053 A 
HETATM    6  C   UNL     1      28.352  39.371  50.145  1.00  0.00     0.035 A 
ENDROOT
BRANCH   4   7
HETATM    7  N   UNL     1      28.487  41.934  52.824  1.00  0.00    -0.307 N 
HETATM    8  C   UNL     1      28.600  43.301  52.755  1.00  0.00     0.257 C 
HETATM    9  O   UNL     1      28.333  44.001  51.784  1.00  0.00    -0.267 OA
HETATM   10  H   UNL     1      28.651  41.447  53.693  1.00  0.00     0.170 HD
BRANCH   8  11
HETATM   11  C   UNL     1      29.065  43.974  54.006  1.00  0.00     0.032 A 
HETATM   12  C   UNL     1      30.137  43.399  54.706  1.00  0.00     0.018 A 
HETATM   13  C   UNL     1      30.616  43.989  55.878  1.00  0.00     0.025 A 
HETATM   14  C   UNL     1      30.020  45.152  56.359  1.00  0.00     0.034 A 
HETATM   15 CL   UNL     1      30.609  45.882  57.801  1.00  0.00    -0.084 Cl
HETATM   16  C   UNL     1      28.943  45.724  55.684  1.00  0.00     0.025 A 
HETATM   17  C   UNL     1      28.459  45.134  54.510  1.00  0.00     0.018 A 
ENDBRANCH   8  11
ENDBRANCH   4   7
BRANCH   1  18
HETATM   18  N   UNL     1      26.490  38.583  48.851  1.00  0.00    -0.326 N 
HETATM   19  C   UNL     1      26.563  37.204  48.810  1.00  0.00     0.218 C 
HETATM   20  C   UNL     1      25.894  36.635  47.585  1.00  0.00     0.117 C 
HETATM   21  O   UNL     1      27.086  36.477  49.647  1.00  0.00    -0.274 OA
HETATM   22  H   UNL     1      26.025  39.041  48.077  1.00  0.00     0.169 HD
ENDBRANCH   1  18
TORSDOF 3
ENDMDL
MODEL 7
REMARK VINA RESULT:      -7.1      9.628     14.224
REMARK  3 active torsions:
REMARK  status: ('A' for Active; 'I' for Inactive)
REMARK       I    between atoms: C_2  and  N_3 
REMARK    1  A    between atoms: N_3  and  C_4 
REMARK    2  A    between atoms: C_7  and  N_8 
REMARK       I    between atoms: N_8  and  C_9 
REMARK    3  A    between atoms: C_9  and  C_10 
ROOT
HETATM    1  C   UNL     1      20.111  50.370  49.152  1.00  0.00     0.052 A 
HETATM    2  C   UNL     1      19.148  50.072  50.109  1.00  0.00     0.148 A 
HETATM    3  N   UNL     1      18.102  50.884  50.420  1.00  0.00    -0.241 NA
HETATM    4  C   UNL     1      17.999  52.054  49.758  1.00  0.00     0.130 A 
HETATM    5  C   UNL     1      18.917  52.444  48.795  1.00  0.00     0.053 A 
HETATM    6  C   UNL     1      19.981  51.590  48.492  1.00  0.00     0.035 A 
ENDROOT
BRANCH   4   7
HETATM    7  N   UNL     1      16.885  52.803  50.138  1.00  0.00    -0.307 N 
HETATM    8  C   UNL     1      15.607  52.740  49.637  1.00  0.00     0.257 C 
HETATM    9  O   UNL     1      15.215  51.988  48.751  1.00  0.00    -0.267 OA
HETATM   10  H   UNL     1      17.100  53.396  50.926  1.00  0.00     0.170 HD
BRANCH   8  11
HETATM   11  C   UNL     1      14.619  53.664  50.271  1.00  0.00     0.032 A 
HETATM   12  C   UNL     1      15.004  54.342  51.439  1.00  0.00     0.018 A 
HETATM   13  C   UNL     1      14.122  55.223  52.070  1.00  0.00     0.025 A 
HETATM   14  C   UNL     1      12.849  55.423  51.540  1.00  0.00     0.034 A 
HETATM   15 CL   UNL     1      11.763  56.508  52.315  1.00  0.00    -0.084 Cl
HETATM   16  C   UNL     1      12.448  54.743  50.392  1.00  0.00     0.025 A 
HETATM   17  C   UNL     1      13.329  53.858  49.758  1.00  0.00     0.018 A 
ENDBRANCH   8  11
ENDBRANCH   4   7
BRANCH   1  18
HETATM   18  N   UNL     1      21.194  49.541  48.796  1.00  0.00    -0.326 N 
HETATM   19  C   UNL     1      22.499  49.657  49.236  1.00  0.00     0.218 C 
HETATM   20  C   UNL     1      23.385  48.574  48.676  1.00  0.00     0.117 C 
HETATM   21  O   UNL     1      22.938  50.511  49.997  1.00  0.00    -0.274 OA
HETATM   22  H   UNL     1      20.988  48.779  48.162  1.00  0.00     0.169 HD
ENDBRANCH   1  18
TORSDOF 3
ENDMDL
MODEL 8
REMARK VINA RESULT:      -7.1      3.833      8.390
REMARK  3 active torsions:
REMARK  status: ('A' for Active; 'I' for Inactive)
REMARK       I    between atoms: C_2  and  N_3 
REMARK    1  A    between atoms: N_3  and  C_4 
REMARK    2  A    between atoms: C_7  and  N_8 
REMARK       I    between atoms: N_8  and  C_9 
REMARK    3  A    between atoms: C_9  and  C_10 
ROOT
HETATM    1  C   UNL     1      28.965  43.856  54.295  1.00  0.00     0.052 A 
HETATM    2  C   UNL     1      28.961  43.688  52.915  1.00  0.00     0.148 A 
HETATM    3  N   UNL     1      27.967  44.122  52.095  1.00  0.00    -0.241 NA
HETATM    4  C   UNL     1      26.918  44.752  52.661  1.00  0.00     0.130 A 
HETATM    5  C   UNL     1      26.826  44.956  54.029  1.00  0.00     0.053 A 
HETATM    6  C   UNL     1      27.863  44.503  54.850  1.00  0.00     0.035 A 
ENDROOT
BRANCH   4   7
HETATM    7  N   UNL     1      25.965  45.172  51.733  1.00  0.00    -0.307 N 
HETATM    8  C   UNL     1      25.643  46.456  51.366  1.00  0.00     0.257 C 
HETATM    9  O   UNL     1      26.160  47.482  51.797  1.00  0.00    -0.267 OA
HETATM   10  H   UNL     1      25.544  44.383  51.265  1.00  0.00     0.170 HD
BRANCH   8  11
HETATM   11  C   UNL     1      24.584  46.582  50.320  1.00  0.00     0.032 A 
HETATM   12  C   UNL     1      24.151  47.871  49.971  1.00  0.00     0.018 A 
HETATM   13  C   UNL     1      23.167  48.047  48.994  1.00  0.00     0.025 A 
HETATM   14  C   UNL     1      22.608  46.935  48.369  1.00  0.00     0.034 A 
HETATM   15 CL   UNL     1      21.398  47.150  47.164  1.00  0.00    -0.084 Cl
HETATM   16  C   UNL     1      23.016  45.649  48.718  1.00  0.00     0.025 A 
HETATM   17  C   UNL     1      24.000  45.469  49.698  1.00  0.00     0.018 A 
ENDBRANCH   8  11
ENDBRANCH   4   7
BRANCH   1  18
HETATM   18  N   UNL     1      29.988  43.434  55.167  1.00  0.00    -0.326 N 
HETATM   19  C   UNL     1      30.732  44.234  56.013  1.00  0.00     0.218 C 
HETATM   20  C   UNL     1      31.718  43.438  56.829  1.00  0.00     0.117 C 
HETATM   21  O   UNL     1      30.639  45.450  56.135  1.00  0.00    -0.274 OA
HETATM   22  H   UNL     1      30.188  42.442  55.180  1.00  0.00     0.169 HD
ENDBRANCH   1  18
TORSDOF 3
ENDMDL
MODEL 9
REMARK VINA RESULT:      -7.0      4.007      8.518
REMARK  3 active torsions:
REMARK  status: ('A' for Active; 'I' for Inactive)
REMARK       I    between atoms: C_2  and  N_3 
REMARK    1  A    between atoms: N_3  and  C_4 
REMARK    2  A    between atoms: C_7  and  N_8 
REMARK       I    between atoms: N_8  and  C_9 
REMARK    3  A    between atoms: C_9  and  C_10 
ROOT
HETATM    1  C   UNL     1      28.488  45.928  55.157  1.00  0.00     0.052 A 
HETATM    2  C   UNL     1      28.118  44.927  54.267  1.00  0.00     0.148 A 
HETATM    3  N   UNL     1      27.166  45.071  53.307  1.00  0.00    -0.241 NA
HETATM    4  C   UNL     1      26.541  46.262  53.218  1.00  0.00     0.130 A 
HETATM    5  C   UNL     1      26.833  47.317  54.068  1.00  0.00     0.053 A 
HETATM    6  C   UNL     1      27.818  47.145  55.045  1.00  0.00     0.035 A 
ENDROOT
BRANCH   4   7
HETATM    7  N   UNL     1      25.597  46.311  52.192  1.00  0.00    -0.307 N 
HETATM    8  C   UNL     1      25.589  47.120  51.082  1.00  0.00     0.257 C 
HETATM    9  O   UNL     1      26.438  47.955  50.791  1.00  0.00    -0.267 OA
HETATM   10  H   UNL     1      24.898  45.592  52.310  1.00  0.00     0.170 HD
BRANCH   8  11
HETATM   11  C   UNL     1      24.442  46.919  50.146  1.00  0.00     0.032 A 
HETATM   12  C   UNL     1      23.770  48.056  49.671  1.00  0.00     0.018 A 
HETATM   13  C   UNL     1      22.695  47.926  48.788  1.00  0.00     0.025 A 
HETATM   14  C   UNL     1      22.283  46.659  48.383  1.00  0.00     0.034 A 
HETATM   15 CL   UNL     1      20.961  46.497  47.294  1.00  0.00    -0.084 Cl
HETATM   16  C   UNL     1      22.931  45.520  48.860  1.00  0.00     0.025 A 
HETATM   17  C   UNL     1      24.007  45.647  49.746  1.00  0.00     0.018 A 
ENDBRANCH   8  11
ENDBRANCH   4   7
BRANCH   1  18
HETATM   18  N   UNL     1      29.483  45.814  56.149  1.00  0.00    -0.326 N 
HETATM   19  C   UNL     1      29.323  46.033  57.504  1.00  0.00     0.218 C 
HETATM   20  C   UNL     1      30.595  45.783  58.274  1.00  0.00     0.117 C 
HETATM   21  O   UNL     1      28.292  46.378  58.070  1.00  0.00    -0.274 OA
HETATM   22  H   UNL     1      30.403  45.534  55.834  1.00  0.00     0.169 HD
ENDBRANCH   1  18
TORSDOF 3
ENDMDL
MODEL 10
REMARK VINA RESULT:      -6.9      3.935      8.520
REMARK  3 active torsions:
REMARK  status: ('A' for Active; 'I' for Inactive)
REMARK       I    between atoms: C_2  and  N_3 
REMARK    1  A    between atoms: N_3  and  C_4 
REMARK    2  A    between atoms: C_7  and  N_8 
REMARK       I    between atoms: N_8  and  C_9 
REMARK    3  A    between atoms: C_9  and  C_10 
ROOT
HETATM    1  C   UNL     1      29.078  43.794  54.387  1.00  0.00     0.052 A 
HETATM    2  C   UNL     1      29.046  43.566  53.017  1.00  0.00     0.148 A 
HETATM    3  N   UNL     1      28.075  44.029  52.186  1.00  0.00    -0.241 NA
HETATM    4  C   UNL     1      27.078  44.755  52.732  1.00  0.00     0.130 A 
HETATM    5  C   UNL     1      27.016  45.025  54.090  1.00  0.00     0.053 A 
HETATM    6  C   UNL     1      28.029  44.540  54.922  1.00  0.00     0.035 A 
ENDROOT
BRANCH   4   7
HETATM    7  N   UNL     1      26.144  45.197  51.795  1.00  0.00    -0.307 N 
HETATM    8  C   UNL     1      24.980  44.584  51.401  1.00  0.00     0.257 C 
HETATM    9  O   UNL     1      24.545  43.519  51.824  1.00  0.00    -0.267 OA
HETATM   10  H   UNL     1      26.384  46.116  51.452  1.00  0.00     0.170 HD
BRANCH   8  11
HETATM   11  C   UNL     1      24.174  45.325  50.383  1.00  0.00     0.032 A 
HETATM   12  C   UNL     1      23.250  44.597  49.616  1.00  0.00     0.018 A 
HETATM   13  C   UNL     1      22.466  45.240  48.654  1.00  0.00     0.025 A 
HETATM   14  C   UNL     1      22.608  46.611  48.452  1.00  0.00     0.034 A 
HETATM   15 CL   UNL     1      21.641  47.405  47.271  1.00  0.00    -0.084 Cl
HETATM   16  C   UNL     1      23.533  47.343  49.195  1.00  0.00     0.025 A 
HETATM   17  C   UNL     1      24.322  46.701  50.158  1.00  0.00     0.018 A 
ENDBRANCH   8  11
ENDBRANCH   4   7
BRANCH   1  18
HETATM   18  N   UNL     1      30.080  43.342  55.268  1.00  0.00    -0.326 N 
HETATM   19  C   UNL     1      30.858  44.123  56.102  1.00  0.00     0.218 C 
HETATM   20  C   UNL     1      31.807  43.298  56.934  1.00  0.00     0.117 C 
HETATM   21  O   UNL     1      30.818  45.344  56.203  1.00  0.00    -0.274 OA
HETATM   22  H   UNL     1      30.236  42.342  55.299  1.00  0.00     0.169 HD
ENDBRANCH   1  18
TORSDOF 3
ENDMDL
