MODEL 1
REMARK VINA RESULT:      -7.9      0.000      0.000
REMARK  3 active torsions:
REMARK  status: ('A' for Active; 'I' for Inactive)
REMARK    1  A    between atoms: C_11  and  N_12 
REMARK       I    between atoms: N_12  and  C_13 
REMARK       I    between atoms: C_13  and  N_14 
REMARK    2  A    between atoms: N_14  and  C_15 
REMARK    3  A    between atoms: C_16  and  O_17 
ROOT
HETATM    1  N   UNL     1      21.429  50.954  48.558  1.00  0.00    -0.338 N 
HETATM    2  C   UNL     1      22.636  50.587  49.099  1.00  0.00     0.321 C 
HETATM    3  N   UNL     1      23.389  49.753  48.315  1.00  0.00    -0.306 N 
HETATM    4  O   UNL     1      22.933  51.057  50.190  1.00  0.00    -0.247 OA
HETATM    5  H   UNL     1      21.001  51.623  49.185  1.00  0.00     0.164 HD
HETATM    6  H   UNL     1      23.417  50.054  47.351  1.00  0.00     0.171 HD
ENDROOT
BRANCH   1   7
HETATM    7  C   UNL     1      20.619  50.139  47.668  1.00  0.00     0.091 C 
HETATM    8  C   UNL     1      19.577  50.954  46.898  1.00  0.00     0.063 C 
HETATM    9  C   UNL     1      18.288  51.312  47.656  1.00  0.00     0.121 C 
HETATM   10  N   UNL     1      17.785  50.121  48.440  1.00  0.00    -0.059 N 
HETATM   11  C   UNL     1      18.421  52.530  48.576  1.00  0.00     0.046 C 
HETATM   12  C   UNL     1      17.183  51.642  46.627  1.00  0.00     0.046 C 
HETATM   13  C   UNL     1      18.743  49.243  49.221  1.00  0.00     0.121 C 
HETATM   14  H   UNL     1      17.294  49.505  47.775  1.00  0.00     0.279 HD
HETATM   15  H   UNL     1      17.038  50.436  49.079  1.00  0.00     0.279 HD
HETATM   16  C   UNL     1      19.069  49.879  50.576  1.00  0.00     0.046 C 
HETATM   17  C   UNL     1      17.977  47.932  49.504  1.00  0.00     0.046 C 
HETATM   18  C   UNL     1      19.974  48.932  48.360  1.00  0.00     0.063 C 
ENDBRANCH   1   7
BRANCH   3  19
HETATM   19  C   UNL     1      24.563  49.118  48.791  1.00  0.00     0.072 A 
HETATM   20  C   UNL     1      24.540  47.895  49.496  1.00  0.00     0.095 A 
HETATM   21  C   UNL     1      25.745  47.354  49.966  1.00  0.00     0.042 A 
HETATM   22  C   UNL     1      26.956  48.007  49.722  1.00  0.00     0.045 A 
HETATM   23  C   UNL     1      26.965  49.182  48.985  1.00  0.00     0.118 A 
HETATM   24  F   UNL     1      28.128  49.797  48.733  1.00  0.00    -0.206 F 
HETATM   25  C   UNL     1      25.785  49.737  48.505  1.00  0.00     0.074 A 
BRANCH  20  26
HETATM   26  O   UNL     1      23.332  47.246  49.583  1.00  0.00    -0.354 OA
HETATM   27  C   UNL     1      23.223  46.013  48.879  1.00  0.00     0.210 C 
ENDBRANCH  20  26
ENDBRANCH   3  19
TORSDOF 3
ENDMDL
MODEL 2
REMARK VINA RESULT:      -7.7      6.257      9.069
REMARK  3 active torsions:
REMARK  status: ('A' for Active; 'I' for Inactive)
REMARK    1  A    between atoms: C_11  and  N_12 
REMARK       I    between atoms: N_12  and  C_13 
REMARK       I    between atoms: C_13  and  N_14 
REMARK    2  A    between atoms: N_14  and  C_15 
REMARK    3  A    between atoms: C_16  and  O_17 
ROOT
HETATM    1  N   UNL     1      26.886  43.337  51.779  1.00  0.00    -0.338 N 
HETATM    2  C   UNL     1      27.996  43.611  52.538  1.00  0.00     0.321 C 
HETATM    3  N   UNL     1      27.755  43.756  53.878  1.00  0.00    -0.306 N 
HETATM    4  O   UNL     1      29.076  43.662  51.963  1.00  0.00    -0.247 OA
HETATM    5  H   UNL     1      27.195  43.176  50.828  1.00  0.00     0.164 HD
HETATM    6  H   UNL     1      27.147  43.035  54.240  1.00  0.00     0.171 HD
ENDROOT
BRANCH   1   7
HETATM    7  C   UNL     1      25.536  43.797  52.058  1.00  0.00     0.091 C 
HETATM    8  C   UNL     1      24.471  43.033  51.268  1.00  0.00     0.063 C 
HETATM    9  C   UNL     1      24.257  43.465  49.808  1.00  0.00     0.121 C 
HETATM   10  N   UNL     1      24.244  44.973  49.696  1.00  0.00    -0.059 N 
HETATM   11  C   UNL     1      25.274  42.873  48.825  1.00  0.00     0.046 C 
HETATM   12  C   UNL     1      22.860  42.992  49.350  1.00  0.00     0.046 C 
HETATM   13  C   UNL     1      25.249  45.818  50.454  1.00  0.00     0.121 C 
HETATM   14  H   UNL     1      23.309  45.290  49.990  1.00  0.00     0.279 HD
HETATM   15  H   UNL     1      24.289  45.232  48.698  1.00  0.00     0.279 HD
HETATM   16  C   UNL     1      26.583  45.867  49.704  1.00  0.00     0.046 C 
HETATM   17  C   UNL     1      24.675  47.251  50.461  1.00  0.00     0.046 C 
HETATM   18  C   UNL     1      25.360  45.313  51.899  1.00  0.00     0.063 C 
ENDBRANCH   1   7
BRANCH   3  19
HETATM   19  C   UNL     1      28.739  44.233  54.780  1.00  0.00     0.072 A 
HETATM   20  C   UNL     1      28.686  45.517  55.363  1.00  0.00     0.095 A 
HETATM   21  C   UNL     1      29.722  45.925  56.214  1.00  0.00     0.042 A 
HETATM   22  C   UNL     1      30.784  45.063  56.499  1.00  0.00     0.045 A 
HETATM   23  C   UNL     1      30.794  43.786  55.957  1.00  0.00     0.118 A 
HETATM   24  F   UNL     1      31.802  42.953  56.247  1.00  0.00    -0.206 F 
HETATM   25  C   UNL     1      29.778  43.357  55.113  1.00  0.00     0.074 A 
BRANCH  20  26
HETATM   26  O   UNL     1      27.549  46.258  55.142  1.00  0.00    -0.354 OA
HETATM   27  C   UNL     1      27.742  47.611  54.744  1.00  0.00     0.210 C 
ENDBRANCH  20  26
ENDBRANCH   3  19
TORSDOF 3
ENDMDL
MODEL 3
REMARK VINA RESULT:      -7.7      7.224      9.503
REMARK  3 active torsions:
REMARK  status: ('A' for Active; 'I' for Inactive)
REMARK    1  A    between atoms: C_11  and  N_12 
REMARK       I    between atoms: N_12  and  C_13 
REMARK       I    between atoms: C_13  and  N_14 
REMARK    2  A    between atoms: N_14  and  C_15 
REMARK    3  A    between atoms: C_16  and  O_17 
ROOT
HETATM    1  N   UNL     1      26.567  42.988  52.596  1.00  0.00    -0.338 N 
HETATM    2  C   UNL     1      27.152  43.285  53.802  1.00  0.00     0.321 C 
HETATM    3  N   UNL     1      28.122  44.250  53.748  1.00  0.00    -0.306 N 
HETATM    4  O   UNL     1      26.735  42.698  54.792  1.00  0.00    -0.247 OA
HETATM    5  H   UNL     1      25.822  42.326  52.770  1.00  0.00     0.164 HD
HETATM    6  H   UNL     1      27.843  45.045  53.192  1.00  0.00     0.171 HD
ENDROOT
BRANCH   1   7
HETATM    7  C   UNL     1      27.221  43.052  51.300  1.00  0.00     0.091 C 
HETATM    8  C   UNL     1      27.527  44.485  50.858  1.00  0.00     0.063 C 
HETATM    9  C   UNL     1      26.361  45.280  50.248  1.00  0.00     0.121 C 
HETATM   10  N   UNL     1      25.577  44.417  49.284  1.00  0.00    -0.059 N 
HETATM   11  C   UNL     1      25.419  45.902  51.284  1.00  0.00     0.046 C 
HETATM   12  C   UNL     1      26.939  46.441  49.407  1.00  0.00     0.046 C 
HETATM   13  C   UNL     1      25.240  42.979  49.626  1.00  0.00     0.121 C 
HETATM   14  H   UNL     1      26.105  44.395  48.399  1.00  0.00     0.279 HD
HETATM   15  H   UNL     1      24.703  44.907  49.037  1.00  0.00     0.279 HD
HETATM   16  C   UNL     1      24.009  42.919  50.535  1.00  0.00     0.046 C 
HETATM   17  C   UNL     1      24.854  42.309  48.289  1.00  0.00     0.046 C 
HETATM   18  C   UNL     1      26.479  42.282  50.200  1.00  0.00     0.063 C 
ENDBRANCH   1   7
BRANCH   3  19
HETATM   19  C   UNL     1      28.966  44.541  54.849  1.00  0.00     0.072 A 
HETATM   20  C   UNL     1      28.772  45.660  55.688  1.00  0.00     0.095 A 
HETATM   21  C   UNL     1      29.677  45.896  56.732  1.00  0.00     0.042 A 
HETATM   22  C   UNL     1      30.745  45.023  56.954  1.00  0.00     0.045 A 
HETATM   23  C   UNL     1      30.891  43.901  56.151  1.00  0.00     0.118 A 
HETATM   24  F   UNL     1      31.903  43.053  56.376  1.00  0.00    -0.206 F 
HETATM   25  C   UNL     1      30.006  43.643  55.112  1.00  0.00     0.074 A 
BRANCH  20  26
HETATM   26  O   UNL     1      27.630  46.398  55.493  1.00  0.00    -0.354 OA
HETATM   27  C   UNL     1      27.796  47.673  54.881  1.00  0.00     0.210 C 
ENDBRANCH  20  26
ENDBRANCH   3  19
TORSDOF 3
ENDMDL
MODEL 4
REMARK VINA RESULT:      -7.6      6.952      9.071
REMARK  3 active torsions:
REMARK  status: ('A' for Active; 'I' for Inactive)
REMARK    1  A    between atoms: C_11  and  N_12 
REMARK       I    between atoms: N_12  and  C_13 
REMARK       I    between atoms: C_13  and  N_14 
REMARK    2  A    between atoms: N_14  and  C_15 
REMARK    3  A    between atoms: C_16  and  O_17 
ROOT
HETATM    1  N   UNL     1      25.673  44.436  51.986  1.00  0.00    -0.338 N 
HETATM    2  C   UNL     1      26.467  44.195  53.079  1.00  0.00     0.321 C 
HETATM    3  N   UNL     1      27.665  44.858  53.079  1.00  0.00    -0.306 N 
HETATM    4  O   UNL     1      26.022  43.455  53.947  1.00  0.00    -0.247 OA
HETATM    5  H   UNL     1      24.793  43.958  52.132  1.00  0.00     0.164 HD
HETATM    6  H   UNL     1      27.566  45.829  52.817  1.00  0.00     0.171 HD
ENDROOT
BRANCH   1   7
HETATM    7  C   UNL     1      26.149  44.731  50.644  1.00  0.00     0.091 C 
HETATM    8  C   UNL     1      25.019  45.094  49.678  1.00  0.00     0.063 C 
HETATM    9  C   UNL     1      24.225  43.922  49.079  1.00  0.00     0.121 C 
HETATM   10  N   UNL     1      25.156  42.808  48.658  1.00  0.00    -0.059 N 
HETATM   11  C   UNL     1      23.130  43.373  50.001  1.00  0.00     0.046 C 
HETATM   12  C   UNL     1      23.526  44.405  47.788  1.00  0.00     0.046 C 
HETATM   13  C   UNL     1      26.316  42.388  49.540  1.00  0.00     0.121 C 
HETATM   14  H   UNL     1      25.559  43.078  47.748  1.00  0.00     0.279 HD
HETATM   15  H   UNL     1      24.594  41.971  48.438  1.00  0.00     0.279 HD
HETATM   16  C   UNL     1      25.833  41.441  50.643  1.00  0.00     0.046 C 
HETATM   17  C   UNL     1      27.267  41.583  48.629  1.00  0.00     0.046 C 
HETATM   18  C   UNL     1      27.046  43.634  50.057  1.00  0.00     0.063 C 
ENDBRANCH   1   7
BRANCH   3  19
HETATM   19  C   UNL     1      28.688  44.580  54.019  1.00  0.00     0.072 A 
HETATM   20  C   UNL     1      29.572  43.487  53.889  1.00  0.00     0.095 A 
HETATM   21  C   UNL     1      30.531  43.261  54.887  1.00  0.00     0.042 A 
HETATM   22  C   UNL     1      30.624  44.119  55.986  1.00  0.00     0.045 A 
HETATM   23  C   UNL     1      29.780  45.216  56.072  1.00  0.00     0.118 A 
HETATM   24  F   UNL     1      29.883  46.050  57.115  1.00  0.00    -0.206 F 
HETATM   25  C   UNL     1      28.823  45.464  55.096  1.00  0.00     0.074 A 
BRANCH  20  26
HETATM   26  O   UNL     1      29.509  42.767  52.721  1.00  0.00    -0.354 OA
HETATM   27  C   UNL     1      29.000  41.441  52.821  1.00  0.00     0.210 C 
ENDBRANCH  20  26
ENDBRANCH   3  19
TORSDOF 3
ENDMDL
MODEL 5
REMARK VINA RESULT:      -7.6      6.562      8.340
REMARK  3 active torsions:
REMARK  status: ('A' for Active; 'I' for Inactive)
REMARK    1  A    between atoms: C_11  and  N_12 
REMARK       I    between atoms: N_12  and  C_13 
REMARK       I    between atoms: C_13  and  N_14 
REMARK    2  A    between atoms: N_14  and  C_15 
REMARK    3  A    between atoms: C_16  and  O_17 
ROOT
HETATM    1  N   UNL     1      24.692  44.820  51.542  1.00  0.00    -0.338 N 
HETATM    2  C   UNL     1      25.331  44.825  52.756  1.00  0.00     0.321 C 
HETATM    3  N   UNL     1      26.397  45.680  52.843  1.00  0.00    -0.306 N 
HETATM    4  O   UNL     1      24.875  44.107  53.637  1.00  0.00    -0.247 OA
HETATM    5  H   UNL     1      23.885  44.215  51.620  1.00  0.00     0.164 HD
HETATM    6  H   UNL     1      26.192  46.590  52.455  1.00  0.00     0.171 HD
ENDROOT
BRANCH   1   7
HETATM    7  C   UNL     1      25.322  45.061  50.254  1.00  0.00     0.091 C 
HETATM    8  C   UNL     1      24.313  45.172  49.109  1.00  0.00     0.063 C 
HETATM    9  C   UNL     1      23.775  43.851  48.537  1.00  0.00     0.121 C 
HETATM   10  N   UNL     1      24.895  42.849  48.369  1.00  0.00    -0.059 N 
HETATM   11  C   UNL     1      22.635  43.234  49.354  1.00  0.00     0.046 C 
HETATM   12  C   UNL     1      23.222  44.114  47.118  1.00  0.00     0.046 C 
HETATM   13  C   UNL     1      25.953  42.678  49.442  1.00  0.00     0.121 C 
HETATM   14  H   UNL     1      25.392  43.093  47.499  1.00  0.00     0.279 HD
HETATM   15  H   UNL     1      24.485  41.924  48.166  1.00  0.00     0.279 HD
HETATM   16  C   UNL     1      25.436  41.772  50.564  1.00  0.00     0.046 C 
HETATM   17  C   UNL     1      27.126  41.940  48.762  1.00  0.00     0.046 C 
HETATM   18  C   UNL     1      26.431  44.056  49.917  1.00  0.00     0.063 C 
ENDBRANCH   1   7
BRANCH   3  19
HETATM   19  C   UNL     1      27.289  45.673  53.944  1.00  0.00     0.072 A 
HETATM   20  C   UNL     1      27.230  46.626  54.984  1.00  0.00     0.095 A 
HETATM   21  C   UNL     1      28.177  46.570  56.017  1.00  0.00     0.042 A 
HETATM   22  C   UNL     1      29.153  45.570  56.028  1.00  0.00     0.045 A 
HETATM   23  C   UNL     1      29.165  44.613  55.025  1.00  0.00     0.118 A 
HETATM   24  F   UNL     1      30.088  43.643  55.046  1.00  0.00    -0.206 F 
HETATM   25  C   UNL     1      28.236  44.644  53.992  1.00  0.00     0.074 A 
BRANCH  20  26
HETATM   26  O   UNL     1      26.166  47.495  54.977  1.00  0.00    -0.354 OA
HETATM   27  C   UNL     1      26.274  48.635  55.823  1.00  0.00     0.210 C 
ENDBRANCH  20  26
ENDBRANCH   3  19
TORSDOF 3
ENDMDL
MODEL 6
REMARK VINA RESULT:      -7.4      5.274      9.547
REMARK  3 active torsions:
REMARK  status: ('A' for Active; 'I' for Inactive)
REMARK    1  A    between atoms: C_11  and  N_12 
REMARK       I    between atoms: N_12  and  C_13 
REMARK       I    between atoms: C_13  and  N_14 
REMARK    2  A    between atoms: N_14  and  C_15 
REMARK    3  A    between atoms: C_16  and  O_17 
ROOT
HETATM    1  N   UNL     1      25.875  43.679  51.407  1.00  0.00    -0.338 N 
HETATM    2  C   UNL     1      24.883  44.598  51.175  1.00  0.00     0.321 C 
HETATM    3  N   UNL     1      24.865  45.121  49.910  1.00  0.00    -0.306 N 
HETATM    4  O   UNL     1      24.104  44.831  52.091  1.00  0.00    -0.247 OA
HETATM    5  H   UNL     1      25.743  43.310  52.339  1.00  0.00     0.164 HD
HETATM    6  H   UNL     1      24.975  44.411  49.200  1.00  0.00     0.171 HD
ENDROOT
BRANCH   1   7
HETATM    7  C   UNL     1      27.188  43.678  50.782  1.00  0.00     0.091 C 
HETATM    8  C   UNL     1      27.388  42.505  49.819  1.00  0.00     0.063 C 
HETATM    9  C   UNL     1      27.748  41.151  50.452  1.00  0.00     0.121 C 
HETATM   10  N   UNL     1      28.784  41.331  51.539  1.00  0.00    -0.059 N 
HETATM   11  C   UNL     1      26.544  40.375  50.996  1.00  0.00     0.046 C 
HETATM   12  C   UNL     1      28.410  40.261  49.376  1.00  0.00     0.046 C 
HETATM   13  C   UNL     1      28.681  42.473  52.530  1.00  0.00     0.121 C 
HETATM   14  H   UNL     1      29.699  41.424  51.073  1.00  0.00     0.279 HD
HETATM   15  H   UNL     1      28.867  40.448  52.067  1.00  0.00     0.279 HD
HETATM   16  C   UNL     1      27.700  42.122  53.653  1.00  0.00     0.046 C 
HETATM   17  C   UNL     1      30.080  42.603  53.169  1.00  0.00     0.046 C 
HETATM   18  C   UNL     1      28.345  43.772  51.785  1.00  0.00     0.063 C 
ENDBRANCH   1   7
BRANCH   3  19
HETATM   19  C   UNL     1      24.043  46.219  49.553  1.00  0.00     0.072 A 
HETATM   20  C   UNL     1      24.357  47.553  49.891  1.00  0.00     0.095 A 
HETATM   21  C   UNL     1      23.469  48.576  49.533  1.00  0.00     0.042 A 
HETATM   22  C   UNL     1      22.297  48.282  48.831  1.00  0.00     0.045 A 
HETATM   23  C   UNL     1      22.029  46.972  48.463  1.00  0.00     0.118 A 
HETATM   24  F   UNL     1      20.916  46.693  47.773  1.00  0.00    -0.206 F 
HETATM   25  C   UNL     1      22.895  45.940  48.803  1.00  0.00     0.074 A 
BRANCH  20  26
HETATM   26  O   UNL     1      25.586  47.780  50.463  1.00  0.00    -0.354 OA
HETATM   27  C   UNL     1      26.605  48.273  49.600  1.00  0.00     0.210 C 
ENDBRANCH  20  26
ENDBRANCH   3  19
TORSDOF 3
ENDMDL
MODEL 7
REMARK VINA RESULT:      -7.4      1.923      2.904
REMARK  3 active torsions:
REMARK  status: ('A' for Active; 'I' for Inactive)
REMARK    1  A    between atoms: C_11  and  N_12 
REMARK       I    between atoms: N_12  and  C_13 
REMARK       I    between atoms: C_13  and  N_14 
REMARK    2  A    between atoms: N_14  and  C_15 
REMARK    3  A    between atoms: C_16  and  O_17 
ROOT
HETATM    1  N   UNL     1      20.490  47.415  48.683  1.00  0.00    -0.338 N 
HETATM    2  C   UNL     1      21.839  47.486  48.441  1.00  0.00     0.321 C 
HETATM    3  N   UNL     1      22.593  47.916  49.501  1.00  0.00    -0.306 N 
HETATM    4  O   UNL     1      22.235  47.132  47.337  1.00  0.00    -0.247 OA
HETATM    5  H   UNL     1      20.050  47.017  47.863  1.00  0.00     0.164 HD
HETATM    6  H   UNL     1      22.328  47.468  50.367  1.00  0.00     0.171 HD
ENDROOT
BRANCH   1   7
HETATM    7  C   UNL     1      19.746  48.279  49.584  1.00  0.00     0.091 C 
HETATM    8  C   UNL     1      18.230  48.117  49.447  1.00  0.00     0.063 C 
HETATM    9  C   UNL     1      17.564  48.857  48.276  1.00  0.00     0.121 C 
HETATM   10  N   UNL     1      18.119  50.258  48.147  1.00  0.00    -0.059 N 
HETATM   11  C   UNL     1      17.666  48.125  46.934  1.00  0.00     0.046 C 
HETATM   12  C   UNL     1      16.059  49.023  48.586  1.00  0.00     0.046 C 
HETATM   13  C   UNL     1      19.606  50.521  48.284  1.00  0.00     0.121 C 
HETATM   14  H   UNL     1      17.649  50.837  48.859  1.00  0.00     0.279 HD
HETATM   15  H   UNL     1      17.799  50.661  47.253  1.00  0.00     0.279 HD
HETATM   16  C   UNL     1      20.328  50.214  46.968  1.00  0.00     0.046 C 
HETATM   17  C   UNL     1      19.744  52.037  48.538  1.00  0.00     0.046 C 
HETATM   18  C   UNL     1      20.154  49.755  49.495  1.00  0.00     0.063 C 
ENDBRANCH   1   7
BRANCH   3  19
HETATM   19  C   UNL     1      23.967  48.239  49.375  1.00  0.00     0.072 A 
HETATM   20  C   UNL     1      24.986  47.526  50.042  1.00  0.00     0.095 A 
HETATM   21  C   UNL     1      26.318  47.936  49.893  1.00  0.00     0.042 A 
HETATM   22  C   UNL     1      26.635  49.025  49.077  1.00  0.00     0.045 A 
HETATM   23  C   UNL     1      25.626  49.683  48.389  1.00  0.00     0.118 A 
HETATM   24  F   UNL     1      25.933  50.713  47.591  1.00  0.00    -0.206 F 
HETATM   25  C   UNL     1      24.299  49.294  48.517  1.00  0.00     0.074 A 
BRANCH  20  26
HETATM   26  O   UNL     1      24.614  46.390  50.720  1.00  0.00    -0.354 OA
HETATM   27  C   UNL     1      25.210  46.189  51.997  1.00  0.00     0.210 C 
ENDBRANCH  20  26
ENDBRANCH   3  19
TORSDOF 3
ENDMDL
MODEL 8
REMARK VINA RESULT:      -7.4      7.647     10.806
REMARK  3 active torsions:
REMARK  status: ('A' for Active; 'I' for Inactive)
REMARK    1  A    between atoms: C_11  and  N_12 
REMARK       I    between atoms: N_12  and  C_13 
REMARK       I    between atoms: C_13  and  N_14 
REMARK    2  A    between atoms: N_14  and  C_15 
REMARK    3  A    between atoms: C_16  and  O_17 
ROOT
HETATM    1  N   UNL     1      27.346  41.971  52.122  1.00  0.00    -0.338 N 
HETATM    2  C   UNL     1      27.242  41.022  51.136  1.00  0.00     0.321 C 
HETATM    3  N   UNL     1      28.362  40.871  50.362  1.00  0.00    -0.306 N 
HETATM    4  O   UNL     1      26.195  40.391  51.067  1.00  0.00    -0.247 OA
HETATM    5  H   UNL     1      26.497  41.939  52.671  1.00  0.00     0.164 HD
HETATM    6  H   UNL     1      29.208  40.836  50.912  1.00  0.00     0.171 HD
ENDROOT
BRANCH   1   7
HETATM    7  C   UNL     1      28.142  43.185  52.047  1.00  0.00     0.091 C 
HETATM    8  C   UNL     1      28.477  43.762  53.424  1.00  0.00     0.063 C 
HETATM    9  C   UNL     1      27.378  44.592  54.106  1.00  0.00     0.121 C 
HETATM   10  N   UNL     1      26.720  45.523  53.113  1.00  0.00    -0.059 N 
HETATM   11  C   UNL     1      26.316  43.752  54.824  1.00  0.00     0.046 C 
HETATM   12  C   UNL     1      28.031  45.500  55.173  1.00  0.00     0.046 C 
HETATM   13  C   UNL     1      26.365  45.046  51.718  1.00  0.00     0.121 C 
HETATM   14  H   UNL     1      27.344  46.335  52.999  1.00  0.00     0.279 HD
HETATM   15  H   UNL     1      25.873  45.924  53.545  1.00  0.00     0.279 HD
HETATM   16  C   UNL     1      25.039  44.279  51.735  1.00  0.00     0.046 C 
HETATM   17  C   UNL     1      26.142  46.324  50.881  1.00  0.00     0.046 C 
HETATM   18  C   UNL     1      27.540  44.256  51.129  1.00  0.00     0.063 C 
ENDBRANCH   1   7
BRANCH   3  19
HETATM   19  C   UNL     1      28.369  40.087  49.181  1.00  0.00     0.072 A 
HETATM   20  C   UNL     1      28.724  38.720  49.171  1.00  0.00     0.095 A 
HETATM   21  C   UNL     1      28.742  38.028  47.951  1.00  0.00     0.042 A 
HETATM   22  C   UNL     1      28.393  38.677  46.765  1.00  0.00     0.045 A 
HETATM   23  C   UNL     1      27.998  40.006  46.801  1.00  0.00     0.118 A 
HETATM   24  F   UNL     1      27.644  40.623  45.665  1.00  0.00    -0.206 F 
HETATM   25  C   UNL     1      27.969  40.714  47.996  1.00  0.00     0.074 A 
BRANCH  20  26
HETATM   26  O   UNL     1      28.926  38.117  50.388  1.00  0.00    -0.354 OA
HETATM   27  C   UNL     1      30.268  37.760  50.703  1.00  0.00     0.210 C 
ENDBRANCH  20  26
ENDBRANCH   3  19
TORSDOF 3
ENDMDL
MODEL 9
REMARK VINA RESULT:      -7.3      2.225      3.416
REMARK  3 active torsions:
REMARK  status: ('A' for Active; 'I' for Inactive)
REMARK    1  A    between atoms: C_11  and  N_12 
REMARK       I    between atoms: N_12  and  C_13 
REMARK       I    between atoms: C_13  and  N_14 
REMARK    2  A    between atoms: N_14  and  C_15 
REMARK    3  A    between atoms: C_16  and  O_17 
ROOT
HETATM    1  N   UNL     1      20.361  47.201  47.992  1.00  0.00    -0.338 N 
HETATM    2  C   UNL     1      21.725  47.049  47.981  1.00  0.00     0.321 C 
HETATM    3  N   UNL     1      22.284  46.777  49.201  1.00  0.00    -0.306 N 
HETATM    4  O   UNL     1      22.295  47.133  46.900  1.00  0.00    -0.247 OA
HETATM    5  H   UNL     1      20.057  47.321  47.034  1.00  0.00     0.164 HD
HETATM    6  H   UNL     1      21.771  46.071  49.710  1.00  0.00     0.171 HD
ENDROOT
BRANCH   1   7
HETATM    7  C   UNL     1      19.579  47.732  49.096  1.00  0.00     0.091 C 
HETATM    8  C   UNL     1      18.070  47.607  48.870  1.00  0.00     0.063 C 
HETATM    9  C   UNL     1      17.420  48.671  47.971  1.00  0.00     0.121 C 
HETATM   10  N   UNL     1      17.953  50.046  48.304  1.00  0.00    -0.059 N 
HETATM   11  C   UNL     1      17.570  48.398  46.470  1.00  0.00     0.046 C 
HETATM   12  C   UNL     1      15.905  48.716  48.272  1.00  0.00     0.046 C 
HETATM   13  C   UNL     1      19.431  50.267  48.561  1.00  0.00     0.121 C 
HETATM   14  H   UNL     1      17.454  50.368  49.148  1.00  0.00     0.279 HD
HETATM   15  H   UNL     1      17.648  50.706  47.573  1.00  0.00     0.279 HD
HETATM   16  C   UNL     1      20.191  50.395  47.238  1.00  0.00     0.046 C 
HETATM   17  C   UNL     1      19.534  51.628  49.283  1.00  0.00     0.046 C 
HETATM   18  C   UNL     1      19.962  49.165  49.487  1.00  0.00     0.063 C 
ENDBRANCH   1   7
BRANCH   3  19
HETATM   19  C   UNL     1      23.685  46.785  49.414  1.00  0.00     0.072 A 
HETATM   20  C   UNL     1      24.417  47.968  49.655  1.00  0.00     0.095 A 
HETATM   21  C   UNL     1      25.807  47.891  49.816  1.00  0.00     0.042 A 
HETATM   22  C   UNL     1      26.458  46.656  49.760  1.00  0.00     0.045 A 
HETATM   23  C   UNL     1      25.718  45.498  49.572  1.00  0.00     0.118 A 
HETATM   24  F   UNL     1      26.340  44.313  49.538  1.00  0.00    -0.206 F 
HETATM   25  C   UNL     1      24.338  45.547  49.412  1.00  0.00     0.074 A 
BRANCH  20  26
HETATM   26  O   UNL     1      23.696  49.125  49.828  1.00  0.00    -0.354 OA
HETATM   27  C   UNL     1      23.744  50.067  48.762  1.00  0.00     0.210 C 
ENDBRANCH  20  26
ENDBRANCH   3  19
TORSDOF 3
ENDMDL
MODEL 10
REMARK VINA RESULT:      -7.2      5.114      9.460
REMARK  3 active torsions:
REMARK  status: ('A' for Active; 'I' for Inactive)
REMARK    1  A    between atoms: C_11  and  N_12 
REMARK       I    between atoms: N_12  and  C_13 
REMARK       I    between atoms: C_13  and  N_14 
REMARK    2  A    between atoms: N_14  and  C_15 
REMARK    3  A    between atoms: C_16  and  O_17 
ROOT
HETATM    1  N   UNL     1      25.989  43.761  51.707  1.00  0.00    -0.338 N 
HETATM    2  C   UNL     1      24.875  44.244  51.068  1.00  0.00     0.321 C 
HETATM    3  N   UNL     1      25.128  45.167  50.088  1.00  0.00    -0.306 N 
HETATM    4  O   UNL     1      23.789  43.788  51.403  1.00  0.00    -0.247 OA
HETATM    5  H   UNL     1      25.688  43.039  52.349  1.00  0.00     0.164 HD
HETATM    6  H   UNL     1      25.889  44.889  49.486  1.00  0.00     0.171 HD
ENDROOT
BRANCH   1   7
HETATM    7  C   UNL     1      27.218  44.501  51.940  1.00  0.00     0.091 C 
HETATM    8  C   UNL     1      28.462  43.610  51.921  1.00  0.00     0.063 C 
HETATM    9  C   UNL     1      28.761  42.820  53.205  1.00  0.00     0.121 C 
HETATM   10  N   UNL     1      28.559  43.691  54.424  1.00  0.00    -0.059 N 
HETATM   11  C   UNL     1      27.953  41.525  53.344  1.00  0.00     0.046 C 
HETATM   12  C   UNL     1      30.254  42.422  53.208  1.00  0.00     0.046 C 
HETATM   13  C   UNL     1      27.365  44.620  54.528  1.00  0.00     0.121 C 
HETATM   14  H   UNL     1      29.400  44.279  54.519  1.00  0.00     0.279 HD
HETATM   15  H   UNL     1      28.581  43.094  55.266  1.00  0.00     0.279 HD
HETATM   16  C   UNL     1      26.124  43.849  54.989  1.00  0.00     0.046 C 
HETATM   17  C   UNL     1      27.714  45.632  55.640  1.00  0.00     0.046 C 
HETATM   18  C   UNL     1      27.181  45.370  53.203  1.00  0.00     0.063 C 
ENDBRANCH   1   7
BRANCH   3  19
HETATM   19  C   UNL     1      24.098  45.915  49.465  1.00  0.00     0.072 A 
HETATM   20  C   UNL     1      23.954  47.309  49.634  1.00  0.00     0.095 A 
HETATM   21  C   UNL     1      22.882  47.966  49.011  1.00  0.00     0.042 A 
HETATM   22  C   UNL     1      21.981  47.252  48.218  1.00  0.00     0.045 A 
HETATM   23  C   UNL     1      22.167  45.892  48.023  1.00  0.00     0.118 A 
HETATM   24  F   UNL     1      21.314  45.212  47.245  1.00  0.00    -0.206 F 
HETATM   25  C   UNL     1      23.222  45.218  48.625  1.00  0.00     0.074 A 
BRANCH  20  26
HETATM   26  O   UNL     1      24.950  47.963  50.318  1.00  0.00    -0.354 OA
HETATM   27  C   UNL     1      26.091  48.348  49.559  1.00  0.00     0.210 C 
ENDBRANCH  20  26
ENDBRANCH   3  19
TORSDOF 3
ENDMDL
