MODEL 1
REMARK VINA RESULT:      -9.8      0.000      0.000
REMARK  4 active torsions:
REMARK  status: ('A' for Active; 'I' for Inactive)
REMARK    1  A    between atoms: C_3  and  N_4 
REMARK    2  A    between atoms: C_11  and  C_12 
REMARK       I    between atoms: C_12  and  N_13 
REMARK    3  A    between atoms: N_13  and  C_14 
REMARK    4  A    between atoms: C_19  and  O_20 
ROOT
HETATM    1  C   UNL     1      22.985  48.710  49.417  1.00  0.00     0.036 A 
HETATM    2  C   UNL     1      21.644  48.421  49.168  1.00  0.00     0.049 A 
HETATM    3  C   UNL     1      20.763  49.421  48.707  1.00  0.00     0.063 A 
HETATM    4  C   UNL     1      21.219  50.737  48.498  1.00  0.00     0.075 A 
HETATM    5  N   UNL     1      20.457  51.842  48.062  1.00  0.00    -0.226 NA
HETATM    6  C   UNL     1      19.264  52.021  48.523  1.00  0.00     0.161 C 
HETATM    7  C   UNL     1      18.519  51.119  49.487  1.00  0.00     0.164 C 
HETATM    8  N   UNL     1      18.352  49.868  48.762  1.00  0.00    -0.336 N 
HETATM    9  C   UNL     1      19.364  48.995  48.439  1.00  0.00     0.257 C 
HETATM   10  O   UNL     1      19.151  47.890  47.949  1.00  0.00    -0.267 OA
HETATM   11  C   UNL     1      17.094  51.535  49.847  1.00  0.00     0.035 C 
HETATM   12  C   UNL     1      16.241  50.885  48.760  1.00  0.00     0.022 C 
HETATM   13  C   UNL     1      16.958  49.568  48.505  1.00  0.00     0.127 C 
HETATM   14  C   UNL     1      22.579  50.996  48.708  1.00  0.00     0.035 A 
HETATM   15  C   UNL     1      23.452  50.000  49.155  1.00  0.00     0.032 A 
ENDROOT
BRANCH   1  16
HETATM   16  N   UNL     1      23.917  47.790  49.940  1.00  0.00    -0.323 N 
HETATM   17  C   UNL     1      24.091  46.468  49.567  1.00  0.00     0.256 C 
HETATM   18  O   UNL     1      23.515  45.896  48.648  1.00  0.00    -0.267 OA
HETATM   19  H   UNL     1      24.494  48.142  50.690  1.00  0.00     0.169 HD
BRANCH  17  20
HETATM   20  C   UNL     1      25.067  45.682  50.388  1.00  0.00     0.033 A 
HETATM   21  C   UNL     1      26.273  45.203  49.877  1.00  0.00     0.019 A 
HETATM   22  C   UNL     1      27.156  44.500  50.703  1.00  0.00     0.031 A 
HETATM   23  C   UNL     1      26.869  44.283  52.065  1.00  0.00     0.044 A 
HETATM   24  C   UNL     1      25.647  44.751  52.593  1.00  0.00    -0.034 A 
HETATM   25  C   UNL     1      25.172  44.523  54.003  1.00  0.00     0.050 C 
HETATM   26  C   UNL     1      24.772  45.462  51.742  1.00  0.00     0.026 A 
BRANCH  23  27
HETATM   27  N   UNL     1      27.859  43.607  52.844  1.00  0.00    -0.332 N 
HETATM   28  C   UNL     1      28.804  44.171  53.678  1.00  0.00     0.096 A 
HETATM   29  C   UNL     1      29.586  43.176  54.223  1.00  0.00     0.019 A 
HETATM   30  C   UNL     1      29.130  41.952  53.699  1.00  0.00     0.019 A 
HETATM   31  C   UNL     1      28.088  42.241  52.845  1.00  0.00     0.096 A 
ENDBRANCH  23  27
ENDBRANCH  17  20
ENDBRANCH   1  16
BRANCH   6  32
HETATM   32  O   UNL     1      18.620  53.116  48.101  1.00  0.00    -0.346 OA
HETATM   33  H   UNL     1      19.162  53.514  47.399  1.00  0.00     0.219 HD
ENDBRANCH   6  32
TORSDOF 4
ENDMDL
MODEL 2
REMARK VINA RESULT:      -9.7      2.184     10.571
REMARK  4 active torsions:
REMARK  status: ('A' for Active; 'I' for Inactive)
REMARK    1  A    between atoms: C_3  and  N_4 
REMARK    2  A    between atoms: C_11  and  C_12 
REMARK       I    between atoms: C_12  and  N_13 
REMARK    3  A    between atoms: N_13  and  C_14 
REMARK    4  A    between atoms: C_19  and  O_20 
ROOT
HETATM    1  C   UNL     1      24.066  47.048  49.993  1.00  0.00     0.036 A 
HETATM    2  C   UNL     1      24.768  47.160  51.192  1.00  0.00     0.049 A 
HETATM    3  C   UNL     1      25.859  46.311  51.473  1.00  0.00     0.063 A 
HETATM    4  C   UNL     1      26.256  45.325  50.549  1.00  0.00     0.075 A 
HETATM    5  N   UNL     1      27.308  44.396  50.696  1.00  0.00    -0.226 NA
HETATM    6  C   UNL     1      27.497  43.816  51.834  1.00  0.00     0.161 C 
HETATM    7  C   UNL     1      26.724  44.056  53.115  1.00  0.00     0.164 C 
HETATM    8  N   UNL     1      27.007  45.442  53.459  1.00  0.00    -0.336 N 
HETATM    9  C   UNL     1      26.559  46.542  52.764  1.00  0.00     0.257 C 
HETATM   10  O   UNL     1      26.712  47.688  53.174  1.00  0.00    -0.267 OA
HETATM   11  C   UNL     1      27.175  43.268  54.343  1.00  0.00     0.035 C 
HETATM   12  C   UNL     1      28.255  44.151  54.964  1.00  0.00     0.022 C 
HETATM   13  C   UNL     1      27.736  45.558  54.705  1.00  0.00     0.127 C 
HETATM   14  C   UNL     1      25.569  45.260  49.331  1.00  0.00     0.035 A 
HETATM   15  C   UNL     1      24.494  46.109  49.052  1.00  0.00     0.032 A 
ENDROOT
BRANCH   1  16
HETATM   16  N   UNL     1      22.926  47.808  49.661  1.00  0.00    -0.323 N 
HETATM   17  C   UNL     1      22.872  49.165  49.386  1.00  0.00     0.256 C 
HETATM   18  O   UNL     1      23.832  49.921  49.300  1.00  0.00    -0.267 OA
HETATM   19  H   UNL     1      22.055  47.298  49.657  1.00  0.00     0.169 HD
BRANCH  17  20
HETATM   20  C   UNL     1      21.501  49.738  49.197  1.00  0.00     0.033 A 
HETATM   21  C   UNL     1      21.280  51.068  48.842  1.00  0.00     0.019 A 
HETATM   22  C   UNL     1      19.976  51.536  48.652  1.00  0.00     0.031 A 
HETATM   23  C   UNL     1      18.864  50.682  48.784  1.00  0.00     0.044 A 
HETATM   24  C   UNL     1      19.072  49.335  49.154  1.00  0.00    -0.034 A 
HETATM   25  C   UNL     1      17.980  48.332  49.410  1.00  0.00     0.050 C 
HETATM   26  C   UNL     1      20.397  48.883  49.337  1.00  0.00     0.026 A 
BRANCH  23  27
HETATM   27  N   UNL     1      17.574  51.235  48.510  1.00  0.00    -0.332 N 
HETATM   28  C   UNL     1      16.937  51.322  47.290  1.00  0.00     0.096 A 
HETATM   29  C   UNL     1      15.719  51.948  47.452  1.00  0.00     0.019 A 
HETATM   30  C   UNL     1      15.600  52.281  48.814  1.00  0.00     0.019 A 
HETATM   31  C   UNL     1      16.751  51.853  49.438  1.00  0.00     0.096 A 
ENDBRANCH  23  27
ENDBRANCH  17  20
ENDBRANCH   1  16
BRANCH   6  32
HETATM   32  O   UNL     1      28.483  42.911  51.886  1.00  0.00    -0.346 OA
HETATM   33  H   UNL     1      28.351  42.303  51.138  1.00  0.00     0.219 HD
ENDBRANCH   6  32
TORSDOF 4
ENDMDL
MODEL 3
REMARK VINA RESULT:      -9.5      2.904      4.371
REMARK  4 active torsions:
REMARK  status: ('A' for Active; 'I' for Inactive)
REMARK    1  A    between atoms: C_3  and  N_4 
REMARK    2  A    between atoms: C_11  and  C_12 
REMARK       I    between atoms: C_12  and  N_13 
REMARK    3  A    between atoms: N_13  and  C_14 
REMARK    4  A    between atoms: C_19  and  O_20 
ROOT
HETATM    1  C   UNL     1      24.749  46.400  50.223  1.00  0.00     0.036 A 
HETATM    2  C   UNL     1      23.916  45.543  49.504  1.00  0.00     0.049 A 
HETATM    3  C   UNL     1      22.932  46.055  48.634  1.00  0.00     0.063 A 
HETATM    4  C   UNL     1      22.764  47.445  48.480  1.00  0.00     0.075 A 
HETATM    5  N   UNL     1      21.815  48.103  47.668  1.00  0.00    -0.226 NA
HETATM    6  C   UNL     1      20.604  47.658  47.607  1.00  0.00     0.161 C 
HETATM    7  C   UNL     1      20.055  46.425  48.294  1.00  0.00     0.164 C 
HETATM    8  N   UNL     1      20.788  45.317  47.699  1.00  0.00    -0.336 N 
HETATM    9  C   UNL     1      22.124  45.054  47.889  1.00  0.00     0.257 C 
HETATM   10  O   UNL     1      22.660  44.030  47.475  1.00  0.00    -0.267 OA
HETATM   11  C   UNL     1      18.589  46.090  48.025  1.00  0.00     0.035 C 
HETATM   12  C   UNL     1      18.639  45.226  46.767  1.00  0.00     0.022 C 
HETATM   13  C   UNL     1      19.921  44.427  46.952  1.00  0.00     0.127 C 
HETATM   14  C   UNL     1      23.641  48.287  49.174  1.00  0.00     0.035 A 
HETATM   15  C   UNL     1      24.622  47.777  50.028  1.00  0.00     0.032 A 
ENDROOT
BRANCH   1  16
HETATM   16  N   UNL     1      25.712  45.975  51.162  1.00  0.00    -0.323 N 
HETATM   17  C   UNL     1      25.522  45.111  52.227  1.00  0.00     0.256 C 
HETATM   18  O   UNL     1      24.493  44.495  52.482  1.00  0.00    -0.267 OA
HETATM   19  H   UNL     1      26.630  46.380  51.049  1.00  0.00     0.169 HD
BRANCH  17  20
HETATM   20  C   UNL     1      26.693  44.942  53.146  1.00  0.00     0.033 A 
HETATM   21  C   UNL     1      26.757  45.536  54.407  1.00  0.00     0.019 A 
HETATM   22  C   UNL     1      27.865  45.317  55.231  1.00  0.00     0.031 A 
HETATM   23  C   UNL     1      28.922  44.478  54.828  1.00  0.00     0.044 A 
HETATM   24  C   UNL     1      28.877  43.879  53.551  1.00  0.00    -0.034 A 
HETATM   25  C   UNL     1      29.967  43.027  52.957  1.00  0.00     0.050 C 
HETATM   26  C   UNL     1      27.746  44.111  52.737  1.00  0.00     0.026 A 
BRANCH  23  27
HETATM   27  N   UNL     1      29.984  44.265  55.762  1.00  0.00    -0.332 N 
HETATM   28  C   UNL     1      30.735  43.121  55.938  1.00  0.00     0.096 A 
HETATM   29  C   UNL     1      31.639  43.318  56.960  1.00  0.00     0.019 A 
HETATM   30  C   UNL     1      31.433  44.620  57.454  1.00  0.00     0.019 A 
HETATM   31  C   UNL     1      30.406  45.172  56.721  1.00  0.00     0.096 A 
ENDBRANCH  23  27
ENDBRANCH  17  20
ENDBRANCH   1  16
BRANCH   6  32
HETATM   32  O   UNL     1      19.749  48.361  46.854  1.00  0.00    -0.346 OA
HETATM   33  H   UNL     1      19.490  47.791  46.109  1.00  0.00     0.219 HD
ENDBRANCH   6  32
TORSDOF 4
ENDMDL
MODEL 4
REMARK VINA RESULT:      -9.2      1.508      2.010
REMARK  4 active torsions:
REMARK  status: ('A' for Active; 'I' for Inactive)
REMARK    1  A    between atoms: C_3  and  N_4 
REMARK    2  A    between atoms: C_11  and  C_12 
REMARK       I    between atoms: C_12  and  N_13 
REMARK    3  A    between atoms: N_13  and  C_14 
REMARK    4  A    between atoms: C_19  and  O_20 
ROOT
HETATM    1  C   UNL     1      22.036  49.059  49.259  1.00  0.00     0.036 A 
HETATM    2  C   UNL     1      20.998  48.529  48.494  1.00  0.00     0.049 A 
HETATM    3  C   UNL     1      20.009  49.368  47.939  1.00  0.00     0.063 A 
HETATM    4  C   UNL     1      20.046  50.759  48.154  1.00  0.00     0.075 A 
HETATM    5  N   UNL     1      19.123  51.717  47.684  1.00  0.00    -0.226 NA
HETATM    6  C   UNL     1      17.858  51.456  47.708  1.00  0.00     0.161 C 
HETATM    7  C   UNL     1      17.207  50.163  48.154  1.00  0.00     0.164 C 
HETATM    8  N   UNL     1      17.678  49.168  47.202  1.00  0.00    -0.336 N 
HETATM    9  C   UNL     1      18.969  48.703  47.111  1.00  0.00     0.257 C 
HETATM   10  O   UNL     1      19.282  47.766  46.382  1.00  0.00    -0.267 OA
HETATM   11  C   UNL     1      15.685  50.092  48.047  1.00  0.00     0.035 C 
HETATM   12  C   UNL     1      15.446  49.587  46.625  1.00  0.00     0.022 C 
HETATM   13  C   UNL     1      16.598  48.618  46.408  1.00  0.00     0.127 C 
HETATM   14  C   UNL     1      21.123  51.276  48.884  1.00  0.00     0.035 A 
HETATM   15  C   UNL     1      22.106  50.444  49.425  1.00  0.00     0.032 A 
ENDROOT
BRANCH   1  16
HETATM   16  N   UNL     1      23.026  48.289  49.904  1.00  0.00    -0.323 N 
HETATM   17  C   UNL     1      24.354  48.151  49.536  1.00  0.00     0.256 C 
HETATM   18  O   UNL     1      24.918  48.751  48.629  1.00  0.00    -0.267 OA
HETATM   19  H   UNL     1      22.707  47.762  50.703  1.00  0.00     0.169 HD
BRANCH  17  20
HETATM   20  C   UNL     1      25.149  47.158  50.327  1.00  0.00     0.033 A 
HETATM   21  C   UNL     1      25.521  47.372  51.655  1.00  0.00     0.019 A 
HETATM   22  C   UNL     1      26.239  46.393  52.349  1.00  0.00     0.031 A 
HETATM   23  C   UNL     1      26.579  45.167  51.745  1.00  0.00     0.044 A 
HETATM   24  C   UNL     1      26.220  44.941  50.399  1.00  0.00    -0.034 A 
HETATM   25  C   UNL     1      26.584  43.718  49.602  1.00  0.00     0.050 C 
HETATM   26  C   UNL     1      25.492  45.942  49.718  1.00  0.00     0.026 A 
BRANCH  23  27
HETATM   27  N   UNL     1      27.260  44.204  52.553  1.00  0.00    -0.332 N 
HETATM   28  C   UNL     1      28.554  43.746  52.406  1.00  0.00     0.096 A 
HETATM   29  C   UNL     1      28.817  42.800  53.374  1.00  0.00     0.019 A 
HETATM   30  C   UNL     1      27.645  42.646  54.138  1.00  0.00     0.019 A 
HETATM   31  C   UNL     1      26.702  43.499  53.607  1.00  0.00     0.096 A 
ENDBRANCH  23  27
ENDBRANCH  17  20
ENDBRANCH   1  16
BRANCH   6  32
HETATM   32  O   UNL     1      17.040  52.430  47.291  1.00  0.00    -0.346 OA
HETATM   33  H   UNL     1      17.119  53.161  47.928  1.00  0.00     0.219 HD
ENDBRANCH   6  32
TORSDOF 4
ENDMDL
MODEL 5
REMARK VINA RESULT:      -8.8     14.142     15.696
REMARK  4 active torsions:
REMARK  status: ('A' for Active; 'I' for Inactive)
REMARK    1  A    between atoms: C_3  and  N_4 
REMARK    2  A    between atoms: C_11  and  C_12 
REMARK       I    between atoms: C_12  and  N_13 
REMARK    3  A    between atoms: N_13  and  C_14 
REMARK    4  A    between atoms: C_19  and  O_20 
ROOT
HETATM    1  C   UNL     1      34.223  51.208  42.589  1.00  0.00     0.036 A 
HETATM    2  C   UNL     1      32.990  51.827  42.392  1.00  0.00     0.049 A 
HETATM    3  C   UNL     1      32.010  51.241  41.565  1.00  0.00     0.063 A 
HETATM    4  C   UNL     1      32.262  50.019  40.911  1.00  0.00     0.075 A 
HETATM    5  N   UNL     1      31.393  49.324  40.043  1.00  0.00    -0.226 NA
HETATM    6  C   UNL     1      30.698  49.977  39.173  1.00  0.00     0.161 C 
HETATM    7  C   UNL     1      30.655  51.481  38.989  1.00  0.00     0.164 C 
HETATM    8  N   UNL     1      30.091  51.986  40.232  1.00  0.00    -0.336 N 
HETATM    9  C   UNL     1      30.718  51.967  41.456  1.00  0.00     0.257 C 
HETATM   10  O   UNL     1      30.253  52.529  42.443  1.00  0.00    -0.267 OA
HETATM   11  C   UNL     1      29.714  52.010  37.909  1.00  0.00     0.035 C 
HETATM   12  C   UNL     1      28.383  52.177  38.638  1.00  0.00     0.022 C 
HETATM   13  C   UNL     1      28.809  52.630  40.027  1.00  0.00     0.127 C 
HETATM   14  C   UNL     1      33.487  49.389  41.159  1.00  0.00     0.035 A 
HETATM   15  C   UNL     1      34.452  49.968  41.987  1.00  0.00     0.032 A 
ENDROOT
BRANCH   1  16
HETATM   16  N   UNL     1      35.281  51.755  43.343  1.00  0.00    -0.323 N 
HETATM   17  C   UNL     1      36.266  52.623  42.903  1.00  0.00     0.256 C 
HETATM   18  O   UNL     1      36.331  53.135  41.791  1.00  0.00    -0.267 OA
HETATM   19  H   UNL     1      35.329  51.445  44.303  1.00  0.00     0.169 HD
BRANCH  17  20
HETATM   20  C   UNL     1      37.347  52.937  43.890  1.00  0.00     0.033 A 
HETATM   21  C   UNL     1      38.159  51.957  44.461  1.00  0.00     0.019 A 
HETATM   22  C   UNL     1      39.171  52.317  45.356  1.00  0.00     0.031 A 
HETATM   23  C   UNL     1      39.417  53.665  45.680  1.00  0.00     0.044 A 
HETATM   24  C   UNL     1      38.597  54.668  45.119  1.00  0.00    -0.034 A 
HETATM   25  C   UNL     1      38.690  56.136  45.434  1.00  0.00     0.050 C 
HETATM   26  C   UNL     1      37.583  54.282  44.215  1.00  0.00     0.026 A 
BRANCH  23  27
HETATM   27  N   UNL     1      40.513  53.941  46.556  1.00  0.00    -0.332 N 
HETATM   28  C   UNL     1      41.835  54.139  46.214  1.00  0.00     0.096 A 
HETATM   29  C   UNL     1      42.577  54.349  47.357  1.00  0.00     0.019 A 
HETATM   30  C   UNL     1      41.695  54.260  48.450  1.00  0.00     0.019 A 
HETATM   31  C   UNL     1      40.444  53.991  47.939  1.00  0.00     0.096 A 
ENDBRANCH  23  27
ENDBRANCH  17  20
ENDBRANCH   1  16
BRANCH   6  32
HETATM   32  O   UNL     1      29.933  49.248  38.351  1.00  0.00    -0.346 OA
HETATM   33  H   UNL     1      30.530  48.679  37.836  1.00  0.00     0.219 HD
ENDBRANCH   6  32
TORSDOF 4
ENDMDL
MODEL 6
REMARK VINA RESULT:      -8.6      8.712     10.696
REMARK  4 active torsions:
REMARK  status: ('A' for Active; 'I' for Inactive)
REMARK    1  A    between atoms: C_3  and  N_4 
REMARK    2  A    between atoms: C_11  and  C_12 
REMARK       I    between atoms: C_12  and  N_13 
REMARK    3  A    between atoms: N_13  and  C_14 
REMARK    4  A    between atoms: C_19  and  O_20 
ROOT
HETATM    1  C   UNL     1      28.389  40.226  49.872  1.00  0.00     0.036 A 
HETATM    2  C   UNL     1      27.636  40.702  48.799  1.00  0.00     0.049 A 
HETATM    3  C   UNL     1      27.512  39.950  47.613  1.00  0.00     0.063 A 
HETATM    4  C   UNL     1      28.154  38.703  47.484  1.00  0.00     0.075 A 
HETATM    5  N   UNL     1      28.138  37.850  46.360  1.00  0.00    -0.226 NA
HETATM    6  C   UNL     1      28.241  38.351  45.174  1.00  0.00     0.161 C 
HETATM    7  C   UNL     1      28.331  39.820  44.813  1.00  0.00     0.164 C 
HETATM    8  N   UNL     1      27.057  40.380  45.241  1.00  0.00    -0.336 N 
HETATM    9  C   UNL     1      26.656  40.535  46.548  1.00  0.00     0.257 C 
HETATM   10  O   UNL     1      25.632  41.138  46.855  1.00  0.00    -0.267 OA
HETATM   11  C   UNL     1      28.404  40.153  43.324  1.00  0.00     0.035 C 
HETATM   12  C   UNL     1      26.939  40.258  42.904  1.00  0.00     0.022 C 
HETATM   13  C   UNL     1      26.277  40.876  44.126  1.00  0.00     0.127 C 
HETATM   14  C   UNL     1      28.865  38.221  48.589  1.00  0.00     0.035 A 
HETATM   15  C   UNL     1      28.978  38.964  49.767  1.00  0.00     0.032 A 
ENDROOT
BRANCH   1  16
HETATM   16  N   UNL     1      28.620  40.940  51.065  1.00  0.00    -0.323 N 
HETATM   17  C   UNL     1      28.222  42.234  51.360  1.00  0.00     0.256 C 
HETATM   18  O   UNL     1      27.519  42.950  50.657  1.00  0.00    -0.267 OA
HETATM   19  H   UNL     1      29.164  40.450  51.760  1.00  0.00     0.169 HD
BRANCH  17  20
HETATM   20  C   UNL     1      28.724  42.790  52.657  1.00  0.00     0.033 A 
HETATM   21  C   UNL     1      29.949  42.422  53.215  1.00  0.00     0.019 A 
HETATM   22  C   UNL     1      30.376  43.000  54.415  1.00  0.00     0.031 A 
HETATM   23  C   UNL     1      29.604  43.978  55.072  1.00  0.00     0.044 A 
HETATM   24  C   UNL     1      28.358  44.352  54.526  1.00  0.00    -0.034 A 
HETATM   25  C   UNL     1      27.394  45.320  55.157  1.00  0.00     0.050 C 
HETATM   26  C   UNL     1      27.948  43.759  53.311  1.00  0.00     0.026 A 
BRANCH  23  27
HETATM   27  N   UNL     1      30.150  44.555  56.260  1.00  0.00    -0.332 N 
HETATM   28  C   UNL     1      29.941  45.828  56.752  1.00  0.00     0.096 A 
HETATM   29  C   UNL     1      30.673  45.999  57.908  1.00  0.00     0.019 A 
HETATM   30  C   UNL     1      31.378  44.802  58.137  1.00  0.00     0.019 A 
HETATM   31  C   UNL     1      31.059  43.942  57.109  1.00  0.00     0.096 A 
ENDBRANCH  23  27
ENDBRANCH  17  20
ENDBRANCH   1  16
BRANCH   6  32
HETATM   32  O   UNL     1      28.267  37.478  44.159  1.00  0.00    -0.346 OA
HETATM   33  H   UNL     1      27.520  36.868  44.287  1.00  0.00     0.219 HD
ENDBRANCH   6  32
TORSDOF 4
ENDMDL
MODEL 7
REMARK VINA RESULT:      -8.6      3.878      6.794
REMARK  4 active torsions:
REMARK  status: ('A' for Active; 'I' for Inactive)
REMARK    1  A    between atoms: C_3  and  N_4 
REMARK    2  A    between atoms: C_11  and  C_12 
REMARK       I    between atoms: C_12  and  N_13 
REMARK    3  A    between atoms: N_13  and  C_14 
REMARK    4  A    between atoms: C_19  and  O_20 
ROOT
HETATM    1  C   UNL     1      17.678  51.804  47.274  1.00  0.00     0.036 A 
HETATM    2  C   UNL     1      16.835  52.132  48.335  1.00  0.00     0.049 A 
HETATM    3  C   UNL     1      15.567  52.702  48.101  1.00  0.00     0.063 A 
HETATM    4  C   UNL     1      15.129  52.961  46.788  1.00  0.00     0.075 A 
HETATM    5  N   UNL     1      13.903  53.541  46.398  1.00  0.00    -0.226 NA
HETATM    6  C   UNL     1      13.427  54.542  47.062  1.00  0.00     0.161 C 
HETATM    7  C   UNL     1      14.025  55.174  48.303  1.00  0.00     0.164 C 
HETATM    8  N   UNL     1      13.975  54.123  49.310  1.00  0.00    -0.336 N 
HETATM    9  C   UNL     1      14.735  52.977  49.302  1.00  0.00     0.257 C 
HETATM   10  O   UNL     1      14.752  52.191  50.244  1.00  0.00    -0.267 OA
HETATM   11  C   UNL     1      13.241  56.326  48.927  1.00  0.00     0.035 C 
HETATM   12  C   UNL     1      12.276  55.631  49.885  1.00  0.00     0.022 C 
HETATM   13  C   UNL     1      13.099  54.465  50.412  1.00  0.00     0.127 C 
HETATM   14  C   UNL     1      15.970  52.580  45.735  1.00  0.00     0.035 A 
HETATM   15  C   UNL     1      17.222  52.007  45.970  1.00  0.00     0.032 A 
ENDROOT
BRANCH   1  16
HETATM   16  N   UNL     1      18.984  51.294  47.421  1.00  0.00    -0.323 N 
HETATM   17  C   UNL     1      19.349  49.988  47.706  1.00  0.00     0.256 C 
HETATM   18  O   UNL     1      18.590  49.030  47.794  1.00  0.00    -0.267 OA
HETATM   19  H   UNL     1      19.724  51.975  47.335  1.00  0.00     0.169 HD
BRANCH  17  20
HETATM   20  C   UNL     1      20.810  49.756  47.940  1.00  0.00     0.033 A 
HETATM   21  C   UNL     1      21.749  50.788  47.948  1.00  0.00     0.019 A 
HETATM   22  C   UNL     1      23.096  50.510  48.202  1.00  0.00     0.031 A 
HETATM   23  C   UNL     1      23.534  49.201  48.480  1.00  0.00     0.044 A 
HETATM   24  C   UNL     1      22.598  48.145  48.464  1.00  0.00    -0.034 A 
HETATM   25  C   UNL     1      22.933  46.691  48.664  1.00  0.00     0.050 C 
HETATM   26  C   UNL     1      21.242  48.449  48.210  1.00  0.00     0.026 A 
BRANCH  23  27
HETATM   27  N   UNL     1      24.919  49.024  48.787  1.00  0.00    -0.332 N 
HETATM   28  C   UNL     1      25.475  48.145  49.694  1.00  0.00     0.096 A 
HETATM   29  C   UNL     1      26.844  48.306  49.710  1.00  0.00     0.019 A 
HETATM   30  C   UNL     1      27.153  49.333  48.798  1.00  0.00     0.019 A 
HETATM   31  C   UNL     1      25.961  49.769  48.261  1.00  0.00     0.096 A 
ENDBRANCH  23  27
ENDBRANCH  17  20
ENDBRANCH   1  16
BRANCH   6  32
HETATM   32  O   UNL     1      12.285  55.071  46.606  1.00  0.00    -0.346 OA
HETATM   33  H   UNL     1      12.525  55.840  46.062  1.00  0.00     0.219 HD
ENDBRANCH   6  32
TORSDOF 4
ENDMDL
MODEL 8
REMARK VINA RESULT:      -8.6     20.562     23.907
REMARK  4 active torsions:
REMARK  status: ('A' for Active; 'I' for Inactive)
REMARK    1  A    between atoms: C_3  and  N_4 
REMARK    2  A    between atoms: C_11  and  C_12 
REMARK       I    between atoms: C_12  and  N_13 
REMARK    3  A    between atoms: N_13  and  C_14 
REMARK    4  A    between atoms: C_19  and  O_20 
ROOT
HETATM    1  C   UNL     1      38.747  39.962  64.397  1.00  0.00     0.036 A 
HETATM    2  C   UNL     1      37.793  40.716  65.080  1.00  0.00     0.049 A 
HETATM    3  C   UNL     1      37.404  41.986  64.608  1.00  0.00     0.063 A 
HETATM    4  C   UNL     1      37.979  42.525  63.441  1.00  0.00     0.075 A 
HETATM    5  N   UNL     1      37.708  43.783  62.861  1.00  0.00    -0.226 NA
HETATM    6  C   UNL     1      37.566  44.821  63.617  1.00  0.00     0.161 C 
HETATM    7  C   UNL     1      37.605  44.853  65.131  1.00  0.00     0.164 C 
HETATM    8  N   UNL     1      36.464  44.050  65.544  1.00  0.00    -0.336 N 
HETATM    9  C   UNL     1      36.352  42.687  65.392  1.00  0.00     0.257 C 
HETATM   10  O   UNL     1      35.429  42.042  65.880  1.00  0.00    -0.267 OA
HETATM   11  C   UNL     1      37.367  46.209  65.792  1.00  0.00     0.035 C 
HETATM   12  C   UNL     1      35.849  46.275  65.945  1.00  0.00     0.022 C 
HETATM   13  C   UNL     1      35.473  44.834  66.254  1.00  0.00     0.127 C 
HETATM   14  C   UNL     1      38.900  41.733  62.745  1.00  0.00     0.035 A 
HETATM   15  C   UNL     1      39.276  40.470  63.209  1.00  0.00     0.032 A 
ENDROOT
BRANCH   1  16
HETATM   16  N   UNL     1      39.240  38.715  64.833  1.00  0.00    -0.323 N 
HETATM   17  C   UNL     1      40.162  38.482  65.840  1.00  0.00     0.256 C 
HETATM   18  O   UNL     1      40.642  39.326  66.588  1.00  0.00    -0.267 OA
HETATM   19  H   UNL     1      38.896  37.915  64.323  1.00  0.00     0.169 HD
BRANCH  17  20
HETATM   20  C   UNL     1      40.609  37.061  65.999  1.00  0.00     0.033 A 
HETATM   21  C   UNL     1      41.897  36.633  65.679  1.00  0.00     0.019 A 
HETATM   22  C   UNL     1      42.263  35.298  65.878  1.00  0.00     0.031 A 
HETATM   23  C   UNL     1      41.361  34.365  66.426  1.00  0.00     0.044 A 
HETATM   24  C   UNL     1      40.050  34.781  66.744  1.00  0.00    -0.034 A 
HETATM   25  C   UNL     1      38.959  33.881  67.259  1.00  0.00     0.050 C 
HETATM   26  C   UNL     1      39.704  36.135  66.539  1.00  0.00     0.026 A 
BRANCH  23  27
HETATM   27  N   UNL     1      41.844  33.038  66.649  1.00  0.00    -0.332 N 
HETATM   28  C   UNL     1      41.620  31.919  65.873  1.00  0.00     0.096 A 
HETATM   29  C   UNL     1      42.239  30.830  66.449  1.00  0.00     0.019 A 
HETATM   30  C   UNL     1      42.853  31.278  67.634  1.00  0.00     0.019 A 
HETATM   31  C   UNL     1      42.582  32.624  67.746  1.00  0.00     0.096 A 
ENDBRANCH  23  27
ENDBRANCH  17  20
ENDBRANCH   1  16
BRANCH   6  32
HETATM   32  O   UNL     1      37.359  45.987  62.995  1.00  0.00    -0.346 OA
HETATM   33  H   UNL     1      37.480  46.690  63.656  1.00  0.00     0.219 HD
ENDBRANCH   6  32
TORSDOF 4
ENDMDL
MODEL 9
REMARK VINA RESULT:      -8.4      2.625     10.758
REMARK  4 active torsions:
REMARK  status: ('A' for Active; 'I' for Inactive)
REMARK    1  A    between atoms: C_3  and  N_4 
REMARK    2  A    between atoms: C_11  and  C_12 
REMARK       I    between atoms: C_12  and  N_13 
REMARK    3  A    between atoms: N_13  and  C_14 
REMARK    4  A    between atoms: C_19  and  O_20 
ROOT
HETATM    1  C   UNL     1      22.759  46.993  48.821  1.00  0.00     0.036 A 
HETATM    2  C   UNL     1      23.687  47.284  49.820  1.00  0.00     0.049 A 
HETATM    3  C   UNL     1      24.569  46.293  50.297  1.00  0.00     0.063 A 
HETATM    4  C   UNL     1      24.525  44.985  49.779  1.00  0.00     0.075 A 
HETATM    5  N   UNL     1      25.326  43.889  50.167  1.00  0.00    -0.226 NA
HETATM    6  C   UNL     1      25.585  43.694  51.417  1.00  0.00     0.161 C 
HETATM    7  C   UNL     1      25.158  44.568  52.579  1.00  0.00     0.164 C 
HETATM    8  N   UNL     1      25.833  45.837  52.350  1.00  0.00    -0.336 N 
HETATM    9  C   UNL     1      25.542  46.722  51.337  1.00  0.00     0.257 C 
HETATM   10  O   UNL     1      26.048  47.838  51.271  1.00  0.00    -0.267 OA
HETATM   11  C   UNL     1      25.632  44.138  53.966  1.00  0.00     0.035 C 
HETATM   12  C   UNL     1      26.995  44.813  54.108  1.00  0.00     0.022 C 
HETATM   13  C   UNL     1      26.796  46.139  53.389  1.00  0.00     0.127 C 
HETATM   14  C   UNL     1      23.620  44.725  48.743  1.00  0.00     0.035 A 
HETATM   15  C   UNL     1      22.753  45.712  48.266  1.00  0.00     0.032 A 
ENDROOT
BRANCH   1  16
HETATM   16  N   UNL     1      21.798  47.903  48.334  1.00  0.00    -0.323 N 
HETATM   17  C   UNL     1      20.423  47.833  48.487  1.00  0.00     0.256 C 
HETATM   18  O   UNL     1      19.812  47.006  49.153  1.00  0.00    -0.267 OA
HETATM   19  H   UNL     1      22.168  48.668  47.790  1.00  0.00     0.169 HD
BRANCH  17  20
HETATM   20  C   UNL     1      19.632  48.867  47.746  1.00  0.00     0.033 A 
HETATM   21  C   UNL     1      18.878  48.572  46.609  1.00  0.00     0.019 A 
HETATM   22  C   UNL     1      18.137  49.577  45.979  1.00  0.00     0.031 A 
HETATM   23  C   UNL     1      18.108  50.892  46.482  1.00  0.00     0.044 A 
HETATM   24  C   UNL     1      18.875  51.208  47.624  1.00  0.00    -0.034 A 
HETATM   25  C   UNL     1      19.004  52.582  48.225  1.00  0.00     0.050 C 
HETATM   26  C   UNL     1      19.613  50.177  48.248  1.00  0.00     0.026 A 
BRANCH  23  27
HETATM   27  N   UNL     1      17.274  51.836  45.806  1.00  0.00    -0.332 N 
HETATM   28  C   UNL     1      16.018  52.268  46.178  1.00  0.00     0.096 A 
HETATM   29  C   UNL     1      15.543  53.160  45.240  1.00  0.00     0.019 A 
HETATM   30  C   UNL     1      16.526  53.275  44.238  1.00  0.00     0.019 A 
HETATM   31  C   UNL     1      17.565  52.443  44.595  1.00  0.00     0.096 A 
ENDBRANCH  23  27
ENDBRANCH  17  20
ENDBRANCH   1  16
BRANCH   6  32
HETATM   32  O   UNL     1      26.309  42.608  51.714  1.00  0.00    -0.346 OA
HETATM   33  H   UNL     1      26.429  42.600  52.679  1.00  0.00     0.219 HD
ENDBRANCH   6  32
TORSDOF 4
ENDMDL
MODEL 10
REMARK VINA RESULT:      -8.4      7.672      9.861
REMARK  4 active torsions:
REMARK  status: ('A' for Active; 'I' for Inactive)
REMARK    1  A    between atoms: C_3  and  N_4 
REMARK    2  A    between atoms: C_11  and  C_12 
REMARK       I    between atoms: C_12  and  N_13 
REMARK    3  A    between atoms: N_13  and  C_14 
REMARK    4  A    between atoms: C_19  and  O_20 
ROOT
HETATM    1  C   UNL     1      26.493  41.992  50.019  1.00  0.00     0.036 A 
HETATM    2  C   UNL     1      27.266  41.592  48.929  1.00  0.00     0.049 A 
HETATM    3  C   UNL     1      26.664  41.036  47.782  1.00  0.00     0.063 A 
HETATM    4  C   UNL     1      25.268  40.864  47.717  1.00  0.00     0.075 A 
HETATM    5  N   UNL     1      24.528  40.307  46.651  1.00  0.00    -0.226 NA
HETATM    6  C   UNL     1      24.976  39.264  46.036  1.00  0.00     0.161 C 
HETATM    7  C   UNL     1      26.289  38.552  46.292  1.00  0.00     0.164 C 
HETATM    8  N   UNL     1      27.309  39.534  45.953  1.00  0.00    -0.336 N 
HETATM    9  C   UNL     1      27.578  40.679  46.665  1.00  0.00     0.257 C 
HETATM   10  O   UNL     1      28.538  41.401  46.413  1.00  0.00    -0.267 OA
HETATM   11  C   UNL     1      26.605  37.359  45.393  1.00  0.00     0.035 C 
HETATM   12  C   UNL     1      27.312  37.986  44.193  1.00  0.00     0.022 C 
HETATM   13  C   UNL     1      28.112  39.118  44.821  1.00  0.00     0.127 C 
HETATM   14  C   UNL     1      24.506  41.315  48.801  1.00  0.00     0.035 A 
HETATM   15  C   UNL     1      25.104  41.875  49.933  1.00  0.00     0.032 A 
ENDROOT
BRANCH   1  16
HETATM   16  N   UNL     1      27.016  42.494  51.228  1.00  0.00    -0.323 N 
HETATM   17  C   UNL     1      27.169  43.823  51.589  1.00  0.00     0.256 C 
HETATM   18  O   UNL     1      26.789  44.793  50.945  1.00  0.00    -0.267 OA
HETATM   19  H   UNL     1      27.339  41.795  51.880  1.00  0.00     0.169 HD
BRANCH  17  20
HETATM   20  C   UNL     1      27.881  44.069  52.883  1.00  0.00     0.033 A 
HETATM   21  C   UNL     1      28.811  43.176  53.417  1.00  0.00     0.019 A 
HETATM   22  C   UNL     1      29.464  43.476  54.616  1.00  0.00     0.031 A 
HETATM   23  C   UNL     1      29.227  44.686  55.297  1.00  0.00     0.044 A 
HETATM   24  C   UNL     1      28.281  45.595  54.775  1.00  0.00    -0.034 A 
HETATM   25  C   UNL     1      27.867  46.884  55.432  1.00  0.00     0.050 C 
HETATM   26  C   UNL     1      27.635  45.272  53.561  1.00  0.00     0.026 A 
BRANCH  23  27
HETATM   27  N   UNL     1      29.987  44.933  56.483  1.00  0.00    -0.332 N 
HETATM   28  C   UNL     1      31.076  44.224  56.948  1.00  0.00     0.096 A 
HETATM   29  C   UNL     1      31.502  44.769  58.140  1.00  0.00     0.019 A 
HETATM   30  C   UNL     1      30.640  45.840  58.441  1.00  0.00     0.019 A 
HETATM   31  C   UNL     1      29.712  45.910  57.426  1.00  0.00     0.096 A 
ENDBRANCH  23  27
ENDBRANCH  17  20
ENDBRANCH   1  16
BRANCH   6  32
HETATM   32  O   UNL     1      24.198  38.763  45.068  1.00  0.00    -0.346 OA
HETATM   33  H   UNL     1      23.434  39.359  44.979  1.00  0.00     0.219 HD
ENDBRANCH   6  32
TORSDOF 4
ENDMDL
