MODEL 1
REMARK VINA RESULT:      -7.5      0.000      0.000
REMARK  9 active torsions:
REMARK  status: ('A' for Active; 'I' for Inactive)
REMARK    1  A    between atoms: C_4  and  C_5 
REMARK    2  A    between atoms: C_7  and  O_8 
REMARK    3  A    between atoms: C_10  and  O_11 
REMARK    4  A    between atoms: C_16  and  C_17 
REMARK    5  A    between atoms: C_20  and  C_21 
REMARK    6  A    between atoms: C_21  and  N_22 
REMARK    7  A    between atoms: N_22  and  C_23 
REMARK    8  A    between atoms: C_23  and  N_24 
REMARK    9  A    between atoms: N_24  and  C_25 
ROOT
HETATM    1  C   UNL     1      26.883  50.133  39.267  1.00  0.00     0.034 A 
HETATM    2  C   UNL     1      27.441  50.894  38.236  1.00  0.00     0.031 A 
HETATM    3  C   UNL     1      28.251  51.998  38.525  1.00  0.00     0.025 A 
HETATM    4  C   UNL     1      28.519  52.348  39.851  1.00  0.00     0.044 A 
HETATM    5  C   UNL     1      29.345  53.483  40.141  1.00  0.00     0.099 C 
HETATM    6  N   UNL     1      30.006  54.412  40.354  1.00  0.00    -0.191 NA
HETATM    7  C   UNL     1      27.987  51.575  40.885  1.00  0.00     0.025 A 
HETATM    8  C   UNL     1      27.184  50.467  40.592  1.00  0.00     0.031 A 
ENDROOT
BRANCH   1   9
HETATM    9  N   UNL     1      26.088  48.990  39.051  1.00  0.00    -0.333 N 
HETATM   10  H   UNL     1      26.594  48.152  38.771  1.00  0.00     0.168 HD
BRANCH   9  11
HETATM   11  C   UNL     1      24.731  48.831  39.019  1.00  0.00     0.172 C 
HETATM   12  S   UNL     1      23.796  50.106  38.485  1.00  0.00    -0.041 SA
BRANCH  11  13
HETATM   13  N   UNL     1      24.253  47.597  39.380  1.00  0.00    -0.365 N 
HETATM   14  H   UNL     1      23.515  47.291  38.752  1.00  0.00     0.161 HD
BRANCH  13  15
HETATM   15  C   UNL     1      24.239  47.074  40.743  1.00  0.00     0.155 C 
BRANCH  15  16
HETATM   16  C   UNL     1      24.954  45.711  40.871  1.00  0.00     0.206 C 
HETATM   17  C   UNL     1      25.747  45.307  39.617  1.00  0.00     0.040 C 
HETATM   18  C   UNL     1      27.152  44.773  39.971  1.00  0.00     0.001 C 
HETATM   19  C   UNL     1      28.020  45.823  40.696  1.00  0.00     0.067 C 
HETATM   20  C   UNL     1      26.908  43.639  41.006  1.00  0.00     0.033 C 
HETATM   21  C   UNL     1      27.178  46.518  41.786  1.00  0.00     0.246 C 
HETATM   22  N   UNL     1      25.928  45.670  42.045  1.00  0.00    -0.065 N 
HETATM   23  C   UNL     1      26.332  44.221  42.308  1.00  0.00     0.236 C 
HETATM   24  H   UNL     1      25.463  46.035  42.889  1.00  0.00     0.280 HD
BRANCH  19  25
HETATM   25  C   UNL     1      28.883  46.791  39.934  1.00  0.00     0.038 C 
HETATM   26  N   UNL     1      29.050  46.994  38.583  1.00  0.00    -0.277 N 
HETATM   27  C   UNL     1      28.588  46.241  37.443  1.00  0.00     0.179 C 
HETATM   28  N   UNL     1      29.748  48.102  38.299  1.00  0.00    -0.172 NA
HETATM   29  C   UNL     1      30.204  48.560  39.467  1.00  0.00     0.089 C 
HETATM   30  C   UNL     1      29.695  47.759  40.515  1.00  0.00     0.061 C 
BRANCH  29  31
HETATM   31  C   UNL     1      31.047  49.750  39.557  1.00  0.00    -0.003 A 
HETATM   32  C   UNL     1      31.470  50.219  40.811  1.00  0.00     0.053 A 
HETATM   33  C   UNL     1      32.305  51.338  40.916  1.00  0.00     0.102 A 
HETATM   34  C   UNL     1      32.714  52.014  39.750  1.00  0.00     0.101 A 
HETATM   35  C   UNL     1      32.285  51.554  38.501  1.00  0.00     0.040 A 
HETATM   36  C   UNL     1      31.459  50.430  38.405  1.00  0.00     0.017 A 
BRANCH  33  37
HETATM   37  O   UNL     1      32.775  51.843  42.103  1.00  0.00    -0.353 OA
HETATM   38  C   UNL     1      32.439  51.152  43.297  1.00  0.00     0.210 C 
ENDBRANCH  33  37
BRANCH  34  39
HETATM   39  O   UNL     1      33.536  53.096  39.937  1.00  0.00    -0.353 OA
HETATM   40  C   UNL     1      34.875  52.995  39.476  1.00  0.00     0.210 C 
ENDBRANCH  34  39
ENDBRANCH  29  31
ENDBRANCH  19  25
ENDBRANCH  15  16
ENDBRANCH  13  15
ENDBRANCH  11  13
ENDBRANCH   9  11
ENDBRANCH   1   9
TORSDOF 9
ENDMDL
MODEL 2
REMARK VINA RESULT:      -7.2      2.048      3.319
REMARK  9 active torsions:
REMARK  status: ('A' for Active; 'I' for Inactive)
REMARK    1  A    between atoms: C_4  and  C_5 
REMARK    2  A    between atoms: C_7  and  O_8 
REMARK    3  A    between atoms: C_10  and  O_11 
REMARK    4  A    between atoms: C_16  and  C_17 
REMARK    5  A    between atoms: C_20  and  C_21 
REMARK    6  A    between atoms: C_21  and  N_22 
REMARK    7  A    between atoms: N_22  and  C_23 
REMARK    8  A    between atoms: C_23  and  N_24 
REMARK    9  A    between atoms: N_24  and  C_25 
ROOT
HETATM    1  C   UNL     1      29.852  51.962  38.859  1.00  0.00     0.034 A 
HETATM    2  C   UNL     1      30.561  51.046  38.077  1.00  0.00     0.031 A 
HETATM    3  C   UNL     1      31.959  50.997  38.130  1.00  0.00     0.025 A 
HETATM    4  C   UNL     1      32.662  51.858  38.977  1.00  0.00     0.044 A 
HETATM    5  C   UNL     1      34.094  51.807  39.024  1.00  0.00     0.099 C 
HETATM    6  N   UNL     1      35.252  51.757  39.038  1.00  0.00    -0.191 NA
HETATM    7  C   UNL     1      31.958  52.756  39.782  1.00  0.00     0.025 A 
HETATM    8  C   UNL     1      30.560  52.797  39.731  1.00  0.00     0.031 A 
ENDROOT
BRANCH   1   9
HETATM    9  N   UNL     1      28.445  52.045  38.883  1.00  0.00    -0.333 N 
HETATM   10  H   UNL     1      28.051  52.899  38.492  1.00  0.00     0.168 HD
BRANCH   9  11
HETATM   11  C   UNL     1      27.507  51.238  39.461  1.00  0.00     0.172 C 
HETATM   12  S   UNL     1      27.375  51.241  41.125  1.00  0.00    -0.041 SA
BRANCH  11  13
HETATM   13  N   UNL     1      26.704  50.526  38.606  1.00  0.00    -0.365 N 
HETATM   14  H   UNL     1      26.993  50.653  37.640  1.00  0.00     0.161 HD
BRANCH  13  15
HETATM   15  C   UNL     1      25.302  50.201  38.853  1.00  0.00     0.155 C 
BRANCH  15  16
HETATM   16  C   UNL     1      24.995  48.697  38.685  1.00  0.00     0.206 C 
HETATM   17  C   UNL     1      26.064  47.932  37.887  1.00  0.00     0.040 C 
HETATM   18  C   UNL     1      26.443  46.597  38.565  1.00  0.00     0.001 C 
HETATM   19  C   UNL     1      27.036  46.796  39.977  1.00  0.00     0.067 C 
HETATM   20  C   UNL     1      25.096  45.849  38.774  1.00  0.00     0.033 C 
HETATM   21  C   UNL     1      26.181  47.821  40.750  1.00  0.00     0.246 C 
HETATM   22  N   UNL     1      24.841  47.979  40.023  1.00  0.00    -0.065 N 
HETATM   23  C   UNL     1      24.217  46.606  39.784  1.00  0.00     0.236 C 
HETATM   24  H   UNL     1      24.209  48.520  40.631  1.00  0.00     0.280 HD
BRANCH  19  25
HETATM   25  C   UNL     1      28.510  47.003  40.187  1.00  0.00     0.038 C 
HETATM   26  N   UNL     1      29.605  46.362  39.657  1.00  0.00    -0.277 N 
HETATM   27  C   UNL     1      29.713  45.168  38.854  1.00  0.00     0.179 C 
HETATM   28  N   UNL     1      30.762  46.983  39.927  1.00  0.00    -0.172 NA
HETATM   29  C   UNL     1      30.464  47.955  40.791  1.00  0.00     0.089 C 
HETATM   30  C   UNL     1      29.066  47.994  40.991  1.00  0.00     0.061 C 
BRANCH  29  31
HETATM   31  C   UNL     1      31.489  48.836  41.348  1.00  0.00    -0.003 A 
HETATM   32  C   UNL     1      31.124  49.885  42.207  1.00  0.00     0.053 A 
HETATM   33  C   UNL     1      32.092  50.720  42.777  1.00  0.00     0.102 A 
HETATM   34  C   UNL     1      33.453  50.515  42.474  1.00  0.00     0.101 A 
HETATM   35  C   UNL     1      33.818  49.477  41.611  1.00  0.00     0.040 A 
HETATM   36  C   UNL     1      32.844  48.643  41.054  1.00  0.00     0.017 A 
BRANCH  33  37
HETATM   37  O   UNL     1      31.814  51.752  43.639  1.00  0.00    -0.353 OA
HETATM   38  C   UNL     1      30.783  52.658  43.276  1.00  0.00     0.210 C 
ENDBRANCH  33  37
BRANCH  34  39
HETATM   39  O   UNL     1      34.340  51.370  43.077  1.00  0.00    -0.353 OA
HETATM   40  C   UNL     1      35.683  51.361  42.616  1.00  0.00     0.210 C 
ENDBRANCH  34  39
ENDBRANCH  29  31
ENDBRANCH  19  25
ENDBRANCH  15  16
ENDBRANCH  13  15
ENDBRANCH  11  13
ENDBRANCH   9  11
ENDBRANCH   1   9
TORSDOF 9
ENDMDL
MODEL 3
REMARK VINA RESULT:      -7.1     11.216     14.095
REMARK  9 active torsions:
REMARK  status: ('A' for Active; 'I' for Inactive)
REMARK    1  A    between atoms: C_4  and  C_5 
REMARK    2  A    between atoms: C_7  and  O_8 
REMARK    3  A    between atoms: C_10  and  O_11 
REMARK    4  A    between atoms: C_16  and  C_17 
REMARK    5  A    between atoms: C_20  and  C_21 
REMARK    6  A    between atoms: C_21  and  N_22 
REMARK    7  A    between atoms: N_22  and  C_23 
REMARK    8  A    between atoms: C_23  and  N_24 
REMARK    9  A    between atoms: N_24  and  C_25 
ROOT
HETATM    1  C   UNL     1      28.180  41.949  53.313  1.00  0.00     0.034 A 
HETATM    2  C   UNL     1      29.572  42.059  53.385  1.00  0.00     0.031 A 
HETATM    3  C   UNL     1      30.168  43.053  54.168  1.00  0.00     0.025 A 
HETATM    4  C   UNL     1      29.377  43.944  54.898  1.00  0.00     0.044 A 
HETATM    5  C   UNL     1      29.993  44.964  55.694  1.00  0.00     0.099 C 
HETATM    6  N   UNL     1      30.511  45.790  56.323  1.00  0.00    -0.191 NA
HETATM    7  C   UNL     1      27.987  43.823  54.852  1.00  0.00     0.025 A 
HETATM    8  C   UNL     1      27.394  42.822  54.073  1.00  0.00     0.031 A 
ENDROOT
BRANCH   1   9
HETATM    9  N   UNL     1      27.512  40.953  52.574  1.00  0.00    -0.333 N 
HETATM   10  H   UNL     1      27.366  40.071  53.062  1.00  0.00     0.168 HD
BRANCH   9  11
HETATM   11  C   UNL     1      27.139  40.906  51.260  1.00  0.00     0.172 C 
HETATM   12  S   UNL     1      28.031  39.958  50.216  1.00  0.00    -0.041 SA
BRANCH  11  13
HETATM   13  N   UNL     1      26.011  41.610  50.922  1.00  0.00    -0.365 N 
HETATM   14  H   UNL     1      25.178  41.036  51.014  1.00  0.00     0.161 HD
BRANCH  13  15
HETATM   15  C   UNL     1      25.970  42.709  49.961  1.00  0.00     0.155 C 
BRANCH  15  16
HETATM   16  C   UNL     1      26.366  44.066  50.582  1.00  0.00     0.206 C 
HETATM   17  C   UNL     1      26.511  45.200  49.553  1.00  0.00     0.040 C 
HETATM   18  C   UNL     1      25.817  46.497  50.025  1.00  0.00     0.001 C 
HETATM   19  C   UNL     1      24.299  46.314  50.237  1.00  0.00     0.067 C 
HETATM   20  C   UNL     1      26.408  46.787  51.433  1.00  0.00     0.033 C 
HETATM   21  C   UNL     1      24.045  44.999  51.002  1.00  0.00     0.246 C 
HETATM   22  N   UNL     1      25.366  44.542  51.631  1.00  0.00    -0.065 N 
HETATM   23  C   UNL     1      25.984  45.691  52.425  1.00  0.00     0.236 C 
HETATM   24  H   UNL     1      25.161  43.772  52.284  1.00  0.00     0.280 HD
BRANCH  19  25
HETATM   25  C   UNL     1      23.318  46.524  49.117  1.00  0.00     0.038 C 
HETATM   26  N   UNL     1      22.873  45.681  48.125  1.00  0.00    -0.277 N 
HETATM   27  C   UNL     1      23.317  44.370  47.720  1.00  0.00     0.179 C 
HETATM   28  N   UNL     1      21.829  46.173  47.443  1.00  0.00    -0.172 NA
HETATM   29  C   UNL     1      21.677  47.432  47.861  1.00  0.00     0.089 C 
HETATM   30  C   UNL     1      22.599  47.695  48.900  1.00  0.00     0.061 C 
BRANCH  29  31
HETATM   31  C   UNL     1      20.647  48.311  47.311  1.00  0.00    -0.003 A 
HETATM   32  C   UNL     1      19.635  47.782  46.494  1.00  0.00     0.053 A 
HETATM   33  C   UNL     1      18.620  48.600  45.984  1.00  0.00     0.102 A 
HETATM   34  C   UNL     1      18.622  49.978  46.280  1.00  0.00     0.101 A 
HETATM   35  C   UNL     1      19.635  50.507  47.085  1.00  0.00     0.040 A 
HETATM   36  C   UNL     1      20.639  49.680  47.598  1.00  0.00     0.017 A 
BRANCH  33  37
HETATM   37  O   UNL     1      17.588  48.153  45.197  1.00  0.00    -0.353 OA
HETATM   38  C   UNL     1      17.907  47.303  44.106  1.00  0.00     0.210 C 
ENDBRANCH  33  37
BRANCH  34  39
HETATM   39  O   UNL     1      17.591  50.710  45.750  1.00  0.00    -0.353 OA
HETATM   40  C   UNL     1      17.359  52.006  46.282  1.00  0.00     0.210 C 
ENDBRANCH  34  39
ENDBRANCH  29  31
ENDBRANCH  19  25
ENDBRANCH  15  16
ENDBRANCH  13  15
ENDBRANCH  11  13
ENDBRANCH   9  11
ENDBRANCH   1   9
TORSDOF 9
ENDMDL
MODEL 4
REMARK VINA RESULT:      -7.0     12.545     16.133
REMARK  9 active torsions:
REMARK  status: ('A' for Active; 'I' for Inactive)
REMARK    1  A    between atoms: C_4  and  C_5 
REMARK    2  A    between atoms: C_7  and  O_8 
REMARK    3  A    between atoms: C_10  and  O_11 
REMARK    4  A    between atoms: C_16  and  C_17 
REMARK    5  A    between atoms: C_20  and  C_21 
REMARK    6  A    between atoms: C_21  and  N_22 
REMARK    7  A    between atoms: N_22  and  C_23 
REMARK    8  A    between atoms: C_23  and  N_24 
REMARK    9  A    between atoms: N_24  and  C_25 
ROOT
HETATM    1  C   UNL     1      24.163  45.183  49.859  1.00  0.00     0.034 A 
HETATM    2  C   UNL     1      23.935  44.073  50.678  1.00  0.00     0.031 A 
HETATM    3  C   UNL     1      25.006  43.314  51.161  1.00  0.00     0.025 A 
HETATM    4  C   UNL     1      26.320  43.663  50.839  1.00  0.00     0.044 A 
HETATM    5  C   UNL     1      27.413  42.879  51.333  1.00  0.00     0.099 C 
HETATM    6  N   UNL     1      28.282  42.224  51.734  1.00  0.00    -0.191 NA
HETATM    7  C   UNL     1      26.556  44.787  50.045  1.00  0.00     0.025 A 
HETATM    8  C   UNL     1      25.482  45.549  49.569  1.00  0.00     0.031 A 
ENDROOT
BRANCH   1   9
HETATM    9  N   UNL     1      23.137  46.013  49.365  1.00  0.00    -0.333 N 
HETATM   10  H   UNL     1      23.129  46.964  49.730  1.00  0.00     0.168 HD
BRANCH   9  11
HETATM   11  C   UNL     1      22.056  45.734  48.577  1.00  0.00     0.172 C 
HETATM   12  S   UNL     1      22.304  44.879  47.165  1.00  0.00    -0.041 SA
BRANCH  11  13
HETATM   13  N   UNL     1      20.835  46.139  49.052  1.00  0.00    -0.365 N 
HETATM   14  H   UNL     1      20.304  45.354  49.420  1.00  0.00     0.161 HD
BRANCH  13  15
HETATM   15  C   UNL     1      20.081  47.285  48.549  1.00  0.00     0.155 C 
BRANCH  15  16
HETATM   16  C   UNL     1      20.925  48.577  48.481  1.00  0.00     0.206 C 
HETATM   17  C   UNL     1      20.404  49.605  47.463  1.00  0.00     0.040 C 
HETATM   18  C   UNL     1      20.373  51.033  48.052  1.00  0.00     0.001 C 
HETATM   19  C   UNL     1      19.443  51.148  49.278  1.00  0.00     0.067 C 
HETATM   20  C   UNL     1      21.811  51.285  48.586  1.00  0.00     0.033 C 
HETATM   21  C   UNL     1      19.684  49.948  50.217  1.00  0.00     0.246 C 
HETATM   22  N   UNL     1      21.012  49.289  49.828  1.00  0.00    -0.065 N 
HETATM   23  C   UNL     1      22.114  50.344  49.764  1.00  0.00     0.236 C 
HETATM   24  H   UNL     1      21.258  48.608  50.560  1.00  0.00     0.280 HD
BRANCH  19  25
HETATM   25  C   UNL     1      17.983  51.476  49.129  1.00  0.00     0.038 C 
HETATM   26  N   UNL     1      16.937  50.755  48.602  1.00  0.00    -0.277 N 
HETATM   27  C   UNL     1      16.912  49.517  47.861  1.00  0.00     0.179 C 
HETATM   28  N   UNL     1      15.740  51.305  48.848  1.00  0.00    -0.172 NA
HETATM   29  C   UNL     1      15.988  52.496  49.398  1.00  0.00     0.089 C 
HETATM   30  C   UNL     1      17.382  52.647  49.579  1.00  0.00     0.061 C 
BRANCH  29  31
HETATM   31  C   UNL     1      14.915  53.412  49.777  1.00  0.00    -0.003 A 
HETATM   32  C   UNL     1      14.774  53.817  51.114  1.00  0.00     0.053 A 
HETATM   33  C   UNL     1      13.774  54.719  51.492  1.00  0.00     0.102 A 
HETATM   34  C   UNL     1      12.883  55.218  50.521  1.00  0.00     0.101 A 
HETATM   35  C   UNL     1      13.015  54.809  49.191  1.00  0.00     0.040 A 
HETATM   36  C   UNL     1      14.024  53.914  48.821  1.00  0.00     0.017 A 
BRANCH  33  37
HETATM   37  O   UNL     1      13.587  55.175  52.774  1.00  0.00    -0.353 OA
HETATM   38  C   UNL     1      14.283  56.348  53.168  1.00  0.00     0.210 C 
ENDBRANCH  33  37
BRANCH  34  39
HETATM   39  O   UNL     1      11.936  56.103  50.969  1.00  0.00    -0.353 OA
HETATM   40  C   UNL     1      11.581  57.180  50.114  1.00  0.00     0.210 C 
ENDBRANCH  34  39
ENDBRANCH  29  31
ENDBRANCH  19  25
ENDBRANCH  15  16
ENDBRANCH  13  15
ENDBRANCH  11  13
ENDBRANCH   9  11
ENDBRANCH   1   9
TORSDOF 9
ENDMDL
MODEL 5
REMARK VINA RESULT:      -6.8     11.370     14.886
REMARK  9 active torsions:
REMARK  status: ('A' for Active; 'I' for Inactive)
REMARK    1  A    between atoms: C_4  and  C_5 
REMARK    2  A    between atoms: C_7  and  O_8 
REMARK    3  A    between atoms: C_10  and  O_11 
REMARK    4  A    between atoms: C_16  and  C_17 
REMARK    5  A    between atoms: C_20  and  C_21 
REMARK    6  A    between atoms: C_21  and  N_22 
REMARK    7  A    between atoms: N_22  and  C_23 
REMARK    8  A    between atoms: C_23  and  N_24 
REMARK    9  A    between atoms: N_24  and  C_25 
ROOT
HETATM    1  C   UNL     1      28.394  44.053  53.803  1.00  0.00     0.034 A 
HETATM    2  C   UNL     1      28.624  45.130  54.664  1.00  0.00     0.031 A 
HETATM    3  C   UNL     1      29.596  45.044  55.667  1.00  0.00     0.025 A 
HETATM    4  C   UNL     1      30.357  43.882  55.813  1.00  0.00     0.044 A 
HETATM    5  C   UNL     1      31.347  43.797  56.845  1.00  0.00     0.099 C 
HETATM    6  N   UNL     1      32.136  43.746  57.695  1.00  0.00    -0.191 NA
HETATM    7  C   UNL     1      30.152  42.813  54.939  1.00  0.00     0.025 A 
HETATM    8  C   UNL     1      29.183  42.905  53.932  1.00  0.00     0.031 A 
ENDROOT
BRANCH   1   9
HETATM    9  N   UNL     1      27.457  44.080  52.750  1.00  0.00    -0.333 N 
HETATM   10  H   UNL     1      27.068  44.997  52.536  1.00  0.00     0.168 HD
BRANCH   9  11
HETATM   11  C   UNL     1      26.868  43.070  52.044  1.00  0.00     0.172 C 
HETATM   12  S   UNL     1      27.850  41.941  51.306  1.00  0.00    -0.041 SA
BRANCH  11  13
HETATM   13  N   UNL     1      25.497  43.040  52.052  1.00  0.00    -0.365 N 
HETATM   14  H   UNL     1      25.150  42.085  52.082  1.00  0.00     0.161 HD
BRANCH  13  15
HETATM   15  C   UNL     1      24.636  44.051  51.444  1.00  0.00     0.155 C 
BRANCH  15  16
HETATM   16  C   UNL     1      23.891  43.534  50.194  1.00  0.00     0.206 C 
HETATM   17  C   UNL     1      22.399  43.909  50.162  1.00  0.00     0.040 C 
HETATM   18  C   UNL     1      21.969  44.439  48.777  1.00  0.00     0.001 C 
HETATM   19  C   UNL     1      22.732  45.717  48.368  1.00  0.00     0.067 C 
HETATM   20  C   UNL     1      22.408  43.343  47.766  1.00  0.00     0.033 C 
HETATM   21  C   UNL     1      24.233  45.537  48.675  1.00  0.00     0.246 C 
HETATM   22  N   UNL     1      24.506  44.045  48.895  1.00  0.00    -0.065 N 
HETATM   23  C   UNL     1      23.943  43.240  47.726  1.00  0.00     0.236 C 
HETATM   24  H   UNL     1      25.526  43.907  48.921  1.00  0.00     0.280 HD
BRANCH  19  25
HETATM   25  C   UNL     1      22.230  47.085  48.740  1.00  0.00     0.038 C 
HETATM   26  N   UNL     1      22.895  48.263  48.988  1.00  0.00    -0.277 N 
HETATM   27  C   UNL     1      24.301  48.549  49.141  1.00  0.00     0.179 C 
HETATM   28  N   UNL     1      22.078  49.322  49.077  1.00  0.00    -0.172 NA
HETATM   29  C   UNL     1      20.837  48.830  49.062  1.00  0.00     0.089 C 
HETATM   30  C   UNL     1      20.888  47.431  48.866  1.00  0.00     0.061 C 
BRANCH  29  31
HETATM   31  C   UNL     1      19.662  49.692  49.178  1.00  0.00    -0.003 A 
HETATM   32  C   UNL     1      18.427  49.270  48.661  1.00  0.00     0.053 A 
HETATM   33  C   UNL     1      17.282  50.065  48.790  1.00  0.00     0.102 A 
HETATM   34  C   UNL     1      17.372  51.315  49.434  1.00  0.00     0.101 A 
HETATM   35  C   UNL     1      18.603  51.741  49.941  1.00  0.00     0.040 A 
HETATM   36  C   UNL     1      19.739  50.936  49.816  1.00  0.00     0.017 A 
BRANCH  33  37
HETATM   37  O   UNL     1      16.038  49.712  48.328  1.00  0.00    -0.353 OA
HETATM   38  C   UNL     1      15.728  50.000  46.974  1.00  0.00     0.210 C 
ENDBRANCH  33  37
BRANCH  34  39
HETATM   39  O   UNL     1      16.206  52.031  49.527  1.00  0.00    -0.353 OA
HETATM   40  C   UNL     1      16.284  53.359  50.022  1.00  0.00     0.210 C 
ENDBRANCH  34  39
ENDBRANCH  29  31
ENDBRANCH  19  25
ENDBRANCH  15  16
ENDBRANCH  13  15
ENDBRANCH  11  13
ENDBRANCH   9  11
ENDBRANCH   1   9
TORSDOF 9
ENDMDL
MODEL 6
REMARK VINA RESULT:      -6.7     10.851     14.195
REMARK  9 active torsions:
REMARK  status: ('A' for Active; 'I' for Inactive)
REMARK    1  A    between atoms: C_4  and  C_5 
REMARK    2  A    between atoms: C_7  and  O_8 
REMARK    3  A    between atoms: C_10  and  O_11 
REMARK    4  A    between atoms: C_16  and  C_17 
REMARK    5  A    between atoms: C_20  and  C_21 
REMARK    6  A    between atoms: C_21  and  N_22 
REMARK    7  A    between atoms: N_22  and  C_23 
REMARK    8  A    between atoms: C_23  and  N_24 
REMARK    9  A    between atoms: N_24  and  C_25 
ROOT
HETATM    1  C   UNL     1      28.106  42.079  53.080  1.00  0.00     0.034 A 
HETATM    2  C   UNL     1      29.502  42.149  53.122  1.00  0.00     0.031 A 
HETATM    3  C   UNL     1      30.144  43.036  53.993  1.00  0.00     0.025 A 
HETATM    4  C   UNL     1      29.395  43.857  54.841  1.00  0.00     0.044 A 
HETATM    5  C   UNL     1      30.058  44.767  55.727  1.00  0.00     0.099 C 
HETATM    6  N   UNL     1      30.614  45.505  56.428  1.00  0.00    -0.191 NA
HETATM    7  C   UNL     1      28.002  43.771  54.824  1.00  0.00     0.025 A 
HETATM    8  C   UNL     1      27.363  42.877  53.955  1.00  0.00     0.031 A 
ENDROOT
BRANCH   1   9
HETATM    9  N   UNL     1      27.394  41.187  52.254  1.00  0.00    -0.333 N 
HETATM   10  H   UNL     1      27.092  40.323  52.701  1.00  0.00     0.168 HD
BRANCH   9  11
HETATM   11  C   UNL     1      27.146  41.208  50.910  1.00  0.00     0.172 C 
HETATM   12  S   UNL     1      27.940  40.107  49.940  1.00  0.00    -0.041 SA
BRANCH  11  13
HETATM   13  N   UNL     1      26.208  42.111  50.478  1.00  0.00    -0.365 N 
HETATM   14  H   UNL     1      25.293  41.677  50.389  1.00  0.00     0.161 HD
BRANCH  13  15
HETATM   15  C   UNL     1      26.491  43.268  49.632  1.00  0.00     0.155 C 
BRANCH  15  16
HETATM   16  C   UNL     1      26.679  44.571  50.440  1.00  0.00     0.206 C 
HETATM   17  C   UNL     1      26.689  45.841  49.573  1.00  0.00     0.040 C 
HETATM   18  C   UNL     1      25.809  46.958  50.178  1.00  0.00     0.001 C 
HETATM   19  C   UNL     1      24.327  46.545  50.300  1.00  0.00     0.067 C 
HETATM   20  C   UNL     1      26.321  47.135  51.635  1.00  0.00     0.033 C 
HETATM   21  C   UNL     1      24.241  45.117  50.878  1.00  0.00     0.246 C 
HETATM   22  N   UNL     1      25.597  44.763  51.498  1.00  0.00    -0.065 N 
HETATM   23  C   UNL     1      26.030  45.868  52.459  1.00  0.00     0.236 C 
HETATM   24  H   UNL     1      25.486  43.892  52.037  1.00  0.00     0.280 HD
BRANCH  19  25
HETATM   25  C   UNL     1      23.354  46.768  49.176  1.00  0.00     0.038 C 
HETATM   26  N   UNL     1      23.134  47.857  48.364  1.00  0.00    -0.277 N 
HETATM   27  C   UNL     1      23.640  49.206  48.423  1.00  0.00     0.179 C 
HETATM   28  N   UNL     1      22.322  47.590  47.332  1.00  0.00    -0.172 NA
HETATM   29  C   UNL     1      21.851  46.358  47.543  1.00  0.00     0.089 C 
HETATM   30  C   UNL     1      22.463  45.814  48.696  1.00  0.00     0.061 C 
BRANCH  29  31
HETATM   31  C   UNL     1      20.896  45.729  46.634  1.00  0.00    -0.003 A 
HETATM   32  C   UNL     1      20.130  46.518  45.762  1.00  0.00     0.053 A 
HETATM   33  C   UNL     1      19.234  45.933  44.860  1.00  0.00     0.102 A 
HETATM   34  C   UNL     1      19.084  44.532  44.838  1.00  0.00     0.101 A 
HETATM   35  C   UNL     1      19.838  43.745  45.713  1.00  0.00     0.040 A 
HETATM   36  C   UNL     1      20.739  44.338  46.603  1.00  0.00     0.017 A 
BRANCH  33  37
HETATM   37  O   UNL     1      18.467  46.637  43.965  1.00  0.00    -0.353 OA
HETATM   38  C   UNL     1      17.398  47.418  44.478  1.00  0.00     0.210 C 
ENDBRANCH  33  37
BRANCH  34  39
HETATM   39  O   UNL     1      18.192  44.036  43.922  1.00  0.00    -0.353 OA
HETATM   40  C   UNL     1      16.891  43.700  44.382  1.00  0.00     0.210 C 
ENDBRANCH  34  39
ENDBRANCH  29  31
ENDBRANCH  19  25
ENDBRANCH  15  16
ENDBRANCH  13  15
ENDBRANCH  11  13
ENDBRANCH   9  11
ENDBRANCH   1   9
TORSDOF 9
ENDMDL
MODEL 7
REMARK VINA RESULT:      -6.5     25.895     28.864
REMARK  9 active torsions:
REMARK  status: ('A' for Active; 'I' for Inactive)
REMARK    1  A    between atoms: C_4  and  C_5 
REMARK    2  A    between atoms: C_7  and  O_8 
REMARK    3  A    between atoms: C_10  and  O_11 
REMARK    4  A    between atoms: C_16  and  C_17 
REMARK    5  A    between atoms: C_20  and  C_21 
REMARK    6  A    between atoms: C_21  and  N_22 
REMARK    7  A    between atoms: N_22  and  C_23 
REMARK    8  A    between atoms: C_23  and  N_24 
REMARK    9  A    between atoms: N_24  and  C_25 
ROOT
HETATM    1  C   UNL     1      40.064  43.978  66.882  1.00  0.00     0.034 A 
HETATM    2  C   UNL     1      40.919  44.259  65.812  1.00  0.00     0.031 A 
HETATM    3  C   UNL     1      40.895  45.514  65.193  1.00  0.00     0.025 A 
HETATM    4  C   UNL     1      40.021  46.506  65.646  1.00  0.00     0.044 A 
HETATM    5  C   UNL     1      39.996  47.788  65.005  1.00  0.00     0.099 C 
HETATM    6  N   UNL     1      39.985  48.814  64.464  1.00  0.00    -0.191 NA
HETATM    7  C   UNL     1      39.185  46.241  66.732  1.00  0.00     0.025 A 
HETATM    8  C   UNL     1      39.217  44.986  67.353  1.00  0.00     0.031 A 
ENDROOT
BRANCH   1   9
HETATM    9  N   UNL     1      40.058  42.750  67.575  1.00  0.00    -0.333 N 
HETATM   10  H   UNL     1      39.137  42.395  67.826  1.00  0.00     0.168 HD
BRANCH   9  11
HETATM   11  C   UNL     1      41.079  42.006  68.095  1.00  0.00     0.172 C 
HETATM   12  S   UNL     1      42.152  42.750  69.135  1.00  0.00    -0.041 SA
BRANCH  11  13
HETATM   13  N   UNL     1      41.100  40.678  67.755  1.00  0.00    -0.365 N 
HETATM   14  H   UNL     1      40.159  40.298  67.698  1.00  0.00     0.161 HD
BRANCH  13  15
HETATM   15  C   UNL     1      42.183  39.751  68.074  1.00  0.00     0.155 C 
BRANCH  15  16
HETATM   16  C   UNL     1      42.054  38.399  67.338  1.00  0.00     0.206 C 
HETATM   17  C   UNL     1      40.624  38.085  66.865  1.00  0.00     0.040 C 
HETATM   18  C   UNL     1      40.601  37.564  65.411  1.00  0.00     0.001 C 
HETATM   19  C   UNL     1      41.160  38.591  64.404  1.00  0.00     0.067 C 
HETATM   20  C   UNL     1      41.594  36.368  65.390  1.00  0.00     0.033 C 
HETATM   21  C   UNL     1      42.459  39.204  64.966  1.00  0.00     0.246 C 
HETATM   22  N   UNL     1      42.957  38.315  66.111  1.00  0.00    -0.065 N 
HETATM   23  C   UNL     1      43.028  36.863  65.643  1.00  0.00     0.236 C 
HETATM   24  H   UNL     1      43.908  38.620  66.363  1.00  0.00     0.280 HD
BRANCH  19  25
HETATM   25  C   UNL     1      40.273  39.620  63.757  1.00  0.00     0.038 C 
HETATM   26  N   UNL     1      39.612  39.624  62.551  1.00  0.00    -0.277 N 
HETATM   27  C   UNL     1      39.677  38.722  61.427  1.00  0.00     0.179 C 
HETATM   28  N   UNL     1      38.744  40.638  62.429  1.00  0.00    -0.172 NA
HETATM   29  C   UNL     1      38.945  41.424  63.489  1.00  0.00     0.089 C 
HETATM   30  C   UNL     1      39.905  40.829  64.339  1.00  0.00     0.061 C 
BRANCH  29  31
HETATM   31  C   UNL     1      38.196  42.664  63.686  1.00  0.00    -0.003 A 
HETATM   32  C   UNL     1      37.246  42.755  64.715  1.00  0.00     0.053 A 
HETATM   33  C   UNL     1      36.542  43.944  64.942  1.00  0.00     0.102 A 
HETATM   34  C   UNL     1      36.777  45.060  64.115  1.00  0.00     0.101 A 
HETATM   35  C   UNL     1      37.716  44.968  63.084  1.00  0.00     0.040 A 
HETATM   36  C   UNL     1      38.422  43.779  62.871  1.00  0.00     0.017 A 
BRANCH  33  37
HETATM   37  O   UNL     1      35.614  44.115  65.939  1.00  0.00    -0.353 OA
HETATM   38  C   UNL     1      34.479  43.262  65.942  1.00  0.00     0.210 C 
ENDBRANCH  33  37
BRANCH  34  39
HETATM   39  O   UNL     1      36.054  46.189  64.406  1.00  0.00    -0.353 OA
HETATM   40  C   UNL     1      36.649  47.446  64.120  1.00  0.00     0.210 C 
ENDBRANCH  34  39
ENDBRANCH  29  31
ENDBRANCH  19  25
ENDBRANCH  15  16
ENDBRANCH  13  15
ENDBRANCH  11  13
ENDBRANCH   9  11
ENDBRANCH   1   9
TORSDOF 9
ENDMDL
MODEL 8
REMARK VINA RESULT:      -6.4     11.358     13.514
REMARK  9 active torsions:
REMARK  status: ('A' for Active; 'I' for Inactive)
REMARK    1  A    between atoms: C_4  and  C_5 
REMARK    2  A    between atoms: C_7  and  O_8 
REMARK    3  A    between atoms: C_10  and  O_11 
REMARK    4  A    between atoms: C_16  and  C_17 
REMARK    5  A    between atoms: C_20  and  C_21 
REMARK    6  A    between atoms: C_21  and  N_22 
REMARK    7  A    between atoms: N_22  and  C_23 
REMARK    8  A    between atoms: C_23  and  N_24 
REMARK    9  A    between atoms: N_24  and  C_25 
ROOT
HETATM    1  C   UNL     1      21.919  49.504  49.234  1.00  0.00     0.034 A 
HETATM    2  C   UNL     1      21.865  50.886  49.028  1.00  0.00     0.031 A 
HETATM    3  C   UNL     1      20.743  51.473  48.434  1.00  0.00     0.025 A 
HETATM    4  C   UNL     1      19.657  50.685  48.047  1.00  0.00     0.044 A 
HETATM    5  C   UNL     1      18.512  51.292  47.433  1.00  0.00     0.099 C 
HETATM    6  N   UNL     1      17.601  51.802  46.928  1.00  0.00    -0.191 NA
HETATM    7  C   UNL     1      19.692  49.308  48.274  1.00  0.00     0.025 A 
HETATM    8  C   UNL     1      20.813  48.725  48.876  1.00  0.00     0.031 A 
ENDROOT
BRANCH   1   9
HETATM    9  N   UNL     1      22.999  48.848  49.857  1.00  0.00    -0.333 N 
HETATM   10  H   UNL     1      23.098  49.021  50.856  1.00  0.00     0.168 HD
BRANCH   9  11
HETATM   11  C   UNL     1      24.032  48.121  49.336  1.00  0.00     0.172 C 
HETATM   12  S   UNL     1      25.421  48.927  48.884  1.00  0.00    -0.041 SA
BRANCH  11  13
HETATM   13  N   UNL     1      23.853  46.762  49.280  1.00  0.00    -0.365 N 
HETATM   14  H   UNL     1      22.866  46.523  49.234  1.00  0.00     0.161 HD
BRANCH  13  15
HETATM   15  C   UNL     1      24.760  45.776  49.862  1.00  0.00     0.155 C 
BRANCH  15  16
HETATM   16  C   UNL     1      24.787  45.822  51.406  1.00  0.00     0.206 C 
HETATM   17  C   UNL     1      24.543  44.457  52.071  1.00  0.00     0.040 C 
HETATM   18  C   UNL     1      25.546  44.185  53.213  1.00  0.00     0.001 C 
HETATM   19  C   UNL     1      27.010  44.156  52.722  1.00  0.00     0.067 C 
HETATM   20  C   UNL     1      25.439  45.419  54.152  1.00  0.00     0.033 C 
HETATM   21  C   UNL     1      27.252  45.345  51.769  1.00  0.00     0.246 C 
HETATM   22  N   UNL     1      26.110  46.351  51.951  1.00  0.00    -0.065 N 
HETATM   23  C   UNL     1      25.943  46.682  53.432  1.00  0.00     0.236 C 
HETATM   24  H   UNL     1      26.364  47.217  51.453  1.00  0.00     0.280 HD
BRANCH  19  25
HETATM   25  C   UNL     1      27.649  42.887  52.231  1.00  0.00     0.038 C 
HETATM   26  N   UNL     1      28.615  42.080  52.785  1.00  0.00    -0.277 N 
HETATM   27  C   UNL     1      29.463  42.263  53.937  1.00  0.00     0.179 C 
HETATM   28  N   UNL     1      28.765  40.916  52.137  1.00  0.00    -0.172 NA
HETATM   29  C   UNL     1      28.016  41.008  51.036  1.00  0.00     0.089 C 
HETATM   30  C   UNL     1      27.311  42.234  51.050  1.00  0.00     0.061 C 
BRANCH  29  31
HETATM   31  C   UNL     1      27.951  39.930  50.051  1.00  0.00    -0.003 A 
HETATM   32  C   UNL     1      26.836  39.817  49.206  1.00  0.00     0.053 A 
HETATM   33  C   UNL     1      26.769  38.812  48.234  1.00  0.00     0.102 A 
HETATM   34  C   UNL     1      27.828  37.890  48.111  1.00  0.00     0.101 A 
HETATM   35  C   UNL     1      28.934  37.996  48.959  1.00  0.00     0.040 A 
HETATM   36  C   UNL     1      28.997  39.009  49.921  1.00  0.00     0.017 A 
BRANCH  33  37
HETATM   37  O   UNL     1      25.723  38.650  47.359  1.00  0.00    -0.353 OA
HETATM   38  C   UNL     1      25.251  39.798  46.671  1.00  0.00     0.210 C 
ENDBRANCH  33  37
BRANCH  34  39
HETATM   39  O   UNL     1      27.691  36.941  47.131  1.00  0.00    -0.353 OA
HETATM   40  C   UNL     1      28.748  36.803  46.192  1.00  0.00     0.210 C 
ENDBRANCH  34  39
ENDBRANCH  29  31
ENDBRANCH  19  25
ENDBRANCH  15  16
ENDBRANCH  13  15
ENDBRANCH  11  13
ENDBRANCH   9  11
ENDBRANCH   1   9
TORSDOF 9
ENDMDL
MODEL 9
REMARK VINA RESULT:      -6.3      9.306     12.620
REMARK  9 active torsions:
REMARK  status: ('A' for Active; 'I' for Inactive)
REMARK    1  A    between atoms: C_4  and  C_5 
REMARK    2  A    between atoms: C_7  and  O_8 
REMARK    3  A    between atoms: C_10  and  O_11 
REMARK    4  A    between atoms: C_16  and  C_17 
REMARK    5  A    between atoms: C_20  and  C_21 
REMARK    6  A    between atoms: C_21  and  N_22 
REMARK    7  A    between atoms: N_22  and  C_23 
REMARK    8  A    between atoms: C_23  and  N_24 
REMARK    9  A    between atoms: N_24  and  C_25 
ROOT
HETATM    1  C   UNL     1      18.429  46.064  46.109  1.00  0.00     0.034 A 
HETATM    2  C   UNL     1      18.435  46.078  44.711  1.00  0.00     0.031 A 
HETATM    3  C   UNL     1      19.630  45.906  44.004  1.00  0.00     0.025 A 
HETATM    4  C   UNL     1      20.832  45.708  44.689  1.00  0.00     0.044 A 
HETATM    5  C   UNL     1      22.054  45.538  43.959  1.00  0.00     0.099 C 
HETATM    6  N   UNL     1      23.033  45.414  43.350  1.00  0.00    -0.191 NA
HETATM    7  C   UNL     1      20.828  45.665  46.084  1.00  0.00     0.025 A 
HETATM    8  C   UNL     1      19.629  45.831  46.788  1.00  0.00     0.031 A 
ENDROOT
BRANCH   1   9
HETATM    9  N   UNL     1      17.260  46.196  46.886  1.00  0.00    -0.333 N 
HETATM   10  H   UNL     1      16.822  45.321  47.168  1.00  0.00     0.168 HD
BRANCH   9  11
HETATM   11  C   UNL     1      16.523  47.297  47.221  1.00  0.00     0.172 C 
HETATM   12  S   UNL     1      15.554  47.989  46.052  1.00  0.00    -0.041 SA
BRANCH  11  13
HETATM   13  N   UNL     1      16.603  47.709  48.527  1.00  0.00    -0.365 N 
HETATM   14  H   UNL     1      15.748  48.175  48.819  1.00  0.00     0.161 HD
BRANCH  13  15
HETATM   15  C   UNL     1      17.839  48.077  49.213  1.00  0.00     0.155 C 
BRANCH  15  16
HETATM   16  C   UNL     1      18.168  49.581  49.093  1.00  0.00     0.206 C 
HETATM   17  C   UNL     1      19.236  50.063  50.089  1.00  0.00     0.040 C 
HETATM   18  C   UNL     1      20.294  50.959  49.410  1.00  0.00     0.001 C 
HETATM   19  C   UNL     1      21.065  50.224  48.293  1.00  0.00     0.067 C 
HETATM   20  C   UNL     1      19.485  52.079  48.698  1.00  0.00     0.033 C 
HETATM   21  C   UNL     1      20.069  49.435  47.419  1.00  0.00     0.246 C 
HETATM   22  N   UNL     1      18.657  49.962  47.699  1.00  0.00    -0.065 N 
HETATM   23  C   UNL     1      18.637  51.482  47.561  1.00  0.00     0.236 C 
HETATM   24  H   UNL     1      18.022  49.565  46.992  1.00  0.00     0.280 HD
BRANCH  19  25
HETATM   25  C   UNL     1      22.316  49.442  48.585  1.00  0.00     0.038 C 
HETATM   26  N   UNL     1      23.645  49.746  48.400  1.00  0.00    -0.277 N 
HETATM   27  C   UNL     1      24.284  50.839  47.710  1.00  0.00     0.179 C 
HETATM   28  N   UNL     1      24.473  48.872  48.990  1.00  0.00    -0.172 NA
HETATM   29  C   UNL     1      23.703  47.875  49.431  1.00  0.00     0.089 C 
HETATM   30  C   UNL     1      22.346  48.187  49.186  1.00  0.00     0.061 C 
BRANCH  29  31
HETATM   31  C   UNL     1      24.262  46.706  50.107  1.00  0.00    -0.003 A 
HETATM   32  C   UNL     1      24.900  46.851  51.349  1.00  0.00     0.053 A 
HETATM   33  C   UNL     1      25.413  45.739  52.028  1.00  0.00     0.102 A 
HETATM   34  C   UNL     1      25.303  44.459  51.451  1.00  0.00     0.101 A 
HETATM   35  C   UNL     1      24.677  44.315  50.210  1.00  0.00     0.040 A 
HETATM   36  C   UNL     1      24.158  45.429  49.543  1.00  0.00     0.017 A 
BRANCH  33  37
HETATM   37  O   UNL     1      26.032  45.799  53.253  1.00  0.00    -0.353 OA
HETATM   38  C   UNL     1      26.054  47.050  53.924  1.00  0.00     0.210 C 
ENDBRANCH  33  37
BRANCH  34  39
HETATM   39  O   UNL     1      25.824  43.421  52.182  1.00  0.00    -0.353 OA
HETATM   40  C   UNL     1      26.708  42.527  51.522  1.00  0.00     0.210 C 
ENDBRANCH  34  39
ENDBRANCH  29  31
ENDBRANCH  19  25
ENDBRANCH  15  16
ENDBRANCH  13  15
ENDBRANCH  11  13
ENDBRANCH   9  11
ENDBRANCH   1   9
TORSDOF 9
ENDMDL
MODEL 10
REMARK VINA RESULT:      -6.2     10.369     13.695
REMARK  9 active torsions:
REMARK  status: ('A' for Active; 'I' for Inactive)
REMARK    1  A    between atoms: C_4  and  C_5 
REMARK    2  A    between atoms: C_7  and  O_8 
REMARK    3  A    between atoms: C_10  and  O_11 
REMARK    4  A    between atoms: C_16  and  C_17 
REMARK    5  A    between atoms: C_20  and  C_21 
REMARK    6  A    between atoms: C_21  and  N_22 
REMARK    7  A    between atoms: N_22  and  C_23 
REMARK    8  A    between atoms: C_23  and  N_24 
REMARK    9  A    between atoms: N_24  and  C_25 
ROOT
HETATM    1  C   UNL     1      28.148  41.956  53.323  1.00  0.00     0.034 A 
HETATM    2  C   UNL     1      29.535  42.049  53.473  1.00  0.00     0.031 A 
HETATM    3  C   UNL     1      30.100  43.074  54.239  1.00  0.00     0.025 A 
HETATM    4  C   UNL     1      29.282  44.013  54.873  1.00  0.00     0.044 A 
HETATM    5  C   UNL     1      29.866  45.064  55.653  1.00  0.00     0.099 C 
HETATM    6  N   UNL     1      30.360  45.913  56.269  1.00  0.00    -0.191 NA
HETATM    7  C   UNL     1      27.895  43.908  54.750  1.00  0.00     0.025 A 
HETATM    8  C   UNL     1      27.333  42.877  53.988  1.00  0.00     0.031 A 
ENDROOT
BRANCH   1   9
HETATM    9  N   UNL     1      27.509  40.931  52.596  1.00  0.00    -0.333 N 
HETATM   10  H   UNL     1      27.385  40.053  53.095  1.00  0.00     0.168 HD
BRANCH   9  11
HETATM   11  C   UNL     1      27.140  40.857  51.282  1.00  0.00     0.172 C 
HETATM   12  S   UNL     1      28.124  40.017  50.228  1.00  0.00    -0.041 SA
BRANCH  11  13
HETATM   13  N   UNL     1      25.944  41.441  50.951  1.00  0.00    -0.365 N 
HETATM   14  H   UNL     1      25.171  40.793  51.078  1.00  0.00     0.161 HD
BRANCH  13  15
HETATM   15  C   UNL     1      25.778  42.503  49.962  1.00  0.00     0.155 C 
BRANCH  15  16
HETATM   16  C   UNL     1      26.006  43.913  50.550  1.00  0.00     0.206 C 
HETATM   17  C   UNL     1      26.193  45.006  49.485  1.00  0.00     0.040 C 
HETATM   18  C   UNL     1      25.362  46.268  49.804  1.00  0.00     0.001 C 
HETATM   19  C   UNL     1      23.846  45.984  49.851  1.00  0.00     0.067 C 
HETATM   20  C   UNL     1      25.764  46.666  51.252  1.00  0.00     0.033 C 
HETATM   21  C   UNL     1      23.593  44.691  50.653  1.00  0.00     0.246 C 
HETATM   22  N   UNL     1      24.860  44.362  51.452  1.00  0.00    -0.065 N 
HETATM   23  C   UNL     1      25.301  45.588  52.247  1.00  0.00     0.236 C 
HETATM   24  H   UNL     1      24.632  43.609  52.117  1.00  0.00     0.280 HD
BRANCH  19  25
HETATM   25  C   UNL     1      22.991  46.070  48.617  1.00  0.00     0.038 C 
HETATM   26  N   UNL     1      22.204  47.084  48.123  1.00  0.00    -0.277 N 
HETATM   27  C   UNL     1      21.796  48.341  48.701  1.00  0.00     0.179 C 
HETATM   28  N   UNL     1      21.767  46.853  46.877  1.00  0.00    -0.172 NA
HETATM   29  C   UNL     1      22.119  45.598  46.591  1.00  0.00     0.089 C 
HETATM   30  C   UNL     1      22.875  45.067  47.660  1.00  0.00     0.061 C 
BRANCH  29  31
HETATM   31  C   UNL     1      21.779  44.971  45.315  1.00  0.00    -0.003 A 
HETATM   32  C   UNL     1      21.257  45.747  44.267  1.00  0.00     0.053 A 
HETATM   33  C   UNL     1      20.956  45.173  43.027  1.00  0.00     0.102 A 
HETATM   34  C   UNL     1      21.163  43.793  42.830  1.00  0.00     0.101 A 
HETATM   35  C   UNL     1      21.673  43.017  43.875  1.00  0.00     0.040 A 
HETATM   36  C   UNL     1      21.981  43.601  45.107  1.00  0.00     0.017 A 
BRANCH  33  37
HETATM   37  O   UNL     1      20.463  45.869  41.951  1.00  0.00    -0.353 OA
HETATM   38  C   UNL     1      19.379  46.757  42.177  1.00  0.00     0.210 C 
ENDBRANCH  33  37
BRANCH  34  39
HETATM   39  O   UNL     1      20.851  43.308  41.585  1.00  0.00    -0.353 OA
HETATM   40  C   UNL     1      21.373  42.039  41.221  1.00  0.00     0.210 C 
ENDBRANCH  34  39
ENDBRANCH  29  31
ENDBRANCH  19  25
ENDBRANCH  15  16
ENDBRANCH  13  15
ENDBRANCH  11  13
ENDBRANCH   9  11
ENDBRANCH   1   9
TORSDOF 9
ENDMDL
