MODEL 1
REMARK VINA RESULT:      -8.9      0.000      0.000
REMARK  11 active torsions:
REMARK  status: ('A' for Active; 'I' for Inactive)
REMARK    1  A    between atoms: C_2  and  O_3 
REMARK    2  A    between atoms: C_2  and  C_4 
REMARK    3  A    between atoms: C_8  and  C_9 
REMARK    4  A    between atoms: C_12  and  C_13 
REMARK    5  A    between atoms: C_13  and  C_14 
REMARK    6  A    between atoms: C_14  and  N_15 
REMARK    7  A    between atoms: C_14  and  C_29 
REMARK       I    between atoms: N_15  and  C_16 
REMARK    8  A    between atoms: C_16  and  C_17 
REMARK    9  A    between atoms: C_21  and  O_22 
REMARK   10  A    between atoms: O_22  and  C_23 
REMARK   11  A    between atoms: C_29  and  N_30 
ROOT
HETATM    1  C   UNL     1      22.135  48.750  48.890  1.00  0.00     0.114 C 
ENDROOT
BRANCH   1   2
HETATM    2  C   UNL     1      21.834  49.941  49.837  1.00  0.00     0.065 C 
BRANCH   2   3
HETATM    3  C   UNL     1      20.506  50.614  49.578  1.00  0.00    -0.056 A 
HETATM    4  C   UNL     1      20.391  51.664  48.657  1.00  0.00     0.008 A 
HETATM    5  C   UNL     1      19.176  52.335  48.480  1.00  0.00     0.014 A 
HETATM    6  C   UNL     1      18.050  51.991  49.238  1.00  0.00    -0.006 A 
HETATM    7  C   UNL     1      18.169  50.945  50.163  1.00  0.00     0.014 A 
HETATM    8  C   UNL     1      19.380  50.266  50.334  1.00  0.00     0.008 A 
BRANCH   6   9
HETATM    9  C   UNL     1      16.785  52.704  49.118  1.00  0.00     0.085 A 
HETATM   10  C   UNL     1      15.943  52.711  48.026  1.00  0.00     0.130 A 
HETATM   11  N   UNL     1      14.905  53.545  48.361  1.00  0.00    -0.315 N 
HETATM   12  C   UNL     1      15.156  54.008  49.646  1.00  0.00     0.143 A 
HETATM   13  C   UNL     1      13.793  53.905  47.610  1.00  0.00     0.098 A 
HETATM   14  C   UNL     1      14.208  54.922  50.236  1.00  0.00     0.017 A 
HETATM   15  N   UNL     1      16.281  53.506  50.119  1.00  0.00    -0.228 NA
HETATM   16  C   UNL     1      13.123  55.254  49.490  1.00  0.00     0.015 A 
HETATM   17  C   UNL     1      12.897  54.748  48.144  1.00  0.00     0.018 A 
BRANCH  14  18
HETATM   18  C   UNL     1      14.406  55.470  51.640  1.00  0.00     0.150 C 
HETATM   19  C   UNL     1      13.102  56.003  52.226  1.00  0.00     0.044 C 
BRANCH  18  20
HETATM   20  O   UNL     1      14.916  54.463  52.518  1.00  0.00    -0.391 OA
HETATM   21  H   UNL     1      14.446  53.638  52.306  1.00  0.00     0.210 HD
ENDBRANCH  18  20
ENDBRANCH  14  18
ENDBRANCH   6   9
ENDBRANCH   2   3
ENDBRANCH   1   2
BRANCH   1  22
HETATM   22  N   UNL     1      22.975  47.761  49.601  1.00  0.00    -0.350 N 
HETATM   23  C   UNL     1      24.315  47.945  49.867  1.00  0.00     0.252 C 
HETATM   24  O   UNL     1      24.957  48.860  49.359  1.00  0.00    -0.268 OA
HETATM   25  H   UNL     1      22.490  47.151  50.256  1.00  0.00     0.163 HD
BRANCH  23  26
HETATM   26  C   UNL     1      24.946  46.990  50.813  1.00  0.00     0.033 A 
HETATM   27  C   UNL     1      25.425  47.477  52.032  1.00  0.00     0.043 A 
HETATM   28  C   UNL     1      26.022  46.601  52.942  1.00  0.00     0.068 A 
HETATM   29 CL   UNL     1      26.581  47.249  54.442  1.00  0.00    -0.081 Cl
HETATM   30  C   UNL     1      26.173  45.241  52.633  1.00  0.00     0.091 A 
HETATM   31  C   UNL     1      25.682  44.759  51.417  1.00  0.00     0.039 A 
HETATM   32  C   UNL     1      25.079  45.631  50.503  1.00  0.00     0.020 A 
BRANCH  30  33
HETATM   33  O   UNL     1      26.747  44.432  53.577  1.00  0.00    -0.345 OA
BRANCH  33  34
HETATM   34  C   UNL     1      28.158  44.195  53.481  1.00  0.00     0.121 C 
HETATM   35  C   UNL     1      28.845  44.435  54.825  1.00  0.00     0.040 C 
HETATM   36  C   UNL     1      28.326  42.736  53.065  1.00  0.00     0.040 C 
ENDBRANCH  33  34
ENDBRANCH  30  33
ENDBRANCH  23  26
ENDBRANCH   1  22
BRANCH   1  37
HETATM   37  C   UNL     1      20.796  48.165  48.355  1.00  0.00     0.254 C 
BRANCH  37  38
HETATM   38  N   UNL     1      20.481  46.850  48.973  1.00  0.00    -0.077 N 
HETATM   39  H   UNL     1      21.166  46.124  48.737  1.00  0.00     0.274 HD
HETATM   40  H   UNL     1      20.520  46.930  50.012  1.00  0.00     0.274 HD
HETATM   41  H   UNL     1      19.542  46.509  48.740  1.00  0.00     0.274 HD
ENDBRANCH  37  38
ENDBRANCH   1  37
TORSDOF 11
ENDMDL
MODEL 2
REMARK VINA RESULT:      -8.8      4.479     13.884
REMARK  11 active torsions:
REMARK  status: ('A' for Active; 'I' for Inactive)
REMARK    1  A    between atoms: C_2  and  O_3 
REMARK    2  A    between atoms: C_2  and  C_4 
REMARK    3  A    between atoms: C_8  and  C_9 
REMARK    4  A    between atoms: C_12  and  C_13 
REMARK    5  A    between atoms: C_13  and  C_14 
REMARK    6  A    between atoms: C_14  and  N_15 
REMARK    7  A    between atoms: C_14  and  C_29 
REMARK       I    between atoms: N_15  and  C_16 
REMARK    8  A    between atoms: C_16  and  C_17 
REMARK    9  A    between atoms: C_21  and  O_22 
REMARK   10  A    between atoms: O_22  and  C_23 
REMARK   11  A    between atoms: C_29  and  N_30 
ROOT
HETATM    1  C   UNL     1      24.785  47.898  49.630  1.00  0.00     0.114 C 
ENDROOT
BRANCH   1   2
HETATM    2  C   UNL     1      25.031  47.112  50.945  1.00  0.00     0.065 C 
BRANCH   2   3
HETATM    3  C   UNL     1      25.572  45.717  50.737  1.00  0.00    -0.056 A 
HETATM    4  C   UNL     1      26.505  45.160  51.622  1.00  0.00     0.008 A 
HETATM    5  C   UNL     1      27.061  43.899  51.380  1.00  0.00     0.014 A 
HETATM    6  C   UNL     1      26.718  43.172  50.233  1.00  0.00    -0.006 A 
HETATM    7  C   UNL     1      25.790  43.734  49.347  1.00  0.00     0.014 A 
HETATM    8  C   UNL     1      25.224  44.990  49.591  1.00  0.00     0.008 A 
BRANCH   6   9
HETATM    9  C   UNL     1      27.319  41.882  49.923  1.00  0.00     0.085 A 
HETATM   10  C   UNL     1      27.944  41.029  50.808  1.00  0.00     0.130 A 
HETATM   11  N   UNL     1      28.379  39.965  50.057  1.00  0.00    -0.315 N 
HETATM   12  C   UNL     1      27.996  40.211  48.745  1.00  0.00     0.143 A 
HETATM   13  C   UNL     1      29.076  38.834  50.462  1.00  0.00     0.098 A 
HETATM   14  C   UNL     1      28.346  39.237  47.741  1.00  0.00     0.017 A 
HETATM   15  N   UNL     1      27.350  41.358  48.648  1.00  0.00    -0.228 NA
HETATM   16  C   UNL     1      29.019  38.133  48.158  1.00  0.00     0.015 A 
HETATM   17  C   UNL     1      29.405  37.913  49.543  1.00  0.00     0.018 A 
BRANCH  14  18
HETATM   18  C   UNL     1      27.958  39.429  46.283  1.00  0.00     0.150 C 
HETATM   19  C   UNL     1      26.552  38.909  46.001  1.00  0.00     0.044 C 
BRANCH  18  20
HETATM   20  O   UNL     1      28.012  40.809  45.914  1.00  0.00    -0.391 OA
HETATM   21  H   UNL     1      27.962  40.846  44.944  1.00  0.00     0.210 HD
ENDBRANCH  18  20
ENDBRANCH  14  18
ENDBRANCH   6   9
ENDBRANCH   2   3
ENDBRANCH   1   2
BRANCH   1  22
HETATM   22  N   UNL     1      23.544  48.694  49.762  1.00  0.00    -0.350 N 
HETATM   23  C   UNL     1      22.600  48.812  48.765  1.00  0.00     0.252 C 
HETATM   24  O   UNL     1      22.813  48.422  47.620  1.00  0.00    -0.268 OA
HETATM   25  H   UNL     1      23.183  48.805  50.707  1.00  0.00     0.163 HD
BRANCH  23  26
HETATM   26  C   UNL     1      21.299  49.419  49.145  1.00  0.00     0.033 A 
HETATM   27  C   UNL     1      20.157  48.614  49.130  1.00  0.00     0.043 A 
HETATM   28  C   UNL     1      18.920  49.160  49.484  1.00  0.00     0.068 A 
HETATM   29 CL   UNL     1      17.542  48.118  49.467  1.00  0.00    -0.081 Cl
HETATM   30  C   UNL     1      18.806  50.515  49.825  1.00  0.00     0.091 A 
HETATM   31  C   UNL     1      19.955  51.311  49.848  1.00  0.00     0.039 A 
HETATM   32  C   UNL     1      21.197  50.770  49.500  1.00  0.00     0.020 A 
BRANCH  30  33
HETATM   33  O   UNL     1      17.570  50.981  50.183  1.00  0.00    -0.345 OA
BRANCH  33  34
HETATM   34  C   UNL     1      16.932  51.918  49.304  1.00  0.00     0.121 C 
HETATM   35  C   UNL     1      16.078  51.195  48.263  1.00  0.00     0.040 C 
HETATM   36  C   UNL     1      16.048  52.803  50.178  1.00  0.00     0.040 C 
ENDBRANCH  33  34
ENDBRANCH  30  33
ENDBRANCH  23  26
ENDBRANCH   1  22
BRANCH   1  37
HETATM   37  C   UNL     1      26.042  48.750  49.294  1.00  0.00     0.254 C 
BRANCH  37  38
HETATM   38  N   UNL     1      25.798  49.672  48.154  1.00  0.00    -0.077 N 
HETATM   39  H   UNL     1      24.836  49.623  47.801  1.00  0.00     0.274 HD
HETATM   40  H   UNL     1      25.919  50.660  48.467  1.00  0.00     0.274 HD
HETATM   41  H   UNL     1      26.446  49.529  47.372  1.00  0.00     0.274 HD
ENDBRANCH  37  38
ENDBRANCH   1  37
TORSDOF 11
ENDMDL
MODEL 3
REMARK VINA RESULT:      -8.8      3.687     13.533
REMARK  11 active torsions:
REMARK  status: ('A' for Active; 'I' for Inactive)
REMARK    1  A    between atoms: C_2  and  O_3 
REMARK    2  A    between atoms: C_2  and  C_4 
REMARK    3  A    between atoms: C_8  and  C_9 
REMARK    4  A    between atoms: C_12  and  C_13 
REMARK    5  A    between atoms: C_13  and  C_14 
REMARK    6  A    between atoms: C_14  and  N_15 
REMARK    7  A    between atoms: C_14  and  C_29 
REMARK       I    between atoms: N_15  and  C_16 
REMARK    8  A    between atoms: C_16  and  C_17 
REMARK    9  A    between atoms: C_21  and  O_22 
REMARK   10  A    between atoms: O_22  and  C_23 
REMARK   11  A    between atoms: C_29  and  N_30 
ROOT
HETATM    1  C   UNL     1      24.385  47.293  49.484  1.00  0.00     0.114 C 
ENDROOT
BRANCH   1   2
HETATM    2  C   UNL     1      24.225  45.967  50.275  1.00  0.00     0.065 C 
BRANCH   2   3
HETATM    3  C   UNL     1      25.376  45.663  51.206  1.00  0.00    -0.056 A 
HETATM    4  C   UNL     1      26.411  44.798  50.823  1.00  0.00     0.008 A 
HETATM    5  C   UNL     1      27.431  44.459  51.719  1.00  0.00     0.014 A 
HETATM    6  C   UNL     1      27.429  44.954  53.029  1.00  0.00    -0.006 A 
HETATM    7  C   UNL     1      26.390  45.813  53.410  1.00  0.00     0.014 A 
HETATM    8  C   UNL     1      25.374  46.163  52.514  1.00  0.00     0.008 A 
BRANCH   6   9
HETATM    9  C   UNL     1      28.446  44.578  54.002  1.00  0.00     0.085 A 
HETATM   10  C   UNL     1      29.181  43.411  54.018  1.00  0.00     0.130 A 
HETATM   11  N   UNL     1      29.977  43.487  55.134  1.00  0.00    -0.315 N 
HETATM   12  C   UNL     1      29.698  44.700  55.749  1.00  0.00     0.143 A 
HETATM   13  C   UNL     1      30.899  42.567  55.616  1.00  0.00     0.098 A 
HETATM   14  C   UNL     1      30.404  45.023  56.965  1.00  0.00     0.017 A 
HETATM   15  N   UNL     1      28.783  45.372  55.077  1.00  0.00    -0.228 NA
HETATM   16  C   UNL     1      31.308  44.115  57.415  1.00  0.00     0.015 A 
HETATM   17  C   UNL     1      31.570  42.852  56.742  1.00  0.00     0.018 A 
BRANCH  14  18
HETATM   18  C   UNL     1      30.161  46.334  57.697  1.00  0.00     0.150 C 
HETATM   19  C   UNL     1      28.722  46.445  58.191  1.00  0.00     0.044 C 
BRANCH  18  20
HETATM   20  O   UNL     1      31.036  46.464  58.821  1.00  0.00    -0.391 OA
HETATM   21  H   UNL     1      30.728  45.834  59.494  1.00  0.00     0.210 HD
ENDBRANCH  18  20
ENDBRANCH  14  18
ENDBRANCH   6   9
ENDBRANCH   2   3
ENDBRANCH   1   2
BRANCH   1  22
HETATM   22  N   UNL     1      23.141  48.086  49.606  1.00  0.00    -0.350 N 
HETATM   23  C   UNL     1      22.732  49.015  48.674  1.00  0.00     0.252 C 
HETATM   24  O   UNL     1      23.470  49.395  47.769  1.00  0.00    -0.268 OA
HETATM   25  H   UNL     1      22.389  47.658  50.140  1.00  0.00     0.163 HD
BRANCH  23  26
HETATM   26  C   UNL     1      21.344  49.527  48.805  1.00  0.00     0.033 A 
HETATM   27  C   UNL     1      20.331  48.628  49.151  1.00  0.00     0.043 A 
HETATM   28  C   UNL     1      19.017  49.083  49.282  1.00  0.00     0.068 A 
HETATM   29 CL   UNL     1      17.805  47.936  49.729  1.00  0.00    -0.081 Cl
HETATM   30  C   UNL     1      18.696  50.427  49.041  1.00  0.00     0.091 A 
HETATM   31  C   UNL     1      19.716  51.322  48.706  1.00  0.00     0.039 A 
HETATM   32  C   UNL     1      21.035  50.874  48.578  1.00  0.00     0.020 A 
BRANCH  30  33
HETATM   33  O   UNL     1      17.394  50.812  49.209  1.00  0.00    -0.345 OA
BRANCH  33  34
HETATM   34  C   UNL     1      17.028  52.129  48.774  1.00  0.00     0.121 C 
HETATM   35  C   UNL     1      15.905  52.071  47.739  1.00  0.00     0.040 C 
HETATM   36  C   UNL     1      16.552  52.880  50.015  1.00  0.00     0.040 C 
ENDBRANCH  33  34
ENDBRANCH  30  33
ENDBRANCH  23  26
ENDBRANCH   1  22
BRANCH   1  37
HETATM   37  C   UNL     1      25.655  48.041  49.981  1.00  0.00     0.254 C 
BRANCH  37  38
HETATM   38  N   UNL     1      26.383  48.698  48.865  1.00  0.00    -0.077 N 
HETATM   39  H   UNL     1      26.902  49.531  49.163  1.00  0.00     0.274 HD
HETATM   40  H   UNL     1      27.110  48.051  48.488  1.00  0.00     0.274 HD
HETATM   41  H   UNL     1      25.776  48.949  48.078  1.00  0.00     0.274 HD
ENDBRANCH  37  38
ENDBRANCH   1  37
TORSDOF 11
ENDMDL
MODEL 4
REMARK VINA RESULT:      -8.8      5.924     11.656
REMARK  11 active torsions:
REMARK  status: ('A' for Active; 'I' for Inactive)
REMARK    1  A    between atoms: C_2  and  O_3 
REMARK    2  A    between atoms: C_2  and  C_4 
REMARK    3  A    between atoms: C_8  and  C_9 
REMARK    4  A    between atoms: C_12  and  C_13 
REMARK    5  A    between atoms: C_13  and  C_14 
REMARK    6  A    between atoms: C_14  and  N_15 
REMARK    7  A    between atoms: C_14  and  C_29 
REMARK       I    between atoms: N_15  and  C_16 
REMARK    8  A    between atoms: C_16  and  C_17 
REMARK    9  A    between atoms: C_21  and  O_22 
REMARK   10  A    between atoms: O_22  and  C_23 
REMARK   11  A    between atoms: C_29  and  N_30 
ROOT
HETATM    1  C   UNL     1      24.081  41.573  46.808  1.00  0.00     0.114 C 
ENDROOT
BRANCH   1   2
HETATM    2  C   UNL     1      24.357  40.844  48.151  1.00  0.00     0.065 C 
BRANCH   2   3
HETATM    3  C   UNL     1      25.056  41.699  49.183  1.00  0.00    -0.056 A 
HETATM    4  C   UNL     1      26.444  41.889  49.147  1.00  0.00     0.008 A 
HETATM    5  C   UNL     1      27.095  42.616  50.151  1.00  0.00     0.014 A 
HETATM    6  C   UNL     1      26.378  43.149  51.230  1.00  0.00    -0.006 A 
HETATM    7  C   UNL     1      24.991  42.951  51.265  1.00  0.00     0.014 A 
HETATM    8  C   UNL     1      24.337  42.234  50.258  1.00  0.00     0.008 A 
BRANCH   6   9
HETATM    9  C   UNL     1      27.031  43.863  52.319  1.00  0.00     0.085 A 
HETATM   10  C   UNL     1      28.231  43.538  52.915  1.00  0.00     0.130 A 
HETATM   11  N   UNL     1      28.418  44.468  53.908  1.00  0.00    -0.315 N 
HETATM   12  C   UNL     1      27.326  45.325  53.872  1.00  0.00     0.143 A 
HETATM   13  C   UNL     1      29.467  44.586  54.811  1.00  0.00     0.098 A 
HETATM   14  C   UNL     1      27.274  46.400  54.832  1.00  0.00     0.017 A 
HETATM   15  N   UNL     1      26.485  44.979  52.916  1.00  0.00    -0.228 NA
HETATM   16  C   UNL     1      28.313  46.504  55.701  1.00  0.00     0.015 A 
HETATM   17  C   UNL     1      29.439  45.583  55.708  1.00  0.00     0.018 A 
BRANCH  14  18
HETATM   18  C   UNL     1      26.116  47.385  54.855  1.00  0.00     0.150 C 
HETATM   19  C   UNL     1      26.451  48.629  55.671  1.00  0.00     0.044 C 
BRANCH  18  20
HETATM   20  O   UNL     1      25.764  47.794  53.531  1.00  0.00    -0.391 OA
HETATM   21  H   UNL     1      25.511  48.732  53.582  1.00  0.00     0.210 HD
ENDBRANCH  18  20
ENDBRANCH  14  18
ENDBRANCH   6   9
ENDBRANCH   2   3
ENDBRANCH   1   2
BRANCH   1  22
HETATM   22  N   UNL     1      23.900  43.018  47.066  1.00  0.00    -0.350 N 
HETATM   23  C   UNL     1      22.677  43.607  47.305  1.00  0.00     0.252 C 
HETATM   24  O   UNL     1      21.622  43.003  47.127  1.00  0.00    -0.268 OA
HETATM   25  H   UNL     1      24.693  43.501  47.481  1.00  0.00     0.163 HD
BRANCH  23  26
HETATM   26  C   UNL     1      22.693  45.005  47.805  1.00  0.00     0.033 A 
HETATM   27  C   UNL     1      23.561  45.329  48.852  1.00  0.00     0.043 A 
HETATM   28  C   UNL     1      23.598  46.637  49.341  1.00  0.00     0.068 A 
HETATM   29 CL   UNL     1      24.700  46.990  50.623  1.00  0.00    -0.081 Cl
HETATM   30  C   UNL     1      22.751  47.623  48.814  1.00  0.00     0.091 A 
HETATM   31  C   UNL     1      21.894  47.294  47.761  1.00  0.00     0.039 A 
HETATM   32  C   UNL     1      21.856  45.987  47.262  1.00  0.00     0.020 A 
BRANCH  30  33
HETATM   33  O   UNL     1      22.853  48.889  49.323  1.00  0.00    -0.345 OA
BRANCH  33  34
HETATM   34  C   UNL     1      22.288  49.962  48.556  1.00  0.00     0.121 C 
HETATM   35  C   UNL     1      21.521  50.932  49.454  1.00  0.00     0.040 C 
HETATM   36  C   UNL     1      23.458  50.684  47.891  1.00  0.00     0.040 C 
ENDBRANCH  33  34
ENDBRANCH  30  33
ENDBRANCH  23  26
ENDBRANCH   1  22
BRANCH   1  37
HETATM   37  C   UNL     1      25.226  41.254  45.804  1.00  0.00     0.254 C 
BRANCH  37  38
HETATM   38  N   UNL     1      25.065  41.998  44.528  1.00  0.00    -0.077 N 
HETATM   39  H   UNL     1      25.430  42.956  44.576  1.00  0.00     0.274 HD
HETATM   40  H   UNL     1      25.623  41.536  43.777  1.00  0.00     0.274 HD
HETATM   41  H   UNL     1      24.095  42.029  44.197  1.00  0.00     0.274 HD
ENDBRANCH  37  38
ENDBRANCH   1  37
TORSDOF 11
ENDMDL
MODEL 5
REMARK VINA RESULT:      -8.8      5.128      8.265
REMARK  11 active torsions:
REMARK  status: ('A' for Active; 'I' for Inactive)
REMARK    1  A    between atoms: C_2  and  O_3 
REMARK    2  A    between atoms: C_2  and  C_4 
REMARK    3  A    between atoms: C_8  and  C_9 
REMARK    4  A    between atoms: C_12  and  C_13 
REMARK    5  A    between atoms: C_13  and  C_14 
REMARK    6  A    between atoms: C_14  and  N_15 
REMARK    7  A    between atoms: C_14  and  C_29 
REMARK       I    between atoms: N_15  and  C_16 
REMARK    8  A    between atoms: C_16  and  C_17 
REMARK    9  A    between atoms: C_21  and  O_22 
REMARK   10  A    between atoms: O_22  and  C_23 
REMARK   11  A    between atoms: C_29  and  N_30 
ROOT
HETATM    1  C   UNL     1      27.172  41.553  50.401  1.00  0.00     0.114 C 
ENDROOT
BRANCH   1   2
HETATM    2  C   UNL     1      25.626  41.526  50.275  1.00  0.00     0.065 C 
BRANCH   2   3
HETATM    3  C   UNL     1      25.006  42.879  50.010  1.00  0.00    -0.056 A 
HETATM    4  C   UNL     1      24.628  43.263  48.716  1.00  0.00     0.008 A 
HETATM    5  C   UNL     1      24.128  44.546  48.466  1.00  0.00     0.014 A 
HETATM    6  C   UNL     1      24.017  45.486  49.497  1.00  0.00    -0.006 A 
HETATM    7  C   UNL     1      24.402  45.101  50.788  1.00  0.00     0.014 A 
HETATM    8  C   UNL     1      24.892  43.816  51.044  1.00  0.00     0.008 A 
BRANCH   6   9
HETATM    9  C   UNL     1      23.553  46.847  49.261  1.00  0.00     0.085 A 
HETATM   10  C   UNL     1      24.333  47.981  49.172  1.00  0.00     0.130 A 
HETATM   11  N   UNL     1      23.458  49.021  48.982  1.00  0.00    -0.315 N 
HETATM   12  C   UNL     1      22.180  48.478  48.958  1.00  0.00     0.143 A 
HETATM   13  C   UNL     1      23.726  50.377  48.839  1.00  0.00     0.098 A 
HETATM   14  C   UNL     1      21.064  49.373  48.779  1.00  0.00     0.017 A 
HETATM   15  N   UNL     1      22.220  47.168  49.117  1.00  0.00    -0.228 NA
HETATM   16  C   UNL     1      21.348  50.694  48.632  1.00  0.00     0.015 A 
HETATM   17  C   UNL     1      22.701  51.225  48.665  1.00  0.00     0.018 A 
BRANCH  14  18
HETATM   18  C   UNL     1      19.634  48.857  48.734  1.00  0.00     0.150 C 
HETATM   19  C   UNL     1      19.293  48.258  47.374  1.00  0.00     0.044 C 
BRANCH  18  20
HETATM   20  O   UNL     1      19.418  47.859  49.735  1.00  0.00    -0.391 OA
HETATM   21  H   UNL     1      18.737  47.256  49.391  1.00  0.00     0.210 HD
ENDBRANCH  18  20
ENDBRANCH  14  18
ENDBRANCH   6   9
ENDBRANCH   2   3
ENDBRANCH   1   2
BRANCH   1  22
HETATM   22  N   UNL     1      27.551  42.330  51.602  1.00  0.00    -0.350 N 
HETATM   23  C   UNL     1      28.485  41.908  52.523  1.00  0.00     0.252 C 
HETATM   24  O   UNL     1      28.930  40.763  52.518  1.00  0.00    -0.268 OA
HETATM   25  H   UNL     1      27.446  43.339  51.532  1.00  0.00     0.163 HD
BRANCH  23  26
HETATM   26  C   UNL     1      28.944  42.911  53.518  1.00  0.00     0.033 A 
HETATM   27  C   UNL     1      28.215  44.096  53.655  1.00  0.00     0.043 A 
HETATM   28  C   UNL     1      28.624  45.057  54.584  1.00  0.00     0.068 A 
HETATM   29 CL   UNL     1      27.679  46.495  54.727  1.00  0.00    -0.081 Cl
HETATM   30  C   UNL     1      29.775  44.859  55.360  1.00  0.00     0.091 A 
HETATM   31  C   UNL     1      30.492  43.667  55.224  1.00  0.00     0.039 A 
HETATM   32  C   UNL     1      30.086  42.699  54.300  1.00  0.00     0.020 A 
BRANCH  30  33
HETATM   33  O   UNL     1      30.108  45.829  56.266  1.00  0.00    -0.345 OA
BRANCH  33  34
HETATM   34  C   UNL     1      29.896  45.542  57.656  1.00  0.00     0.121 C 
HETATM   35  C   UNL     1      31.081  46.014  58.498  1.00  0.00     0.040 C 
HETATM   36  C   UNL     1      28.633  46.294  58.068  1.00  0.00     0.040 C 
ENDBRANCH  33  34
ENDBRANCH  30  33
ENDBRANCH  23  26
ENDBRANCH   1  22
BRANCH   1  37
HETATM   37  C   UNL     1      27.715  40.095  50.401  1.00  0.00     0.254 C 
BRANCH  37  38
HETATM   38  N   UNL     1      28.938  39.959  49.567  1.00  0.00    -0.077 N 
HETATM   39  H   UNL     1      28.736  39.645  48.612  1.00  0.00     0.274 HD
HETATM   40  H   UNL     1      29.392  40.891  49.453  1.00  0.00     0.274 HD
HETATM   41  H   UNL     1      29.641  39.337  49.980  1.00  0.00     0.274 HD
ENDBRANCH  37  38
ENDBRANCH   1  37
TORSDOF 11
ENDMDL
MODEL 6
REMARK VINA RESULT:      -8.7      8.268     13.890
REMARK  11 active torsions:
REMARK  status: ('A' for Active; 'I' for Inactive)
REMARK    1  A    between atoms: C_2  and  O_3 
REMARK    2  A    between atoms: C_2  and  C_4 
REMARK    3  A    between atoms: C_8  and  C_9 
REMARK    4  A    between atoms: C_12  and  C_13 
REMARK    5  A    between atoms: C_13  and  C_14 
REMARK    6  A    between atoms: C_14  and  N_15 
REMARK    7  A    between atoms: C_14  and  C_29 
REMARK       I    between atoms: N_15  and  C_16 
REMARK    8  A    between atoms: C_16  and  C_17 
REMARK    9  A    between atoms: C_21  and  O_22 
REMARK   10  A    between atoms: O_22  and  C_23 
REMARK   11  A    between atoms: C_29  and  N_30 
ROOT
HETATM    1  C   UNL     1      29.673  45.509  56.236  1.00  0.00     0.114 C 
ENDROOT
BRANCH   1   2
HETATM    2  C   UNL     1      30.448  44.178  56.047  1.00  0.00     0.065 C 
BRANCH   2   3
HETATM    3  C   UNL     1      29.958  43.339  54.889  1.00  0.00    -0.056 A 
HETATM    4  C   UNL     1      28.868  42.469  55.034  1.00  0.00     0.008 A 
HETATM    5  C   UNL     1      28.469  41.638  53.982  1.00  0.00     0.014 A 
HETATM    6  C   UNL     1      29.165  41.635  52.766  1.00  0.00    -0.006 A 
HETATM    7  C   UNL     1      30.257  42.501  52.627  1.00  0.00     0.014 A 
HETATM    8  C   UNL     1      30.652  43.342  53.674  1.00  0.00     0.008 A 
BRANCH   6   9
HETATM    9  C   UNL     1      28.810  40.743  51.671  1.00  0.00     0.085 A 
HETATM   10  C   UNL     1      29.189  39.425  51.524  1.00  0.00     0.130 A 
HETATM   11  N   UNL     1      28.651  39.013  50.331  1.00  0.00    -0.315 N 
HETATM   12  C   UNL     1      27.960  40.095  49.802  1.00  0.00     0.143 A 
HETATM   13  C   UNL     1      28.742  37.773  49.710  1.00  0.00     0.098 A 
HETATM   14  C   UNL     1      27.301  39.925  48.530  1.00  0.00     0.017 A 
HETATM   15  N   UNL     1      28.040  41.143  50.600  1.00  0.00    -0.228 NA
HETATM   16  C   UNL     1      27.395  38.703  47.944  1.00  0.00     0.015 A 
HETATM   17  C   UNL     1      28.131  37.593  48.529  1.00  0.00     0.018 A 
BRANCH  14  18
HETATM   18  C   UNL     1      26.519  41.058  47.885  1.00  0.00     0.150 C 
HETATM   19  C   UNL     1      25.052  41.040  48.304  1.00  0.00     0.044 C 
BRANCH  18  20
HETATM   20  O   UNL     1      27.073  42.329  48.237  1.00  0.00    -0.391 OA
HETATM   21  H   UNL     1      27.856  42.461  47.676  1.00  0.00     0.210 HD
ENDBRANCH  18  20
ENDBRANCH  14  18
ENDBRANCH   6   9
ENDBRANCH   2   3
ENDBRANCH   1   2
BRANCH   1  22
HETATM   22  N   UNL     1      28.466  45.497  55.381  1.00  0.00    -0.350 N 
HETATM   23  C   UNL     1      28.052  46.573  54.626  1.00  0.00     0.252 C 
HETATM   24  O   UNL     1      28.548  47.689  54.760  1.00  0.00    -0.268 OA
HETATM   25  H   UNL     1      28.183  44.589  55.020  1.00  0.00     0.163 HD
BRANCH  23  26
HETATM   26  C   UNL     1      26.985  46.317  53.625  1.00  0.00     0.033 A 
HETATM   27  C   UNL     1      26.810  45.012  53.155  1.00  0.00     0.043 A 
HETATM   28  C   UNL     1      25.813  44.743  52.214  1.00  0.00     0.068 A 
HETATM   29 CL   UNL     1      25.627  43.111  51.679  1.00  0.00    -0.081 Cl
HETATM   30  C   UNL     1      25.003  45.772  51.714  1.00  0.00     0.091 A 
HETATM   31  C   UNL     1      25.176  47.072  52.197  1.00  0.00     0.039 A 
HETATM   32  C   UNL     1      26.170  47.348  53.142  1.00  0.00     0.020 A 
BRANCH  30  33
HETATM   33  O   UNL     1      24.031  45.437  50.811  1.00  0.00    -0.345 OA
BRANCH  33  34
HETATM   34  C   UNL     1      24.260  45.764  49.433  1.00  0.00     0.121 C 
HETATM   35  C   UNL     1      23.977  44.562  48.532  1.00  0.00     0.040 C 
HETATM   36  C   UNL     1      23.307  46.906  49.092  1.00  0.00     0.040 C 
ENDBRANCH  33  34
ENDBRANCH  30  33
ENDBRANCH  23  26
ENDBRANCH   1  22
BRANCH   1  37
HETATM   37  C   UNL     1      29.368  45.717  57.748  1.00  0.00     0.254 C 
BRANCH  37  38
HETATM   38  N   UNL     1      30.599  45.644  58.577  1.00  0.00    -0.077 N 
HETATM   39  H   UNL     1      31.437  45.428  58.027  1.00  0.00     0.274 HD
HETATM   40  H   UNL     1      30.792  46.576  59.005  1.00  0.00     0.274 HD
HETATM   41  H   UNL     1      30.526  44.975  59.350  1.00  0.00     0.274 HD
ENDBRANCH  37  38
ENDBRANCH   1  37
TORSDOF 11
ENDMDL
MODEL 7
REMARK VINA RESULT:      -8.7      5.195      8.097
REMARK  11 active torsions:
REMARK  status: ('A' for Active; 'I' for Inactive)
REMARK    1  A    between atoms: C_2  and  O_3 
REMARK    2  A    between atoms: C_2  and  C_4 
REMARK    3  A    between atoms: C_8  and  C_9 
REMARK    4  A    between atoms: C_12  and  C_13 
REMARK    5  A    between atoms: C_13  and  C_14 
REMARK    6  A    between atoms: C_14  and  N_15 
REMARK    7  A    between atoms: C_14  and  C_29 
REMARK       I    between atoms: N_15  and  C_16 
REMARK    8  A    between atoms: C_16  and  C_17 
REMARK    9  A    between atoms: C_21  and  O_22 
REMARK   10  A    between atoms: O_22  and  C_23 
REMARK   11  A    between atoms: C_29  and  N_30 
ROOT
HETATM    1  C   UNL     1      27.115  42.003  50.184  1.00  0.00     0.114 C 
ENDROOT
BRANCH   1   2
HETATM    2  C   UNL     1      25.594  41.698  50.205  1.00  0.00     0.065 C 
BRANCH   2   3
HETATM    3  C   UNL     1      24.731  42.832  49.703  1.00  0.00    -0.056 A 
HETATM    4  C   UNL     1      25.300  43.986  49.146  1.00  0.00     0.008 A 
HETATM    5  C   UNL     1      24.499  45.065  48.756  1.00  0.00     0.014 A 
HETATM    6  C   UNL     1      23.111  45.030  48.937  1.00  0.00    -0.006 A 
HETATM    7  C   UNL     1      22.546  43.878  49.500  1.00  0.00     0.014 A 
HETATM    8  C   UNL     1      23.343  42.793  49.881  1.00  0.00     0.008 A 
BRANCH   6   9
HETATM    9  C   UNL     1      22.254  46.157  48.593  1.00  0.00     0.085 A 
HETATM   10  C   UNL     1      20.894  46.121  48.367  1.00  0.00     0.130 A 
HETATM   11  N   UNL     1      20.536  47.405  48.041  1.00  0.00    -0.315 N 
HETATM   12  C   UNL     1      21.692  48.173  48.087  1.00  0.00     0.143 A 
HETATM   13  C   UNL     1      19.283  47.909  47.714  1.00  0.00     0.098 A 
HETATM   14  C   UNL     1      21.588  49.577  47.771  1.00  0.00     0.017 A 
HETATM   15  N   UNL     1      22.734  47.438  48.425  1.00  0.00    -0.228 NA
HETATM   16  C   UNL     1      20.353  50.051  47.462  1.00  0.00     0.015 A 
HETATM   17  C   UNL     1      19.165  49.213  47.423  1.00  0.00     0.018 A 
BRANCH  14  18
HETATM   18  C   UNL     1      22.805  50.487  47.805  1.00  0.00     0.150 C 
HETATM   19  C   UNL     1      23.099  50.984  49.217  1.00  0.00     0.044 C 
BRANCH  18  20
HETATM   20  O   UNL     1      23.966  49.812  47.313  1.00  0.00    -0.391 OA
HETATM   21  H   UNL     1      24.262  49.209  48.016  1.00  0.00     0.210 HD
ENDBRANCH  18  20
ENDBRANCH  14  18
ENDBRANCH   6   9
ENDBRANCH   2   3
ENDBRANCH   1   2
BRANCH   1  22
HETATM   22  N   UNL     1      27.457  42.856  51.344  1.00  0.00    -0.350 N 
HETATM   23  C   UNL     1      27.727  42.364  52.603  1.00  0.00     0.252 C 
HETATM   24  O   UNL     1      27.511  41.193  52.902  1.00  0.00    -0.268 OA
HETATM   25  H   UNL     1      27.903  43.745  51.130  1.00  0.00     0.163 HD
BRANCH  23  26
HETATM   26  C   UNL     1      28.310  43.317  53.583  1.00  0.00     0.033 A 
HETATM   27  C   UNL     1      29.451  42.930  54.291  1.00  0.00     0.043 A 
HETATM   28  C   UNL     1      30.020  43.808  55.218  1.00  0.00     0.068 A 
HETATM   29 CL   UNL     1      31.440  43.290  56.055  1.00  0.00    -0.081 Cl
HETATM   30  C   UNL     1      29.442  45.061  55.468  1.00  0.00     0.091 A 
HETATM   31  C   UNL     1      28.308  45.444  54.747  1.00  0.00     0.039 A 
HETATM   32  C   UNL     1      27.735  44.573  53.814  1.00  0.00     0.020 A 
BRANCH  30  33
HETATM   33  O   UNL     1      30.062  45.881  56.371  1.00  0.00    -0.345 OA
BRANCH  33  34
HETATM   34  C   UNL     1      29.761  45.688  57.761  1.00  0.00     0.121 C 
HETATM   35  C   UNL     1      30.968  46.030  58.633  1.00  0.00     0.040 C 
HETATM   36  C   UNL     1      28.601  46.624  58.088  1.00  0.00     0.040 C 
ENDBRANCH  33  34
ENDBRANCH  30  33
ENDBRANCH  23  26
ENDBRANCH   1  22
BRANCH   1  37
HETATM   37  C   UNL     1      27.909  40.667  50.134  1.00  0.00     0.254 C 
BRANCH  37  38
HETATM   38  N   UNL     1      27.041  39.496  50.424  1.00  0.00    -0.077 N 
HETATM   39  H   UNL     1      27.354  38.641  49.951  1.00  0.00     0.274 HD
HETATM   40  H   UNL     1      27.082  39.269  51.442  1.00  0.00     0.274 HD
HETATM   41  H   UNL     1      26.055  39.658  50.198  1.00  0.00     0.274 HD
ENDBRANCH  37  38
ENDBRANCH   1  37
TORSDOF 11
ENDMDL
MODEL 8
REMARK VINA RESULT:      -8.7      5.344     12.165
REMARK  11 active torsions:
REMARK  status: ('A' for Active; 'I' for Inactive)
REMARK    1  A    between atoms: C_2  and  O_3 
REMARK    2  A    between atoms: C_2  and  C_4 
REMARK    3  A    between atoms: C_8  and  C_9 
REMARK    4  A    between atoms: C_12  and  C_13 
REMARK    5  A    between atoms: C_13  and  C_14 
REMARK    6  A    between atoms: C_14  and  N_15 
REMARK    7  A    between atoms: C_14  and  C_29 
REMARK       I    between atoms: N_15  and  C_16 
REMARK    8  A    between atoms: C_16  and  C_17 
REMARK    9  A    between atoms: C_21  and  O_22 
REMARK   10  A    between atoms: O_22  and  C_23 
REMARK   11  A    between atoms: C_29  and  N_30 
ROOT
HETATM    1  C   UNL     1      22.466  42.106  46.899  1.00  0.00     0.114 C 
ENDROOT
BRANCH   1   2
HETATM    2  C   UNL     1      22.763  41.357  48.225  1.00  0.00     0.065 C 
BRANCH   2   3
HETATM    3  C   UNL     1      23.632  42.132  49.189  1.00  0.00    -0.056 A 
HETATM    4  C   UNL     1      24.990  41.825  49.349  1.00  0.00     0.008 A 
HETATM    5  C   UNL     1      25.769  42.494  50.300  1.00  0.00     0.014 A 
HETATM    6  C   UNL     1      25.205  43.467  51.134  1.00  0.00    -0.006 A 
HETATM    7  C   UNL     1      23.845  43.766  50.976  1.00  0.00     0.014 A 
HETATM    8  C   UNL     1      23.066  43.107  50.019  1.00  0.00     0.008 A 
BRANCH   6   9
HETATM    9  C   UNL     1      25.974  44.142  52.171  1.00  0.00     0.085 A 
HETATM   10  C   UNL     1      25.665  45.340  52.778  1.00  0.00     0.130 A 
HETATM   11  N   UNL     1      26.692  45.590  53.654  1.00  0.00    -0.315 N 
HETATM   12  C   UNL     1      27.583  44.530  53.548  1.00  0.00     0.143 A 
HETATM   13  C   UNL     1      26.873  46.673  54.506  1.00  0.00     0.098 A 
HETATM   14  C   UNL     1      28.769  44.555  54.368  1.00  0.00     0.017 A 
HETATM   15  N   UNL     1      27.161  43.646  52.664  1.00  0.00    -0.228 NA
HETATM   16  C   UNL     1      28.923  45.617  55.201  1.00  0.00     0.015 A 
HETATM   17  C   UNL     1      27.967  46.711  55.281  1.00  0.00     0.018 A 
BRANCH  14  18
HETATM   18  C   UNL     1      29.791  43.430  54.316  1.00  0.00     0.150 C 
HETATM   19  C   UNL     1      30.678  43.417  55.556  1.00  0.00     0.044 C 
BRANCH  18  20
HETATM   20  O   UNL     1      29.148  42.158  54.206  1.00  0.00    -0.391 OA
HETATM   21  H   UNL     1      29.846  41.500  54.046  1.00  0.00     0.210 HD
ENDBRANCH  18  20
ENDBRANCH  14  18
ENDBRANCH   6   9
ENDBRANCH   2   3
ENDBRANCH   1   2
BRANCH   1  22
HETATM   22  N   UNL     1      22.362  43.557  47.171  1.00  0.00    -0.350 N 
HETATM   23  C   UNL     1      21.165  44.229  47.296  1.00  0.00     0.252 C 
HETATM   24  O   UNL     1      20.094  43.708  46.996  1.00  0.00    -0.268 OA
HETATM   25  H   UNL     1      23.139  43.974  47.678  1.00  0.00     0.163 HD
BRANCH  23  26
HETATM   26  C   UNL     1      21.228  45.614  47.829  1.00  0.00     0.033 A 
HETATM   27  C   UNL     1      20.045  46.214  48.268  1.00  0.00     0.043 A 
HETATM   28  C   UNL     1      20.076  47.516  48.776  1.00  0.00     0.068 A 
HETATM   29 CL   UNL     1      18.590  48.206  49.322  1.00  0.00    -0.081 Cl
HETATM   30  C   UNL     1      21.277  48.239  48.822  1.00  0.00     0.091 A 
HETATM   31  C   UNL     1      22.457  47.628  48.391  1.00  0.00     0.039 A 
HETATM   32  C   UNL     1      22.435  46.323  47.886  1.00  0.00     0.020 A 
BRANCH  30  33
HETATM   33  O   UNL     1      21.242  49.500  49.350  1.00  0.00    -0.345 OA
BRANCH  33  34
HETATM   34  C   UNL     1      21.389  50.605  48.446  1.00  0.00     0.121 C 
HETATM   35  C   UNL     1      20.297  51.648  48.677  1.00  0.00     0.040 C 
HETATM   36  C   UNL     1      22.759  51.217  48.726  1.00  0.00     0.040 C 
ENDBRANCH  33  34
ENDBRANCH  30  33
ENDBRANCH  23  26
ENDBRANCH   1  22
BRANCH   1  37
HETATM   37  C   UNL     1      23.552  41.743  45.846  1.00  0.00     0.254 C 
BRANCH  37  38
HETATM   38  N   UNL     1      24.157  42.955  45.234  1.00  0.00    -0.077 N 
HETATM   39  H   UNL     1      24.919  43.349  45.798  1.00  0.00     0.274 HD
HETATM   40  H   UNL     1      24.599  42.707  44.322  1.00  0.00     0.274 HD
HETATM   41  H   UNL     1      23.474  43.694  45.039  1.00  0.00     0.274 HD
ENDBRANCH  37  38
ENDBRANCH   1  37
TORSDOF 11
ENDMDL
MODEL 9
REMARK VINA RESULT:      -8.6      5.057      7.947
REMARK  11 active torsions:
REMARK  status: ('A' for Active; 'I' for Inactive)
REMARK    1  A    between atoms: C_2  and  O_3 
REMARK    2  A    between atoms: C_2  and  C_4 
REMARK    3  A    between atoms: C_8  and  C_9 
REMARK    4  A    between atoms: C_12  and  C_13 
REMARK    5  A    between atoms: C_13  and  C_14 
REMARK    6  A    between atoms: C_14  and  N_15 
REMARK    7  A    between atoms: C_14  and  C_29 
REMARK       I    between atoms: N_15  and  C_16 
REMARK    8  A    between atoms: C_16  and  C_17 
REMARK    9  A    between atoms: C_21  and  O_22 
REMARK   10  A    between atoms: O_22  and  C_23 
REMARK   11  A    between atoms: C_29  and  N_30 
ROOT
HETATM    1  C   UNL     1      26.975  41.241  49.235  1.00  0.00     0.114 C 
ENDROOT
BRANCH   1   2
HETATM    2  C   UNL     1      25.480  40.938  49.519  1.00  0.00     0.065 C 
BRANCH   2   3
HETATM    3  C   UNL     1      24.553  42.100  49.244  1.00  0.00    -0.056 A 
HETATM    4  C   UNL     1      24.280  42.517  47.934  1.00  0.00     0.008 A 
HETATM    5  C   UNL     1      23.485  43.642  47.690  1.00  0.00     0.014 A 
HETATM    6  C   UNL     1      22.963  44.395  48.749  1.00  0.00    -0.006 A 
HETATM    7  C   UNL     1      23.242  43.979  50.057  1.00  0.00     0.014 A 
HETATM    8  C   UNL     1      24.028  42.848  50.305  1.00  0.00     0.008 A 
BRANCH   6   9
HETATM    9  C   UNL     1      22.177  45.602  48.530  1.00  0.00     0.085 A 
HETATM   10  C   UNL     1      20.937  45.682  47.932  1.00  0.00     0.130 A 
HETATM   11  N   UNL     1      20.615  47.016  47.916  1.00  0.00    -0.315 N 
HETATM   12  C   UNL     1      21.671  47.694  48.511  1.00  0.00     0.143 A 
HETATM   13  C   UNL     1      19.478  47.637  47.415  1.00  0.00     0.098 A 
HETATM   14  C   UNL     1      21.585  49.131  48.611  1.00  0.00     0.017 A 
HETATM   15  N   UNL     1      22.616  46.857  48.893  1.00  0.00    -0.228 NA
HETATM   16  C   UNL     1      20.462  49.719  48.124  1.00  0.00     0.015 A 
HETATM   17  C   UNL     1      19.377  48.972  47.505  1.00  0.00     0.018 A 
BRANCH  14  18
HETATM   18  C   UNL     1      22.695  49.947  49.254  1.00  0.00     0.150 C 
HETATM   19  C   UNL     1      23.086  51.144  48.392  1.00  0.00     0.044 C 
BRANCH  18  20
HETATM   20  O   UNL     1      22.300  50.427  50.542  1.00  0.00    -0.391 OA
HETATM   21  H   UNL     1      21.767  49.727  50.954  1.00  0.00     0.210 HD
ENDBRANCH  18  20
ENDBRANCH  14  18
ENDBRANCH   6   9
ENDBRANCH   2   3
ENDBRANCH   1   2
BRANCH   1  22
HETATM   22  N   UNL     1      27.615  41.742  50.472  1.00  0.00    -0.350 N 
HETATM   23  C   UNL     1      27.705  43.077  50.801  1.00  0.00     0.252 C 
HETATM   24  O   UNL     1      27.433  43.963  49.995  1.00  0.00    -0.268 OA
HETATM   25  H   UNL     1      27.610  41.106  51.266  1.00  0.00     0.163 HD
BRANCH  23  26
HETATM   26  C   UNL     1      28.132  43.397  52.187  1.00  0.00     0.033 A 
HETATM   27  C   UNL     1      27.584  44.521  52.811  1.00  0.00     0.043 A 
HETATM   28  C   UNL     1      27.968  44.845  54.115  1.00  0.00     0.068 A 
HETATM   29 CL   UNL     1      27.248  46.233  54.848  1.00  0.00    -0.081 Cl
HETATM   30  C   UNL     1      28.919  44.071  54.795  1.00  0.00     0.091 A 
HETATM   31  C   UNL     1      29.454  42.943  54.168  1.00  0.00     0.039 A 
HETATM   32  C   UNL     1      29.071  42.610  52.864  1.00  0.00     0.020 A 
BRANCH  30  33
HETATM   33  O   UNL     1      29.234  44.429  56.077  1.00  0.00    -0.345 OA
BRANCH  33  34
HETATM   34  C   UNL     1      30.530  45.001  56.310  1.00  0.00     0.121 C 
HETATM   35  C   UNL     1      30.482  46.018  57.449  1.00  0.00     0.040 C 
HETATM   36  C   UNL     1      31.454  43.845  56.684  1.00  0.00     0.040 C 
ENDBRANCH  33  34
ENDBRANCH  30  33
ENDBRANCH  23  26
ENDBRANCH   1  22
BRANCH   1  37
HETATM   37  C   UNL     1      27.656  39.971  48.648  1.00  0.00     0.254 C 
BRANCH  37  38
HETATM   38  N   UNL     1      29.132  40.008  48.814  1.00  0.00    -0.077 N 
HETATM   39  H   UNL     1      29.634  39.641  47.998  1.00  0.00     0.274 HD
HETATM   40  H   UNL     1      29.453  40.997  48.904  1.00  0.00     0.274 HD
HETATM   41  H   UNL     1      29.457  39.516  49.653  1.00  0.00     0.274 HD
ENDBRANCH  37  38
ENDBRANCH   1  37
TORSDOF 11
ENDMDL
MODEL 10
REMARK VINA RESULT:      -8.6      8.104     13.506
REMARK  11 active torsions:
REMARK  status: ('A' for Active; 'I' for Inactive)
REMARK    1  A    between atoms: C_2  and  O_3 
REMARK    2  A    between atoms: C_2  and  C_4 
REMARK    3  A    between atoms: C_8  and  C_9 
REMARK    4  A    between atoms: C_12  and  C_13 
REMARK    5  A    between atoms: C_13  and  C_14 
REMARK    6  A    between atoms: C_14  and  N_15 
REMARK    7  A    between atoms: C_14  and  C_29 
REMARK       I    between atoms: N_15  and  C_16 
REMARK    8  A    between atoms: C_16  and  C_17 
REMARK    9  A    between atoms: C_21  and  O_22 
REMARK   10  A    between atoms: O_22  and  C_23 
REMARK   11  A    between atoms: C_29  and  N_30 
ROOT
HETATM    1  C   UNL     1      27.327  46.715  54.802  1.00  0.00     0.114 C 
ENDROOT
BRANCH   1   2
HETATM    2  C   UNL     1      27.876  45.428  55.474  1.00  0.00     0.065 C 
BRANCH   2   3
HETATM    3  C   UNL     1      28.074  44.272  54.521  1.00  0.00    -0.056 A 
HETATM    4  C   UNL     1      29.191  44.211  53.677  1.00  0.00     0.008 A 
HETATM    5  C   UNL     1      29.329  43.178  52.742  1.00  0.00     0.014 A 
HETATM    6  C   UNL     1      28.340  42.196  52.609  1.00  0.00    -0.006 A 
HETATM    7  C   UNL     1      27.222  42.264  53.450  1.00  0.00     0.014 A 
HETATM    8  C   UNL     1      27.087  43.288  54.393  1.00  0.00     0.008 A 
BRANCH   6   9
HETATM    9  C   UNL     1      28.425  41.139  51.609  1.00  0.00     0.085 A 
HETATM   10  C   UNL     1      29.098  39.942  51.729  1.00  0.00     0.130 A 
HETATM   11  N   UNL     1      28.927  39.295  50.531  1.00  0.00    -0.315 N 
HETATM   12  C   UNL     1      28.152  40.123  49.730  1.00  0.00     0.143 A 
HETATM   13  C   UNL     1      29.410  38.057  50.127  1.00  0.00     0.098 A 
HETATM   14  C   UNL     1      27.831  39.675  48.397  1.00  0.00     0.017 A 
HETATM   15  N   UNL     1      27.835  41.235  50.367  1.00  0.00    -0.228 NA
HETATM   16  C   UNL     1      28.305  38.457  48.024  1.00  0.00     0.015 A 
HETATM   17  C   UNL     1      29.117  37.619  48.893  1.00  0.00     0.018 A 
BRANCH  14  18
HETATM   18  C   UNL     1      26.982  40.519  47.460  1.00  0.00     0.150 C 
HETATM   19  C   UNL     1      25.492  40.296  47.696  1.00  0.00     0.044 C 
BRANCH  18  20
HETATM   20  O   UNL     1      27.263  41.911  47.628  1.00  0.00    -0.391 OA
HETATM   21  H   UNL     1      26.918  42.367  46.841  1.00  0.00     0.210 HD
ENDBRANCH  18  20
ENDBRANCH  14  18
ENDBRANCH   6   9
ENDBRANCH   2   3
ENDBRANCH   1   2
BRANCH   1  22
HETATM   22  N   UNL     1      26.305  46.343  53.799  1.00  0.00    -0.350 N 
HETATM   23  C   UNL     1      26.186  46.947  52.566  1.00  0.00     0.252 C 
HETATM   24  O   UNL     1      26.798  47.975  52.286  1.00  0.00    -0.268 OA
HETATM   25  H   UNL     1      25.969  45.383  53.837  1.00  0.00     0.163 HD
BRANCH  23  26
HETATM   26  C   UNL     1      25.292  46.287  51.580  1.00  0.00     0.033 A 
HETATM   27  C   UNL     1      25.149  44.898  51.636  1.00  0.00     0.043 A 
HETATM   28  C   UNL     1      24.314  44.251  50.721  1.00  0.00     0.068 A 
HETATM   29 CL   UNL     1      24.158  42.535  50.843  1.00  0.00    -0.081 Cl
HETATM   30  C   UNL     1      23.640  44.976  49.729  1.00  0.00     0.091 A 
HETATM   31  C   UNL     1      23.779  46.366  49.687  1.00  0.00     0.039 A 
HETATM   32  C   UNL     1      24.610  47.021  50.602  1.00  0.00     0.020 A 
BRANCH  30  33
HETATM   33  O   UNL     1      22.820  44.285  48.879  1.00  0.00    -0.345 OA
BRANCH  33  34
HETATM   34  C   UNL     1      22.973  44.517  47.471  1.00  0.00     0.121 C 
HETATM   35  C   UNL     1      23.391  43.236  46.749  1.00  0.00     0.040 C 
HETATM   36  C   UNL     1      21.614  44.983  46.957  1.00  0.00     0.040 C 
ENDBRANCH  33  34
ENDBRANCH  30  33
ENDBRANCH  23  26
ENDBRANCH   1  22
BRANCH   1  37
HETATM   37  C   UNL     1      26.805  47.687  55.898  1.00  0.00     0.254 C 
BRANCH  37  38
HETATM   38  N   UNL     1      26.076  48.842  55.311  1.00  0.00    -0.077 N 
HETATM   39  H   UNL     1      26.186  48.908  54.293  1.00  0.00     0.274 HD
HETATM   40  H   UNL     1      25.050  48.727  55.464  1.00  0.00     0.274 HD
HETATM   41  H   UNL     1      26.337  49.740  55.731  1.00  0.00     0.274 HD
ENDBRANCH  37  38
ENDBRANCH   1  37
TORSDOF 11
ENDMDL
