MODEL 1
REMARK VINA RESULT:      -8.0      0.000      0.000
REMARK  3 active torsions:
REMARK  status: ('A' for Active; 'I' for Inactive)
REMARK    1  A    between atoms: C_2  and  C_3 
REMARK    2  A    between atoms: C_7  and  N_8 
REMARK       I    between atoms: N_8  and  C_9 
REMARK    3  A    between atoms: C_9  and  C_10 
ROOT
HETATM    1  N   UNL     1      25.270  46.417  50.992  1.00  0.00    -0.311 N 
HETATM    2  C   UNL     1      25.451  46.550  52.359  1.00  0.00     0.234 C 
HETATM    3  O   UNL     1      25.534  47.637  52.937  1.00  0.00    -0.272 OA
HETATM    4  H   UNL     1      25.206  45.495  50.573  1.00  0.00     0.170 HD
ENDROOT
BRANCH   2   5
HETATM    5  C   UNL     1      25.491  45.252  53.149  1.00  0.00     0.138 C 
HETATM    6  C   UNL     1      26.833  44.867  53.657  1.00  0.00    -0.008 A 
HETATM    7  C   UNL     1      27.316  43.801  52.913  1.00  0.00     0.076 A 
HETATM    8  C   UNL     1      27.599  45.437  54.661  1.00  0.00     0.030 A 
HETATM    9  C   UNL     1      28.569  43.266  53.127  1.00  0.00     0.039 A 
HETATM   10  O   UNL     1      26.458  43.382  51.932  1.00  0.00    -0.349 OA
HETATM   11  C   UNL     1      29.353  43.823  54.140  1.00  0.00     0.022 A 
HETATM   12  C   UNL     1      28.868  44.900  54.898  1.00  0.00     0.011 A 
HETATM   13 BR   UNL     1      29.954  45.647  56.254  1.00  0.00    -0.051 Br
HETATM   14  C   UNL     1      25.208  44.048  52.245  1.00  0.00     0.194 C 
ENDBRANCH   2   5
BRANCH   1  15
HETATM   15  C   UNL     1      25.226  47.509  50.150  1.00  0.00     0.126 A 
HETATM   16  N   UNL     1      26.324  48.216  49.731  1.00  0.00    -0.262 N 
HETATM   17  N   UNL     1      26.026  49.237  48.908  1.00  0.00    -0.178 NA
HETATM   18  H   UNL     1      27.293  48.036  49.982  1.00  0.00     0.191 HD
HETATM   19  C   UNL     1      24.694  49.174  48.789  1.00  0.00     0.058 A 
HETATM   20  C   UNL     1      24.146  48.115  49.556  1.00  0.00     0.079 A 
BRANCH  19  21
HETATM   21  C   UNL     1      23.968  50.148  47.924  1.00  0.00     0.056 C 
HETATM   22  C   UNL     1      23.015  51.028  48.720  1.00  0.00     0.011 C 
ENDBRANCH  19  21
ENDBRANCH   1  15
TORSDOF 3
ENDMDL
MODEL 2
REMARK VINA RESULT:      -7.8      6.520      9.462
REMARK  3 active torsions:
REMARK  status: ('A' for Active; 'I' for Inactive)
REMARK    1  A    between atoms: C_2  and  C_3 
REMARK    2  A    between atoms: C_7  and  N_8 
REMARK       I    between atoms: N_8  and  C_9 
REMARK    3  A    between atoms: C_9  and  C_10 
ROOT
HETATM    1  N   UNL     1      21.335  49.107  49.531  1.00  0.00    -0.311 N 
HETATM    2  C   UNL     1      20.489  48.189  48.931  1.00  0.00     0.234 C 
HETATM    3  O   UNL     1      20.882  47.244  48.242  1.00  0.00    -0.272 OA
HETATM    4  H   UNL     1      20.953  49.863  50.091  1.00  0.00     0.170 HD
ENDROOT
BRANCH   2   5
HETATM    5  C   UNL     1      19.007  48.374  49.214  1.00  0.00     0.138 C 
HETATM    6  C   UNL     1      18.445  49.682  48.787  1.00  0.00    -0.008 A 
HETATM    7  C   UNL     1      18.206  50.464  49.907  1.00  0.00     0.076 A 
HETATM    8  C   UNL     1      18.207  50.172  47.513  1.00  0.00     0.030 A 
HETATM    9  C   UNL     1      17.732  51.757  49.810  1.00  0.00     0.039 A 
HETATM   10  O   UNL     1      18.533  49.852  51.086  1.00  0.00    -0.349 OA
HETATM   11  C   UNL     1      17.480  52.266  48.534  1.00  0.00     0.022 A 
HETATM   12  C   UNL     1      17.718  51.476  47.397  1.00  0.00     0.011 A 
HETATM   13 BR   UNL     1      17.383  52.194  45.680  1.00  0.00    -0.051 Br
HETATM   14  C   UNL     1      18.739  48.463  50.719  1.00  0.00     0.194 C 
ENDBRANCH   2   5
BRANCH   1  15
HETATM   15  C   UNL     1      22.703  49.068  49.353  1.00  0.00     0.126 A 
HETATM   16  N   UNL     1      23.539  48.150  49.936  1.00  0.00    -0.262 N 
HETATM   17  N   UNL     1      24.832  48.314  49.605  1.00  0.00    -0.178 NA
HETATM   18  H   UNL     1      23.269  47.397  50.563  1.00  0.00     0.191 HD
HETATM   19  C   UNL     1      24.820  49.365  48.776  1.00  0.00     0.058 A 
HETATM   20  C   UNL     1      23.512  49.878  48.595  1.00  0.00     0.079 A 
BRANCH  19  21
HETATM   21  C   UNL     1      26.089  49.858  48.165  1.00  0.00     0.056 C 
HETATM   22  C   UNL     1      27.318  49.373  48.920  1.00  0.00     0.011 C 
ENDBRANCH  19  21
ENDBRANCH   1  15
TORSDOF 3
ENDMDL
MODEL 3
REMARK VINA RESULT:      -7.5      5.201      7.535
REMARK  3 active torsions:
REMARK  status: ('A' for Active; 'I' for Inactive)
REMARK    1  A    between atoms: C_2  and  C_3 
REMARK    2  A    between atoms: C_7  and  N_8 
REMARK       I    between atoms: N_8  and  C_9 
REMARK    3  A    between atoms: C_9  and  C_10 
ROOT
HETATM    1  N   UNL     1      27.964  42.531  53.098  1.00  0.00    -0.311 N 
HETATM    2  C   UNL     1      27.619  42.987  51.836  1.00  0.00     0.234 C 
HETATM    3  O   UNL     1      27.958  44.084  51.387  1.00  0.00    -0.272 OA
HETATM    4  H   UNL     1      27.657  41.616  53.412  1.00  0.00     0.170 HD
ENDROOT
BRANCH   2   5
HETATM    5  C   UNL     1      26.820  42.017  50.980  1.00  0.00     0.138 C 
HETATM    6  C   UNL     1      27.619  40.938  50.341  1.00  0.00    -0.008 A 
HETATM    7  C   UNL     1      27.736  41.198  48.984  1.00  0.00     0.076 A 
HETATM    8  C   UNL     1      28.240  39.838  50.911  1.00  0.00     0.030 A 
HETATM    9  C   UNL     1      28.473  40.390  48.144  1.00  0.00     0.039 A 
HETATM   10  O   UNL     1      27.102  42.345  48.587  1.00  0.00    -0.349 OA
HETATM   11  C   UNL     1      29.101  39.272  48.699  1.00  0.00     0.022 A 
HETATM   12  C   UNL     1      28.982  39.003  50.072  1.00  0.00     0.011 A 
HETATM   13 BR   UNL     1      29.855  37.492  50.801  1.00  0.00    -0.051 Br
HETATM   14  C   UNL     1      26.277  42.707  49.725  1.00  0.00     0.194 C 
ENDBRANCH   2   5
BRANCH   1  15
HETATM   15  C   UNL     1      28.678  43.309  53.987  1.00  0.00     0.126 A 
HETATM   16  N   UNL     1      28.359  44.598  54.326  1.00  0.00    -0.262 N 
HETATM   17  N   UNL     1      29.204  45.145  55.218  1.00  0.00    -0.178 NA
HETATM   18  H   UNL     1      27.574  45.141  53.975  1.00  0.00     0.191 HD
HETATM   19  C   UNL     1      30.087  44.169  55.463  1.00  0.00     0.058 A 
HETATM   20  C   UNL     1      29.806  43.003  54.709  1.00  0.00     0.079 A 
BRANCH  19  21
HETATM   21  C   UNL     1      31.197  44.384  56.436  1.00  0.00     0.056 C 
HETATM   22  C   UNL     1      31.602  43.099  57.143  1.00  0.00     0.011 C 
ENDBRANCH  19  21
ENDBRANCH   1  15
TORSDOF 3
ENDMDL
MODEL 4
REMARK VINA RESULT:      -7.3      3.418      7.151
REMARK  3 active torsions:
REMARK  status: ('A' for Active; 'I' for Inactive)
REMARK    1  A    between atoms: C_2  and  C_3 
REMARK    2  A    between atoms: C_7  and  N_8 
REMARK       I    between atoms: N_8  and  C_9 
REMARK    3  A    between atoms: C_9  and  C_10 
ROOT
HETATM    1  N   UNL     1      27.561  44.066  52.841  1.00  0.00    -0.311 N 
HETATM    2  C   UNL     1      27.546  43.322  51.673  1.00  0.00     0.234 C 
HETATM    3  O   UNL     1      28.339  42.409  51.431  1.00  0.00    -0.272 OA
HETATM    4  H   UNL     1      26.879  44.804  52.986  1.00  0.00     0.170 HD
ENDROOT
BRANCH   2   5
HETATM    5  C   UNL     1      26.436  43.658  50.691  1.00  0.00     0.138 C 
HETATM    6  C   UNL     1      26.202  45.112  50.480  1.00  0.00    -0.008 A 
HETATM    7  C   UNL     1      25.023  45.481  51.110  1.00  0.00     0.076 A 
HETATM    8  C   UNL     1      26.986  46.051  49.831  1.00  0.00     0.030 A 
HETATM    9  C   UNL     1      24.581  46.788  51.128  1.00  0.00     0.039 A 
HETATM   10  O   UNL     1      24.389  44.446  51.742  1.00  0.00    -0.349 OA
HETATM   11  C   UNL     1      25.355  47.749  50.472  1.00  0.00     0.022 A 
HETATM   12  C   UNL     1      26.548  47.378  49.831  1.00  0.00     0.011 A 
HETATM   13 BR   UNL     1      27.586  48.700  48.963  1.00  0.00    -0.051 Br
HETATM   14  C   UNL     1      25.066  43.261  51.249  1.00  0.00     0.194 C 
ENDBRANCH   2   5
BRANCH   1  15
HETATM   15  C   UNL     1      28.519  43.877  53.817  1.00  0.00     0.126 A 
HETATM   16  N   UNL     1      29.122  42.677  54.095  1.00  0.00    -0.262 N 
HETATM   17  N   UNL     1      30.028  42.748  55.087  1.00  0.00    -0.178 NA
HETATM   18  H   UNL     1      28.946  41.789  53.633  1.00  0.00     0.191 HD
HETATM   19  C   UNL     1      30.009  44.037  55.447  1.00  0.00     0.058 A 
HETATM   20  C   UNL     1      29.073  44.782  54.688  1.00  0.00     0.079 A 
BRANCH  19  21
HETATM   21  C   UNL     1      30.909  44.530  56.530  1.00  0.00     0.056 C 
HETATM   22  C   UNL     1      31.705  43.405  57.175  1.00  0.00     0.011 C 
ENDBRANCH  19  21
ENDBRANCH   1  15
TORSDOF 3
ENDMDL
MODEL 5
REMARK VINA RESULT:      -6.8      4.426      6.198
REMARK  3 active torsions:
REMARK  status: ('A' for Active; 'I' for Inactive)
REMARK    1  A    between atoms: C_2  and  C_3 
REMARK    2  A    between atoms: C_7  and  N_8 
REMARK       I    between atoms: N_8  and  C_9 
REMARK    3  A    between atoms: C_9  and  C_10 
ROOT
HETATM    1  N   UNL     1      21.584  49.278  49.419  1.00  0.00    -0.311 N 
HETATM    2  C   UNL     1      21.794  48.068  48.777  1.00  0.00     0.234 C 
HETATM    3  O   UNL     1      20.885  47.316  48.418  1.00  0.00    -0.272 OA
HETATM    4  H   UNL     1      22.373  49.857  49.688  1.00  0.00     0.170 HD
ENDROOT
BRANCH   2   5
HETATM    5  C   UNL     1      23.244  47.723  48.478  1.00  0.00     0.138 C 
HETATM    6  C   UNL     1      23.846  46.705  49.379  1.00  0.00    -0.008 A 
HETATM    7  C   UNL     1      24.734  47.327  50.243  1.00  0.00     0.076 A 
HETATM    8  C   UNL     1      23.599  45.345  49.471  1.00  0.00     0.030 A 
HETATM    9  C   UNL     1      25.403  46.634  51.230  1.00  0.00     0.039 A 
HETATM   10  O   UNL     1      24.833  48.679  50.051  1.00  0.00    -0.349 OA
HETATM   11  C   UNL     1      25.172  45.260  51.334  1.00  0.00     0.022 A 
HETATM   12  C   UNL     1      24.276  44.625  50.460  1.00  0.00     0.011 A 
HETATM   13 BR   UNL     1      23.969  42.767  50.631  1.00  0.00    -0.051 Br
HETATM   14  C   UNL     1      24.167  48.907  48.782  1.00  0.00     0.194 C 
ENDBRANCH   2   5
BRANCH   1  15
HETATM   15  C   UNL     1      20.320  49.714  49.763  1.00  0.00     0.126 A 
HETATM   16  N   UNL     1      19.521  49.121  50.707  1.00  0.00    -0.262 N 
HETATM   17  N   UNL     1      18.335  49.734  50.869  1.00  0.00    -0.178 NA
HETATM   18  H   UNL     1      19.746  48.300  51.263  1.00  0.00     0.191 HD
HETATM   19  C   UNL     1      18.382  50.757  50.006  1.00  0.00     0.058 A 
HETATM   20  C   UNL     1      19.601  50.781  49.284  1.00  0.00     0.079 A 
BRANCH  19  21
HETATM   21  C   UNL     1      17.235  51.705  49.899  1.00  0.00     0.056 C 
HETATM   22  C   UNL     1      17.053  52.232  48.482  1.00  0.00     0.011 C 
ENDBRANCH  19  21
ENDBRANCH   1  15
TORSDOF 3
ENDMDL
MODEL 6
REMARK VINA RESULT:      -6.7      4.872      7.502
REMARK  3 active torsions:
REMARK  status: ('A' for Active; 'I' for Inactive)
REMARK    1  A    between atoms: C_2  and  C_3 
REMARK    2  A    between atoms: C_7  and  N_8 
REMARK       I    between atoms: N_8  and  C_9 
REMARK    3  A    between atoms: C_9  and  C_10 
ROOT
HETATM    1  N   UNL     1      28.625  41.098  50.371  1.00  0.00    -0.311 N 
HETATM    2  C   UNL     1      27.873  41.841  51.267  1.00  0.00     0.234 C 
HETATM    3  O   UNL     1      26.958  41.373  51.948  1.00  0.00    -0.272 OA
HETATM    4  H   UNL     1      29.369  41.539  49.840  1.00  0.00     0.170 HD
ENDROOT
BRANCH   2   5
HETATM    5  C   UNL     1      28.277  43.299  51.416  1.00  0.00     0.138 C 
HETATM    6  C   UNL     1      28.575  43.730  52.807  1.00  0.00    -0.008 A 
HETATM    7  C   UNL     1      27.541  44.528  53.271  1.00  0.00     0.076 A 
HETATM    8  C   UNL     1      29.646  43.406  53.625  1.00  0.00     0.030 A 
HETATM    9  C   UNL     1      27.521  45.029  54.556  1.00  0.00     0.039 A 
HETATM   10  O   UNL     1      26.540  44.717  52.357  1.00  0.00    -0.349 OA
HETATM   11  C   UNL     1      28.596  44.719  55.394  1.00  0.00     0.022 A 
HETATM   12  C   UNL     1      29.647  43.914  54.928  1.00  0.00     0.011 A 
HETATM   13 BR   UNL     1      31.083  43.497  56.086  1.00  0.00    -0.051 Br
HETATM   14  C   UNL     1      27.101  44.232  51.110  1.00  0.00     0.194 C 
ENDBRANCH   2   5
BRANCH   1  15
HETATM   15  C   UNL     1      28.363  39.765  50.126  1.00  0.00     0.126 A 
HETATM   16  N   UNL     1      29.139  38.725  50.569  1.00  0.00    -0.262 N 
HETATM   17  N   UNL     1      28.675  37.516  50.207  1.00  0.00    -0.178 NA
HETATM   18  H   UNL     1      29.990  38.795  51.121  1.00  0.00     0.191 HD
HETATM   19  C   UNL     1      27.561  37.793  49.518  1.00  0.00     0.058 A 
HETATM   20  C   UNL     1      27.329  39.188  49.431  1.00  0.00     0.079 A 
BRANCH  19  21
HETATM   21  C   UNL     1      26.731  36.690  48.952  1.00  0.00     0.056 C 
HETATM   22  C   UNL     1      26.966  36.498  47.461  1.00  0.00     0.011 C 
ENDBRANCH  19  21
ENDBRANCH   1  15
TORSDOF 3
ENDMDL
MODEL 7
REMARK VINA RESULT:      -6.7      6.907      9.185
REMARK  3 active torsions:
REMARK  status: ('A' for Active; 'I' for Inactive)
REMARK    1  A    between atoms: C_2  and  C_3 
REMARK    2  A    between atoms: C_7  and  N_8 
REMARK       I    between atoms: N_8  and  C_9 
REMARK    3  A    between atoms: C_9  and  C_10 
ROOT
HETATM    1  N   UNL     1      29.062  39.982  51.629  1.00  0.00    -0.311 N 
HETATM    2  C   UNL     1      28.548  40.024  50.343  1.00  0.00     0.234 C 
HETATM    3  O   UNL     1      27.878  40.962  49.903  1.00  0.00    -0.272 OA
HETATM    4  H   UNL     1      29.610  39.184  51.934  1.00  0.00     0.170 HD
ENDROOT
BRANCH   2   5
HETATM    5  C   UNL     1      28.903  38.845  49.451  1.00  0.00     0.138 C 
HETATM    6  C   UNL     1      27.809  38.381  48.559  1.00  0.00    -0.008 A 
HETATM    7  C   UNL     1      27.310  37.178  49.036  1.00  0.00     0.076 A 
HETATM    8  C   UNL     1      27.256  38.988  47.443  1.00  0.00     0.030 A 
HETATM    9  C   UNL     1      26.246  36.537  48.435  1.00  0.00     0.039 A 
HETATM   10  O   UNL     1      27.934  36.734  50.169  1.00  0.00    -0.349 OA
HETATM   11  C   UNL     1      25.680  37.130  47.304  1.00  0.00     0.022 A 
HETATM   12  C   UNL     1      26.184  38.346  46.816  1.00  0.00     0.011 A 
HETATM   13 BR   UNL     1      25.390  39.137  45.293  1.00  0.00    -0.051 Br
HETATM   14  C   UNL     1      29.113  37.572  50.277  1.00  0.00     0.194 C 
ENDBRANCH   2   5
BRANCH   1  15
HETATM   15  C   UNL     1      28.812  40.978  52.550  1.00  0.00     0.126 A 
HETATM   16  N   UNL     1      27.632  41.130  53.232  1.00  0.00    -0.262 N 
HETATM   17  N   UNL     1      27.632  42.173  54.081  1.00  0.00    -0.178 NA
HETATM   18  H   UNL     1      26.804  40.546  53.150  1.00  0.00     0.191 HD
HETATM   19  C   UNL     1      28.855  42.699  53.943  1.00  0.00     0.058 A 
HETATM   20  C   UNL     1      29.628  41.992  52.989  1.00  0.00     0.079 A 
BRANCH  19  21
HETATM   21  C   UNL     1      29.260  43.887  54.749  1.00  0.00     0.056 C 
HETATM   22  C   UNL     1      30.588  43.677  55.461  1.00  0.00     0.011 C 
ENDBRANCH  19  21
ENDBRANCH   1  15
TORSDOF 3
ENDMDL
MODEL 8
REMARK VINA RESULT:      -6.5      2.146      2.670
REMARK  3 active torsions:
REMARK  status: ('A' for Active; 'I' for Inactive)
REMARK    1  A    between atoms: C_2  and  C_3 
REMARK    2  A    between atoms: C_7  and  N_8 
REMARK       I    between atoms: N_8  and  C_9 
REMARK    3  A    between atoms: C_9  and  C_10 
ROOT
HETATM    1  N   UNL     1      23.185  46.893  49.484  1.00  0.00    -0.311 N 
HETATM    2  C   UNL     1      24.370  46.578  50.129  1.00  0.00     0.234 C 
HETATM    3  O   UNL     1      25.238  47.407  50.413  1.00  0.00    -0.272 OA
HETATM    4  H   UNL     1      22.506  46.167  49.280  1.00  0.00     0.170 HD
ENDROOT
BRANCH   2   5
HETATM    5  C   UNL     1      24.534  45.121  50.532  1.00  0.00     0.138 C 
HETATM    6  C   UNL     1      25.722  44.833  51.379  1.00  0.00    -0.008 A 
HETATM    7  C   UNL     1      26.675  44.172  50.621  1.00  0.00     0.076 A 
HETATM    8  C   UNL     1      25.971  45.169  52.700  1.00  0.00     0.030 A 
HETATM    9  C   UNL     1      27.909  43.825  51.134  1.00  0.00     0.039 A 
HETATM   10  O   UNL     1      26.293  43.953  49.325  1.00  0.00    -0.349 OA
HETATM   11  C   UNL     1      28.176  44.150  52.466  1.00  0.00     0.022 A 
HETATM   12  C   UNL     1      27.212  44.817  53.239  1.00  0.00     0.011 A 
HETATM   13 BR   UNL     1      27.604  45.258  55.035  1.00  0.00    -0.051 Br
HETATM   14  C   UNL     1      24.872  44.248  49.319  1.00  0.00     0.194 C 
ENDBRANCH   2   5
BRANCH   1  15
HETATM   15  C   UNL     1      22.906  48.174  49.052  1.00  0.00     0.126 A 
HETATM   16  N   UNL     1      23.778  48.968  48.353  1.00  0.00    -0.262 N 
HETATM   17  N   UNL     1      23.273  50.174  48.038  1.00  0.00    -0.178 NA
HETATM   18  H   UNL     1      24.724  48.726  48.070  1.00  0.00     0.191 HD
HETATM   19  C   UNL     1      22.035  50.145  48.544  1.00  0.00     0.058 A 
HETATM   20  C   UNL     1      21.761  48.918  49.197  1.00  0.00     0.079 A 
BRANCH  19  21
HETATM   21  C   UNL     1      21.127  51.318  48.383  1.00  0.00     0.056 C 
HETATM   22  C   UNL     1      20.005  51.325  49.411  1.00  0.00     0.011 C 
ENDBRANCH  19  21
ENDBRANCH   1  15
TORSDOF 3
ENDMDL
MODEL 9
REMARK VINA RESULT:      -6.5     10.620     14.530
REMARK  3 active torsions:
REMARK  status: ('A' for Active; 'I' for Inactive)
REMARK    1  A    between atoms: C_2  and  C_3 
REMARK    2  A    between atoms: C_7  and  N_8 
REMARK       I    between atoms: N_8  and  C_9 
REMARK    3  A    between atoms: C_9  and  C_10 
ROOT
HETATM    1  N   UNL     1      16.033  53.741  49.633  1.00  0.00    -0.311 N 
HETATM    2  C   UNL     1      14.775  53.774  50.212  1.00  0.00     0.234 C 
HETATM    3  O   UNL     1      14.234  52.796  50.733  1.00  0.00    -0.272 OA
HETATM    4  H   UNL     1      16.428  54.581  49.222  1.00  0.00     0.170 HD
ENDROOT
BRANCH   2   5
HETATM    5  C   UNL     1      14.090  55.131  50.224  1.00  0.00     0.138 C 
HETATM    6  C   UNL     1      14.038  55.797  51.553  1.00  0.00    -0.008 A 
HETATM    7  C   UNL     1      12.743  55.740  52.043  1.00  0.00     0.076 A 
HETATM    8  C   UNL     1      15.057  56.366  52.300  1.00  0.00     0.030 A 
HETATM    9  C   UNL     1      12.407  56.233  53.287  1.00  0.00     0.039 A 
HETATM   10  O   UNL     1      11.865  55.109  51.204  1.00  0.00    -0.349 OA
HETATM   11  C   UNL     1      13.420  56.816  54.053  1.00  0.00     0.022 A 
HETATM   12  C   UNL     1      14.733  56.879  53.559  1.00  0.00     0.011 A 
HETATM   13 BR   UNL     1      16.089  57.660  54.621  1.00  0.00    -0.051 Br
HETATM   14  C   UNL     1      12.589  54.995  49.952  1.00  0.00     0.194 C 
ENDBRANCH   2   5
BRANCH   1  15
HETATM   15  C   UNL     1      16.766  52.575  49.541  1.00  0.00     0.126 A 
HETATM   16  N   UNL     1      16.258  51.364  49.147  1.00  0.00    -0.262 N 
HETATM   17  N   UNL     1      17.171  50.377  49.132  1.00  0.00    -0.178 NA
HETATM   18  H   UNL     1      15.297  51.168  48.878  1.00  0.00     0.191 HD
HETATM   19  C   UNL     1      18.301  50.979  49.522  1.00  0.00     0.058 A 
HETATM   20  C   UNL     1      18.096  52.354  49.799  1.00  0.00     0.079 A 
BRANCH  19  21
HETATM   21  C   UNL     1      19.573  50.206  49.616  1.00  0.00     0.056 C 
HETATM   22  C   UNL     1      20.691  51.011  50.265  1.00  0.00     0.011 C 
ENDBRANCH  19  21
ENDBRANCH   1  15
TORSDOF 3
ENDMDL
MODEL 10
REMARK VINA RESULT:      -6.5     12.203     13.387
REMARK  3 active torsions:
REMARK  status: ('A' for Active; 'I' for Inactive)
REMARK    1  A    between atoms: C_2  and  C_3 
REMARK    2  A    between atoms: C_7  and  N_8 
REMARK       I    between atoms: N_8  and  C_9 
REMARK    3  A    between atoms: C_9  and  C_10 
ROOT
HETATM    1  N   UNL     1      30.089  49.306  40.550  1.00  0.00    -0.311 N 
HETATM    2  C   UNL     1      30.768  50.069  39.614  1.00  0.00     0.234 C 
HETATM    3  O   UNL     1      31.000  49.694  38.462  1.00  0.00    -0.272 OA
HETATM    4  H   UNL     1      29.924  49.670  41.483  1.00  0.00     0.170 HD
ENDROOT
BRANCH   2   5
HETATM    5  C   UNL     1      31.182  51.458  40.071  1.00  0.00     0.138 C 
HETATM    6  C   UNL     1      32.201  51.486  41.153  1.00  0.00    -0.008 A 
HETATM    7  C   UNL     1      31.594  51.863  42.342  1.00  0.00     0.076 A 
HETATM    8  C   UNL     1      33.546  51.157  41.115  1.00  0.00     0.030 A 
HETATM    9  C   UNL     1      32.289  51.922  43.533  1.00  0.00     0.039 A 
HETATM   10  O   UNL     1      30.254  52.112  42.221  1.00  0.00    -0.349 OA
HETATM   11  C   UNL     1      33.648  51.600  43.512  1.00  0.00     0.022 A 
HETATM   12  C   UNL     1      34.267  51.221  42.310  1.00  0.00     0.011 A 
HETATM   13 BR   UNL     1      36.105  50.776  42.312  1.00  0.00    -0.051 Br
HETATM   14  C   UNL     1      30.031  52.170  40.788  1.00  0.00     0.194 C 
ENDBRANCH   2   5
BRANCH   1  15
HETATM   15  C   UNL     1      29.662  48.022  40.277  1.00  0.00     0.126 A 
HETATM   16  N   UNL     1      30.442  47.045  39.715  1.00  0.00    -0.262 N 
HETATM   17  N   UNL     1      29.803  45.873  39.553  1.00  0.00    -0.178 NA
HETATM   18  H   UNL     1      31.414  47.134  39.428  1.00  0.00     0.191 HD
HETATM   19  C   UNL     1      28.577  46.107  40.037  1.00  0.00     0.058 A 
HETATM   20  C   UNL     1      28.437  47.441  40.493  1.00  0.00     0.079 A 
BRANCH  19  21
HETATM   21  C   UNL     1      27.552  45.023  40.052  1.00  0.00     0.056 C 
HETATM   22  C   UNL     1      28.132  43.676  39.643  1.00  0.00     0.011 C 
ENDBRANCH  19  21
ENDBRANCH   1  15
TORSDOF 3
ENDMDL
