MODEL 1
REMARK VINA RESULT:      -9.3      0.000      0.000
REMARK  5 active torsions:
REMARK  status: ('A' for Active; 'I' for Inactive)
REMARK    1  A    between atoms: C_9  and  N_10 
REMARK       I    between atoms: N_10  and  C_11 
REMARK    2  A    between atoms: C_11  and  C_12 
REMARK    3  A    between atoms: C_14  and  C_15 
REMARK    4  A    between atoms: C_15  and  O_16 
REMARK    5  A    between atoms: O_16  and  C_17 
ROOT
HETATM    1  N   UNL     1      22.397  49.558  48.855  1.00  0.00    -0.321 N 
HETATM    2  C   UNL     1      23.654  49.619  48.263  1.00  0.00     0.279 C 
HETATM    3  O   UNL     1      23.892  50.236  47.227  1.00  0.00    -0.265 OA
HETATM    4  H   UNL     1      22.367  49.170  49.788  1.00  0.00     0.169 HD
ENDROOT
BRANCH   2   5
HETATM    5  C   UNL     1      24.685  48.933  49.022  1.00  0.00     0.143 A 
HETATM    6  O   UNL     1      24.290  48.163  50.081  1.00  0.00    -0.307 OA
HETATM    7  C   UNL     1      25.404  47.592  50.621  1.00  0.00     0.078 A 
HETATM    8  C   UNL     1      26.523  48.007  49.932  1.00  0.00     0.038 A 
HETATM    9  C   UNL     1      26.063  48.863  48.899  1.00  0.00     0.045 A 
BRANCH   7  10
HETATM   10  C   UNL     1      25.185  46.667  51.763  1.00  0.00     0.240 C 
BRANCH  10  11
HETATM   11  O   UNL     1      25.591  47.358  52.941  1.00  0.00    -0.345 OA
BRANCH  11  12
HETATM   12  C   UNL     1      26.619  46.800  53.652  1.00  0.00     0.069 A 
HETATM   13  C   UNL     1      27.413  47.457  54.598  1.00  0.00     0.040 A 
HETATM   14  C   UNL     1      28.438  46.766  55.251  1.00  0.00     0.045 A 
HETATM   15  C   UNL     1      28.662  45.427  54.960  1.00  0.00     0.116 A 
HETATM   16  F   UNL     1      29.648  44.771  55.587  1.00  0.00    -0.206 F 
HETATM   17  C   UNL     1      27.877  44.758  54.030  1.00  0.00     0.045 A 
HETATM   18  C   UNL     1      26.853  45.448  53.378  1.00  0.00     0.040 A 
ENDBRANCH  11  12
ENDBRANCH  10  11
ENDBRANCH   7  10
ENDBRANCH   2   5
BRANCH   1  19
HETATM   19  C   UNL     1      21.208  50.145  48.376  1.00  0.00     0.035 A 
HETATM   20  C   UNL     1      20.381  49.543  47.422  1.00  0.00     0.039 A 
HETATM   21  C   UNL     1      19.243  50.215  46.999  1.00  0.00    -0.022 A 
HETATM   22  C   UNL     1      18.218  49.748  46.024  1.00  0.00     0.274 C 
HETATM   23  C   UNL     1      18.908  51.469  47.511  1.00  0.00    -0.025 A 
HETATM   24  N   UNL     1      17.333  50.967  45.785  1.00  0.00    -0.067 N 
HETATM   25  C   UNL     1      15.891  50.653  45.614  1.00  0.00     0.270 C 
HETATM   26  H   UNL     1      17.682  51.398  44.921  1.00  0.00     0.280 HD
HETATM   27  C   UNL     1      17.638  51.956  46.905  1.00  0.00     0.273 C 
HETATM   28  C   UNL     1      19.699  52.073  48.472  1.00  0.00     0.012 A 
HETATM   29  C   UNL     1      20.849  51.401  48.906  1.00  0.00     0.030 A 
ENDBRANCH   1  19
TORSDOF 5
ENDMDL
MODEL 2
REMARK VINA RESULT:      -9.3      4.440     11.274
REMARK  5 active torsions:
REMARK  status: ('A' for Active; 'I' for Inactive)
REMARK    1  A    between atoms: C_9  and  N_10 
REMARK       I    between atoms: N_10  and  C_11 
REMARK    2  A    between atoms: C_11  and  C_12 
REMARK    3  A    between atoms: C_14  and  C_15 
REMARK    4  A    between atoms: C_15  and  O_16 
REMARK    5  A    between atoms: O_16  and  C_17 
ROOT
HETATM    1  N   UNL     1      26.792  44.746  52.186  1.00  0.00    -0.321 N 
HETATM    2  C   UNL     1      25.419  44.582  52.340  1.00  0.00     0.279 C 
HETATM    3  O   UNL     1      24.892  44.169  53.371  1.00  0.00    -0.265 OA
HETATM    4  H   UNL     1      27.085  45.254  51.361  1.00  0.00     0.169 HD
ENDROOT
BRANCH   2   5
HETATM    5  C   UNL     1      24.651  45.007  51.183  1.00  0.00     0.143 A 
HETATM    6  O   UNL     1      24.718  46.326  50.825  1.00  0.00    -0.307 OA
HETATM    7  C   UNL     1      23.957  46.494  49.706  1.00  0.00     0.078 A 
HETATM    8  C   UNL     1      23.376  45.295  49.351  1.00  0.00     0.038 A 
HETATM    9  C   UNL     1      23.827  44.337  50.294  1.00  0.00     0.045 A 
BRANCH   7  10
HETATM   10  C   UNL     1      23.937  47.858  49.119  1.00  0.00     0.240 C 
BRANCH  10  11
HETATM   11  O   UNL     1      22.887  47.881  48.155  1.00  0.00    -0.345 OA
BRANCH  11  12
HETATM   12  C   UNL     1      22.066  48.976  48.174  1.00  0.00     0.069 A 
HETATM   13  C   UNL     1      20.782  49.047  47.624  1.00  0.00     0.040 A 
HETATM   14  C   UNL     1      20.050  50.236  47.710  1.00  0.00     0.045 A 
HETATM   15  C   UNL     1      20.601  51.342  48.344  1.00  0.00     0.116 A 
HETATM   16  F   UNL     1      19.896  52.478  48.419  1.00  0.00    -0.206 F 
HETATM   17  C   UNL     1      21.872  51.284  48.901  1.00  0.00     0.045 A 
HETATM   18  C   UNL     1      22.602  50.097  48.816  1.00  0.00     0.040 A 
ENDBRANCH  11  12
ENDBRANCH  10  11
ENDBRANCH   7  10
ENDBRANCH   2   5
BRANCH   1  19
HETATM   19  C   UNL     1      27.791  44.450  53.135  1.00  0.00     0.035 A 
HETATM   20  C   UNL     1      28.082  45.271  54.228  1.00  0.00     0.039 A 
HETATM   21  C   UNL     1      29.102  44.901  55.093  1.00  0.00    -0.022 A 
HETATM   22  C   UNL     1      29.554  45.606  56.326  1.00  0.00     0.274 C 
HETATM   23  C   UNL     1      29.833  43.729  54.895  1.00  0.00    -0.025 A 
HETATM   24  N   UNL     1      30.829  44.879  56.738  1.00  0.00    -0.067 N 
HETATM   25  C   UNL     1      31.007  44.739  58.207  1.00  0.00     0.270 C 
HETATM   26  H   UNL     1      31.602  45.441  56.364  1.00  0.00     0.280 HD
HETATM   27  C   UNL     1      30.851  43.562  55.970  1.00  0.00     0.273 C 
HETATM   28  C   UNL     1      29.548  42.891  53.832  1.00  0.00     0.012 A 
HETATM   29  C   UNL     1      28.518  43.256  52.956  1.00  0.00     0.030 A 
ENDBRANCH   1  19
TORSDOF 5
ENDMDL
MODEL 3
REMARK VINA RESULT:      -9.0      4.208     10.461
REMARK  5 active torsions:
REMARK  status: ('A' for Active; 'I' for Inactive)
REMARK    1  A    between atoms: C_9  and  N_10 
REMARK       I    between atoms: N_10  and  C_11 
REMARK    2  A    between atoms: C_11  and  C_12 
REMARK    3  A    between atoms: C_14  and  C_15 
REMARK    4  A    between atoms: C_15  and  O_16 
REMARK    5  A    between atoms: O_16  and  C_17 
ROOT
HETATM    1  N   UNL     1      25.161  46.883  51.659  1.00  0.00    -0.321 N 
HETATM    2  C   UNL     1      25.422  47.522  50.451  1.00  0.00     0.279 C 
HETATM    3  O   UNL     1      26.553  47.786  50.049  1.00  0.00    -0.265 OA
HETATM    4  H   UNL     1      24.210  46.566  51.794  1.00  0.00     0.169 HD
ENDROOT
BRANCH   2   5
HETATM    5  C   UNL     1      24.228  47.794  49.670  1.00  0.00     0.143 A 
HETATM    6  O   UNL     1      23.936  49.099  49.387  1.00  0.00    -0.307 OA
HETATM    7  C   UNL     1      22.807  49.119  48.624  1.00  0.00     0.078 A 
HETATM    8  C   UNL     1      22.349  47.833  48.432  1.00  0.00     0.038 A 
HETATM    9  C   UNL     1      23.265  46.979  49.097  1.00  0.00     0.045 A 
BRANCH   7  10
HETATM   10  C   UNL     1      22.345  50.453  48.161  1.00  0.00     0.240 C 
BRANCH  10  11
HETATM   11  O   UNL     1      21.790  51.118  49.294  1.00  0.00    -0.345 OA
BRANCH  11  12
HETATM   12  C   UNL     1      20.424  51.137  49.382  1.00  0.00     0.069 A 
HETATM   13  C   UNL     1      19.642  50.292  50.176  1.00  0.00     0.040 A 
HETATM   14  C   UNL     1      18.249  50.416  50.168  1.00  0.00     0.045 A 
HETATM   15  C   UNL     1      17.647  51.382  49.371  1.00  0.00     0.116 A 
HETATM   16  F   UNL     1      16.313  51.493  49.365  1.00  0.00    -0.206 F 
HETATM   17  C   UNL     1      18.411  52.233  48.583  1.00  0.00     0.045 A 
HETATM   18  C   UNL     1      19.801  52.109  48.592  1.00  0.00     0.040 A 
ENDBRANCH  11  12
ENDBRANCH  10  11
ENDBRANCH   7  10
ENDBRANCH   2   5
BRANCH   1  19
HETATM   19  C   UNL     1      26.108  46.467  52.617  1.00  0.00     0.035 A 
HETATM   20  C   UNL     1      26.800  45.255  52.543  1.00  0.00     0.039 A 
HETATM   21  C   UNL     1      27.695  44.928  53.551  1.00  0.00    -0.022 A 
HETATM   22  C   UNL     1      28.551  43.714  53.653  1.00  0.00     0.274 C 
HETATM   23  C   UNL     1      27.919  45.787  54.628  1.00  0.00    -0.025 A 
HETATM   24  N   UNL     1      29.151  43.783  55.053  1.00  0.00    -0.067 N 
HETATM   25  C   UNL     1      30.555  43.306  55.143  1.00  0.00     0.270 C 
HETATM   26  H   UNL     1      28.560  43.181  55.638  1.00  0.00     0.280 HD
HETATM   27  C   UNL     1      28.933  45.207  55.553  1.00  0.00     0.273 C 
HETATM   28  C   UNL     1      27.262  47.001  54.712  1.00  0.00     0.012 A 
HETATM   29  C   UNL     1      26.359  47.339  53.696  1.00  0.00     0.030 A 
ENDBRANCH   1  19
TORSDOF 5
ENDMDL
MODEL 4
REMARK VINA RESULT:      -8.9      1.666      2.053
REMARK  5 active torsions:
REMARK  status: ('A' for Active; 'I' for Inactive)
REMARK    1  A    between atoms: C_9  and  N_10 
REMARK       I    between atoms: N_10  and  C_11 
REMARK    2  A    between atoms: C_11  and  C_12 
REMARK    3  A    between atoms: C_14  and  C_15 
REMARK    4  A    between atoms: C_15  and  O_16 
REMARK    5  A    between atoms: O_16  and  C_17 
ROOT
HETATM    1  N   UNL     1      22.629  48.699  49.869  1.00  0.00    -0.321 N 
HETATM    2  C   UNL     1      23.342  47.746  49.150  1.00  0.00     0.279 C 
HETATM    3  O   UNL     1      23.108  47.459  47.978  1.00  0.00    -0.265 OA
HETATM    4  H   UNL     1      23.026  48.968  50.760  1.00  0.00     0.169 HD
ENDROOT
BRANCH   2   5
HETATM    5  C   UNL     1      24.442  47.161  49.896  1.00  0.00     0.143 A 
HETATM    6  O   UNL     1      24.665  47.619  51.165  1.00  0.00    -0.307 OA
HETATM    7  C   UNL     1      25.710  46.915  51.686  1.00  0.00     0.078 A 
HETATM    8  C   UNL     1      26.183  46.020  50.751  1.00  0.00     0.038 A 
HETATM    9  C   UNL     1      25.365  46.170  49.603  1.00  0.00     0.045 A 
BRANCH   7  10
HETATM   10  C   UNL     1      26.083  47.227  53.090  1.00  0.00     0.240 C 
BRANCH  10  11
HETATM   11  O   UNL     1      26.025  46.003  53.817  1.00  0.00    -0.345 OA
BRANCH  11  12
HETATM   12  C   UNL     1      27.217  45.511  54.279  1.00  0.00     0.069 A 
HETATM   13  C   UNL     1      27.772  44.269  53.953  1.00  0.00     0.040 A 
HETATM   14  C   UNL     1      29.000  43.887  54.502  1.00  0.00     0.045 A 
HETATM   15  C   UNL     1      29.666  44.745  55.367  1.00  0.00     0.116 A 
HETATM   16  F   UNL     1      30.841  44.371  55.892  1.00  0.00    -0.206 F 
HETATM   17  C   UNL     1      29.131  45.984  55.694  1.00  0.00     0.045 A 
HETATM   18  C   UNL     1      27.906  46.366  55.145  1.00  0.00     0.040 A 
ENDBRANCH  11  12
ENDBRANCH  10  11
ENDBRANCH   7  10
ENDBRANCH   2   5
BRANCH   1  19
HETATM   19  C   UNL     1      21.530  49.456  49.412  1.00  0.00     0.035 A 
HETATM   20  C   UNL     1      20.219  48.971  49.383  1.00  0.00     0.039 A 
HETATM   21  C   UNL     1      19.211  49.789  48.893  1.00  0.00    -0.022 A 
HETATM   22  C   UNL     1      17.755  49.487  48.802  1.00  0.00     0.274 C 
HETATM   23  C   UNL     1      19.481  51.080  48.437  1.00  0.00    -0.025 A 
HETATM   24  N   UNL     1      17.174  50.641  47.992  1.00  0.00    -0.067 N 
HETATM   25  C   UNL     1      15.825  51.081  48.433  1.00  0.00     0.270 C 
HETATM   26  H   UNL     1      17.110  50.298  47.027  1.00  0.00     0.280 HD
HETATM   27  C   UNL     1      18.227  51.744  47.983  1.00  0.00     0.273 C 
HETATM   28  C   UNL     1      20.767  51.588  48.477  1.00  0.00     0.012 A 
HETATM   29  C   UNL     1      21.790  50.769  48.973  1.00  0.00     0.030 A 
ENDBRANCH   1  19
TORSDOF 5
ENDMDL
MODEL 5
REMARK VINA RESULT:      -8.6      2.558      3.028
REMARK  5 active torsions:
REMARK  status: ('A' for Active; 'I' for Inactive)
REMARK    1  A    between atoms: C_9  and  N_10 
REMARK       I    between atoms: N_10  and  C_11 
REMARK    2  A    between atoms: C_11  and  C_12 
REMARK    3  A    between atoms: C_14  and  C_15 
REMARK    4  A    between atoms: C_15  and  O_16 
REMARK    5  A    between atoms: O_16  and  C_17 
ROOT
HETATM    1  N   UNL     1      22.686  47.787  49.417  1.00  0.00    -0.321 N 
HETATM    2  C   UNL     1      22.726  46.630  48.648  1.00  0.00     0.279 C 
HETATM    3  O   UNL     1      22.041  46.454  47.642  1.00  0.00    -0.265 OA
HETATM    4  H   UNL     1      23.418  47.882  50.110  1.00  0.00     0.169 HD
ENDROOT
BRANCH   2   5
HETATM    5  C   UNL     1      23.708  45.663  49.106  1.00  0.00     0.143 A 
HETATM    6  O   UNL     1      24.359  45.924  50.280  1.00  0.00    -0.307 OA
HETATM    7  C   UNL     1      25.199  44.881  50.534  1.00  0.00     0.078 A 
HETATM    8  C   UNL     1      25.115  43.955  49.516  1.00  0.00     0.038 A 
HETATM    9  C   UNL     1      24.152  44.451  48.602  1.00  0.00     0.045 A 
BRANCH   7  10
HETATM   10  C   UNL     1      25.969  44.946  51.803  1.00  0.00     0.240 C 
BRANCH  10  11
HETATM   11  O   UNL     1      27.297  44.522  51.506  1.00  0.00    -0.345 OA
BRANCH  11  12
HETATM   12  C   UNL     1      28.078  44.171  52.573  1.00  0.00     0.069 A 
HETATM   13  C   UNL     1      28.016  44.730  53.854  1.00  0.00     0.040 A 
HETATM   14  C   UNL     1      28.881  44.279  54.856  1.00  0.00     0.045 A 
HETATM   15  C   UNL     1      29.797  43.274  54.576  1.00  0.00     0.116 A 
HETATM   16  F   UNL     1      30.625  42.849  55.540  1.00  0.00    -0.206 F 
HETATM   17  C   UNL     1      29.865  42.703  53.312  1.00  0.00     0.045 A 
HETATM   18  C   UNL     1      29.002  43.153  52.312  1.00  0.00     0.040 A 
ENDBRANCH  11  12
ENDBRANCH  10  11
ENDBRANCH   7  10
ENDBRANCH   2   5
BRANCH   1  19
HETATM   19  C   UNL     1      21.862  48.912  49.211  1.00  0.00     0.035 A 
HETATM   20  C   UNL     1      20.514  48.958  49.580  1.00  0.00     0.039 A 
HETATM   21  C   UNL     1      19.783  50.106  49.311  1.00  0.00    -0.022 A 
HETATM   22  C   UNL     1      18.356  50.377  49.644  1.00  0.00     0.274 C 
HETATM   23  C   UNL     1      20.367  51.210  48.690  1.00  0.00    -0.025 A 
HETATM   24  N   UNL     1      18.036  51.683  48.925  1.00  0.00    -0.067 N 
HETATM   25  C   UNL     1      17.126  52.588  49.674  1.00  0.00     0.270 C 
HETATM   26  H   UNL     1      17.580  51.411  48.046  1.00  0.00     0.280 HD
HETATM   27  C   UNL     1      19.371  52.308  48.535  1.00  0.00     0.273 C 
HETATM   28  C   UNL     1      21.704  51.195  48.336  1.00  0.00     0.012 A 
HETATM   29  C   UNL     1      22.450  50.041  48.606  1.00  0.00     0.030 A 
ENDBRANCH   1  19
TORSDOF 5
ENDMDL
MODEL 6
REMARK VINA RESULT:      -8.5      4.168      9.967
REMARK  5 active torsions:
REMARK  status: ('A' for Active; 'I' for Inactive)
REMARK    1  A    between atoms: C_9  and  N_10 
REMARK       I    between atoms: N_10  and  C_11 
REMARK    2  A    between atoms: C_11  and  C_12 
REMARK    3  A    between atoms: C_14  and  C_15 
REMARK    4  A    between atoms: C_15  and  O_16 
REMARK    5  A    between atoms: O_16  and  C_17 
ROOT
HETATM    1  N   UNL     1      24.665  47.277  50.635  1.00  0.00    -0.321 N 
HETATM    2  C   UNL     1      25.252  48.145  49.720  1.00  0.00     0.279 C 
HETATM    3  O   UNL     1      26.465  48.241  49.551  1.00  0.00    -0.265 OA
HETATM    4  H   UNL     1      23.662  47.165  50.555  1.00  0.00     0.169 HD
ENDROOT
BRANCH   2   5
HETATM    5  C   UNL     1      24.289  48.889  48.927  1.00  0.00     0.143 A 
HETATM    6  O   UNL     1      23.056  48.329  48.733  1.00  0.00    -0.307 OA
HETATM    7  C   UNL     1      22.311  49.203  47.999  1.00  0.00     0.078 A 
HETATM    8  C   UNL     1      23.063  50.317  47.694  1.00  0.00     0.038 A 
HETATM    9  C   UNL     1      24.332  50.121  48.295  1.00  0.00     0.045 A 
BRANCH   7  10
HETATM   10  C   UNL     1      20.907  48.804  47.720  1.00  0.00     0.240 C 
BRANCH  10  11
HETATM   11  O   UNL     1      20.214  48.821  48.965  1.00  0.00    -0.345 OA
BRANCH  11  12
HETATM   12  C   UNL     1      19.358  49.869  49.172  1.00  0.00     0.069 A 
HETATM   13  C   UNL     1      19.704  51.120  49.693  1.00  0.00     0.040 A 
HETATM   14  C   UNL     1      18.724  52.104  49.858  1.00  0.00     0.045 A 
HETATM   15  C   UNL     1      17.410  51.836  49.500  1.00  0.00     0.116 A 
HETATM   16  F   UNL     1      16.476  52.782  49.663  1.00  0.00    -0.206 F 
HETATM   17  C   UNL     1      17.052  50.601  48.974  1.00  0.00     0.045 A 
HETATM   18  C   UNL     1      18.030  49.619  48.809  1.00  0.00     0.040 A 
ENDBRANCH  11  12
ENDBRANCH  10  11
ENDBRANCH   7  10
ENDBRANCH   2   5
BRANCH   1  19
HETATM   19  C   UNL     1      25.330  46.408  51.523  1.00  0.00     0.035 A 
HETATM   20  C   UNL     1      25.671  45.091  51.202  1.00  0.00     0.039 A 
HETATM   21  C   UNL     1      26.305  44.309  52.157  1.00  0.00    -0.022 A 
HETATM   22  C   UNL     1      26.780  42.904  52.017  1.00  0.00     0.274 C 
HETATM   23  C   UNL     1      26.612  44.814  53.421  1.00  0.00    -0.025 A 
HETATM   24  N   UNL     1      27.188  42.494  53.428  1.00  0.00    -0.067 N 
HETATM   25  C   UNL     1      28.387  41.618  53.489  1.00  0.00     0.270 C 
HETATM   26  H   UNL     1      26.385  41.982  53.811  1.00  0.00     0.280 HD
HETATM   27  C   UNL     1      27.301  43.778  54.242  1.00  0.00     0.273 C 
HETATM   28  C   UNL     1      26.303  46.121  53.753  1.00  0.00     0.012 A 
HETATM   29  C   UNL     1      25.665  46.918  52.794  1.00  0.00     0.030 A 
ENDBRANCH   1  19
TORSDOF 5
ENDMDL
MODEL 7
REMARK VINA RESULT:      -8.3      4.255     10.108
REMARK  5 active torsions:
REMARK  status: ('A' for Active; 'I' for Inactive)
REMARK    1  A    between atoms: C_9  and  N_10 
REMARK       I    between atoms: N_10  and  C_11 
REMARK    2  A    between atoms: C_11  and  C_12 
REMARK    3  A    between atoms: C_14  and  C_15 
REMARK    4  A    between atoms: C_15  and  O_16 
REMARK    5  A    between atoms: O_16  and  C_17 
ROOT
HETATM    1  N   UNL     1      24.481  45.705  51.380  1.00  0.00    -0.321 N 
HETATM    2  C   UNL     1      24.654  45.575  50.006  1.00  0.00     0.279 C 
HETATM    3  O   UNL     1      25.753  45.509  49.459  1.00  0.00    -0.265 OA
HETATM    4  H   UNL     1      23.538  45.571  51.720  1.00  0.00     0.169 HD
ENDROOT
BRANCH   2   5
HETATM    5  C   UNL     1      23.405  45.457  49.274  1.00  0.00     0.143 A 
HETATM    6  O   UNL     1      22.833  46.605  48.802  1.00  0.00    -0.307 OA
HETATM    7  C   UNL     1      21.701  46.261  48.124  1.00  0.00     0.078 A 
HETATM    8  C   UNL     1      21.523  44.895  48.176  1.00  0.00     0.038 A 
HETATM    9  C   UNL     1      22.621  44.375  48.907  1.00  0.00     0.045 A 
BRANCH   7  10
HETATM   10  C   UNL     1      20.951  47.371  47.482  1.00  0.00     0.240 C 
BRANCH  10  11
HETATM   11  O   UNL     1      21.588  48.585  47.872  1.00  0.00    -0.345 OA
BRANCH  11  12
HETATM   12  C   UNL     1      20.811  49.496  48.535  1.00  0.00     0.069 A 
HETATM   13  C   UNL     1      20.018  49.235  49.658  1.00  0.00     0.040 A 
HETATM   14  C   UNL     1      19.266  50.262  50.236  1.00  0.00     0.045 A 
HETATM   15  C   UNL     1      19.312  51.540  49.695  1.00  0.00     0.116 A 
HETATM   16  F   UNL     1      18.586  52.518  50.252  1.00  0.00    -0.206 F 
HETATM   17  C   UNL     1      20.101  51.817  48.586  1.00  0.00     0.045 A 
HETATM   18  C   UNL     1      20.852  50.791  48.009  1.00  0.00     0.040 A 
ENDBRANCH  11  12
ENDBRANCH  10  11
ENDBRANCH   7  10
ENDBRANCH   2   5
BRANCH   1  19
HETATM   19  C   UNL     1      25.495  45.814  52.353  1.00  0.00     0.035 A 
HETATM   20  C   UNL     1      26.304  44.743  52.747  1.00  0.00     0.039 A 
HETATM   21  C   UNL     1      27.260  44.950  53.731  1.00  0.00    -0.022 A 
HETATM   22  C   UNL     1      28.238  43.966  54.273  1.00  0.00     0.274 C 
HETATM   23  C   UNL     1      27.430  46.200  54.327  1.00  0.00    -0.025 A 
HETATM   24  N   UNL     1      28.872  44.672  55.466  1.00  0.00    -0.067 N 
HETATM   25  C   UNL     1      30.320  44.390  55.647  1.00  0.00     0.270 C 
HETATM   26  H   UNL     1      28.364  44.333  56.292  1.00  0.00     0.280 HD
HETATM   27  C   UNL     1      28.527  46.151  55.334  1.00  0.00     0.273 C 
HETATM   28  C   UNL     1      26.656  47.278  53.938  1.00  0.00     0.012 A 
HETATM   29  C   UNL     1      25.691  47.079  52.942  1.00  0.00     0.030 A 
ENDBRANCH   1  19
TORSDOF 5
ENDMDL
MODEL 8
REMARK VINA RESULT:      -8.2     11.572     14.987
REMARK  5 active torsions:
REMARK  status: ('A' for Active; 'I' for Inactive)
REMARK    1  A    between atoms: C_9  and  N_10 
REMARK       I    between atoms: N_10  and  C_11 
REMARK    2  A    between atoms: C_11  and  C_12 
REMARK    3  A    between atoms: C_14  and  C_15 
REMARK    4  A    between atoms: C_15  and  O_16 
REMARK    5  A    between atoms: O_16  and  C_17 
ROOT
HETATM    1  N   UNL     1      32.103  49.815  41.717  1.00  0.00    -0.321 N 
HETATM    2  C   UNL     1      32.156  48.502  41.261  1.00  0.00     0.279 C 
HETATM    3  O   UNL     1      33.148  47.784  41.363  1.00  0.00    -0.265 OA
HETATM    4  H   UNL     1      31.184  50.239  41.734  1.00  0.00     0.169 HD
ENDROOT
BRANCH   2   5
HETATM    5  C   UNL     1      30.900  48.031  40.705  1.00  0.00     0.143 A 
HETATM    6  O   UNL     1      29.742  48.541  41.225  1.00  0.00    -0.307 OA
HETATM    7  C   UNL     1      28.699  47.993  40.541  1.00  0.00     0.078 A 
HETATM    8  C   UNL     1      29.173  47.108  39.595  1.00  0.00     0.038 A 
HETATM    9  C   UNL     1      30.587  47.137  39.694  1.00  0.00     0.045 A 
BRANCH   7  10
HETATM   10  C   UNL     1      27.341  48.460  40.920  1.00  0.00     0.240 C 
BRANCH  10  11
HETATM   11  O   UNL     1      26.909  49.356  39.900  1.00  0.00    -0.345 OA
BRANCH  11  12
HETATM   12  C   UNL     1      27.543  50.568  39.844  1.00  0.00     0.069 A 
HETATM   13  C   UNL     1      28.157  51.121  38.715  1.00  0.00     0.040 A 
HETATM   14  C   UNL     1      28.776  52.372  38.798  1.00  0.00     0.045 A 
HETATM   15  C   UNL     1      28.777  53.063  40.003  1.00  0.00     0.116 A 
HETATM   16  F   UNL     1      29.375  54.259  40.077  1.00  0.00    -0.206 F 
HETATM   17  C   UNL     1      28.165  52.530  41.130  1.00  0.00     0.045 A 
HETATM   18  C   UNL     1      27.546  51.282  41.047  1.00  0.00     0.040 A 
ENDBRANCH  11  12
ENDBRANCH  10  11
ENDBRANCH   7  10
ENDBRANCH   2   5
BRANCH   1  19
HETATM   19  C   UNL     1      33.146  50.542  42.326  1.00  0.00     0.035 A 
HETATM   20  C   UNL     1      34.444  50.607  41.810  1.00  0.00     0.039 A 
HETATM   21  C   UNL     1      35.405  51.332  42.499  1.00  0.00    -0.022 A 
HETATM   22  C   UNL     1      36.827  51.556  42.116  1.00  0.00     0.274 C 
HETATM   23  C   UNL     1      35.100  51.997  43.687  1.00  0.00    -0.025 A 
HETATM   24  N   UNL     1      37.453  52.224  43.335  1.00  0.00    -0.067 N 
HETATM   25  C   UNL     1      38.462  53.266  43.013  1.00  0.00     0.270 C 
HETATM   26  H   UNL     1      37.913  51.470  43.859  1.00  0.00     0.280 HD
HETATM   27  C   UNL     1      36.301  52.707  44.209  1.00  0.00     0.273 C 
HETATM   28  C   UNL     1      33.817  51.964  44.205  1.00  0.00     0.012 A 
HETATM   29  C   UNL     1      32.840  51.237  43.514  1.00  0.00     0.030 A 
ENDBRANCH   1  19
TORSDOF 5
ENDMDL
MODEL 9
REMARK VINA RESULT:      -8.2      4.456     10.709
REMARK  5 active torsions:
REMARK  status: ('A' for Active; 'I' for Inactive)
REMARK    1  A    between atoms: C_9  and  N_10 
REMARK       I    between atoms: N_10  and  C_11 
REMARK    2  A    between atoms: C_11  and  C_12 
REMARK    3  A    between atoms: C_14  and  C_15 
REMARK    4  A    between atoms: C_15  and  O_16 
REMARK    5  A    between atoms: O_16  and  C_17 
ROOT
HETATM    1  N   UNL     1      24.277  46.545  50.148  1.00  0.00    -0.321 N 
HETATM    2  C   UNL     1      24.373  47.866  49.726  1.00  0.00     0.279 C 
HETATM    3  O   UNL     1      25.427  48.497  49.688  1.00  0.00    -0.265 OA
HETATM    4  H   UNL     1      23.393  46.087  49.968  1.00  0.00     0.169 HD
ENDROOT
BRANCH   2   5
HETATM    5  C   UNL     1      23.111  48.421  49.267  1.00  0.00     0.143 A 
HETATM    6  O   UNL     1      22.677  49.580  49.848  1.00  0.00    -0.307 OA
HETATM    7  C   UNL     1      21.505  49.934  49.249  1.00  0.00     0.078 A 
HETATM    8  C   UNL     1      21.163  48.996  48.299  1.00  0.00     0.038 A 
HETATM    9  C   UNL     1      22.197  48.026  48.304  1.00  0.00     0.045 A 
BRANCH   7  10
HETATM   10  C   UNL     1      20.888  51.207  49.704  1.00  0.00     0.240 C 
BRANCH  10  11
HETATM   11  O   UNL     1      20.282  51.807  48.562  1.00  0.00    -0.345 OA
BRANCH  11  12
HETATM   12  C   UNL     1      18.929  52.007  48.624  1.00  0.00     0.069 A 
HETATM   13  C   UNL     1      18.200  52.334  49.772  1.00  0.00     0.040 A 
HETATM   14  C   UNL     1      16.815  52.506  49.695  1.00  0.00     0.045 A 
HETATM   15  C   UNL     1      16.167  52.355  48.475  1.00  0.00     0.116 A 
HETATM   16  F   UNL     1      14.839  52.518  48.409  1.00  0.00    -0.206 F 
HETATM   17  C   UNL     1      16.879  52.039  47.325  1.00  0.00     0.045 A 
HETATM   18  C   UNL     1      18.262  51.868  47.402  1.00  0.00     0.040 A 
ENDBRANCH  11  12
ENDBRANCH  10  11
ENDBRANCH   7  10
ENDBRANCH   2   5
BRANCH   1  19
HETATM   19  C   UNL     1      25.326  45.730  50.621  1.00  0.00     0.035 A 
HETATM   20  C   UNL     1      25.807  45.776  51.933  1.00  0.00     0.039 A 
HETATM   21  C   UNL     1      26.860  44.948  52.292  1.00  0.00    -0.022 A 
HETATM   22  C   UNL     1      27.500  44.815  53.631  1.00  0.00     0.274 C 
HETATM   23  C   UNL     1      27.439  44.071  51.375  1.00  0.00    -0.025 A 
HETATM   24  N   UNL     1      28.725  43.940  53.386  1.00  0.00    -0.067 N 
HETATM   25  C   UNL     1      29.027  42.987  54.485  1.00  0.00     0.270 C 
HETATM   26  H   UNL     1      29.514  44.589  53.285  1.00  0.00     0.280 HD
HETATM   27  C   UNL     1      28.532  43.290  52.020  1.00  0.00     0.273 C 
HETATM   28  C   UNL     1      26.966  43.992  50.078  1.00  0.00     0.012 A 
HETATM   29  C   UNL     1      25.901  44.823  49.707  1.00  0.00     0.030 A 
ENDBRANCH   1  19
TORSDOF 5
ENDMDL
MODEL 10
REMARK VINA RESULT:      -8.1      4.650      9.860
REMARK  5 active torsions:
REMARK  status: ('A' for Active; 'I' for Inactive)
REMARK    1  A    between atoms: C_9  and  N_10 
REMARK       I    between atoms: N_10  and  C_11 
REMARK    2  A    between atoms: C_11  and  C_12 
REMARK    3  A    between atoms: C_14  and  C_15 
REMARK    4  A    between atoms: C_15  and  O_16 
REMARK    5  A    between atoms: O_16  and  C_17 
ROOT
HETATM    1  N   UNL     1      26.835  45.722  49.582  1.00  0.00    -0.321 N 
HETATM    2  C   UNL     1      26.027  46.717  50.123  1.00  0.00     0.279 C 
HETATM    3  O   UNL     1      25.295  46.549  51.096  1.00  0.00    -0.265 OA
HETATM    4  H   UNL     1      27.516  46.029  48.900  1.00  0.00     0.169 HD
ENDROOT
BRANCH   2   5
HETATM    5  C   UNL     1      26.177  48.004  49.468  1.00  0.00     0.143 A 
HETATM    6  O   UNL     1      25.042  48.641  49.048  1.00  0.00    -0.307 OA
HETATM    7  C   UNL     1      25.410  49.833  48.499  1.00  0.00     0.078 A 
HETATM    8  C   UNL     1      26.782  49.962  48.538  1.00  0.00     0.038 A 
HETATM    9  C   UNL     1      27.276  48.792  49.167  1.00  0.00     0.045 A 
BRANCH   7  10
HETATM   10  C   UNL     1      24.309  50.710  48.024  1.00  0.00     0.240 C 
BRANCH  10  11
HETATM   11  O   UNL     1      23.375  49.875  47.344  1.00  0.00    -0.345 OA
BRANCH  11  12
HETATM   12  C   UNL     1      22.093  49.876  47.824  1.00  0.00     0.069 A 
HETATM   13  C   UNL     1      21.183  48.818  47.734  1.00  0.00     0.040 A 
HETATM   14  C   UNL     1      19.897  48.954  48.265  1.00  0.00     0.045 A 
HETATM   15  C   UNL     1      19.529  50.141  48.885  1.00  0.00     0.116 A 
HETATM   16  F   UNL     1      18.295  50.267  49.389  1.00  0.00    -0.206 F 
HETATM   17  C   UNL     1      20.424  51.198  48.989  1.00  0.00     0.045 A 
HETATM   18  C   UNL     1      21.708  51.061  48.459  1.00  0.00     0.040 A 
ENDBRANCH  11  12
ENDBRANCH  10  11
ENDBRANCH   7  10
ENDBRANCH   2   5
BRANCH   1  19
HETATM   19  C   UNL     1      26.932  44.384  50.014  1.00  0.00     0.035 A 
HETATM   20  C   UNL     1      26.357  43.309  49.330  1.00  0.00     0.039 A 
HETATM   21  C   UNL     1      26.491  42.030  49.852  1.00  0.00    -0.022 A 
HETATM   22  C   UNL     1      25.990  40.752  49.276  1.00  0.00     0.274 C 
HETATM   23  C   UNL     1      27.191  41.800  51.038  1.00  0.00    -0.025 A 
HETATM   24  N   UNL     1      26.228  39.717  50.370  1.00  0.00    -0.067 N 
HETATM   25  C   UNL     1      26.640  38.380  49.869  1.00  0.00     0.270 C 
HETATM   26  H   UNL     1      25.333  39.623  50.863  1.00  0.00     0.280 HD
HETATM   27  C   UNL     1      27.197  40.346  51.364  1.00  0.00     0.273 C 
HETATM   28  C   UNL     1      27.786  42.846  51.720  1.00  0.00     0.012 A 
HETATM   29  C   UNL     1      27.657  44.139  51.198  1.00  0.00     0.030 A 
ENDBRANCH   1  19
TORSDOF 5
ENDMDL
