MODEL 1
REMARK VINA RESULT:     -10.4      0.000      0.000
REMARK  6 active torsions:
REMARK  status: ('A' for Active; 'I' for Inactive)
REMARK    1  A    between atoms: O_2  and  C_3 
REMARK    2  A    between atoms: C_7  and  C_8 
REMARK    3  A    between atoms: C_8  and  N_9 
REMARK       I    between atoms: N_9  and  C_10 
REMARK    4  A    between atoms: C_10  and  C_12 
REMARK    5  A    between atoms: N_14  and  C_15 
REMARK    6  A    between atoms: C_23  and  C_27 
ROOT
HETATM    1  C   UNL     1      26.291  44.243  52.019  1.00  0.00     0.060 C 
HETATM    2  C   UNL     1      27.232  44.704  52.923  1.00  0.00     0.115 C 
HETATM    3  N   UNL     1      28.154  43.706  53.185  1.00  0.00    -0.321 N 
HETATM    4  C   UNL     1      27.905  42.646  52.312  1.00  0.00     0.051 A 
HETATM    5  C   UNL     1      28.633  41.468  52.026  1.00  0.00     0.043 A 
HETATM    6  C   UNL     1      28.118  40.533  51.110  1.00  0.00    -0.021 A 
HETATM    7  C   UNL     1      26.904  40.797  50.476  1.00  0.00     0.013 A 
HETATM    8  C   UNL     1      26.206  41.985  50.720  1.00  0.00     0.016 A 
HETATM    9  C   UNL     1      26.717  42.936  51.629  1.00  0.00     0.008 A 
ENDROOT
BRANCH   1  10
HETATM   10  C   UNL     1      25.088  44.945  51.574  1.00  0.00     0.254 C 
HETATM   11  N   UNL     1      25.325  46.114  50.885  1.00  0.00    -0.353 N 
HETATM   12  H   UNL     1      26.260  46.292  50.551  1.00  0.00     0.163 HD
HETATM   13  O   UNL     1      23.960  44.516  51.793  1.00  0.00    -0.268 OA
BRANCH  11  14
HETATM   14  C   UNL     1      24.248  46.891  50.321  1.00  0.00     0.161 C 
BRANCH  14  15
HETATM   15  C   UNL     1      24.767  48.028  49.480  1.00  0.00    -0.038 A 
HETATM   16  C   UNL     1      26.136  48.323  49.454  1.00  0.00     0.009 A 
HETATM   17  C   UNL     1      26.616  49.376  48.678  1.00  0.00     0.003 A 
HETATM   18  C   UNL     1      25.736  50.153  47.921  1.00  0.00     0.037 A 
HETATM   19  C   UNL     1      24.368  49.879  47.941  1.00  0.00     0.068 A 
HETATM   20  C   UNL     1      23.891  48.824  48.726  1.00  0.00     0.045 A 
BRANCH  19  21
HETATM   21  O   UNL     1      23.402  50.560  47.252  1.00  0.00    -0.356 OA
HETATM   22  C   UNL     1      22.054  50.325  47.641  1.00  0.00     0.210 C 
ENDBRANCH  19  21
ENDBRANCH  14  15
ENDBRANCH  11  14
ENDBRANCH   1  10
BRANCH   3  23
HETATM   23  C   UNL     1      29.148  43.783  54.210  1.00  0.00     0.039 A 
HETATM   24  C   UNL     1      30.087  42.756  54.374  1.00  0.00     0.030 A 
HETATM   25  C   UNL     1      31.037  42.825  55.396  1.00  0.00     0.002 A 
HETATM   26  C   UNL     1      31.053  43.913  56.266  1.00  0.00     0.000 A 
HETATM   27  C   UNL     1      30.112  44.930  56.120  1.00  0.00     0.002 A 
HETATM   28  C   UNL     1      29.157  44.865  55.103  1.00  0.00     0.030 A 
ENDBRANCH   3  23
BRANCH   6  29
HETATM   29  C   UNL     1      28.862  39.315  50.829  1.00  0.00     0.010 A 
HETATM   30  C   UNL     1      29.887  38.666  51.559  1.00  0.00     0.152 A 
HETATM   31  N   UNL     1      30.309  37.541  50.973  1.00  0.00    -0.187 NA
HETATM   32  N   UNL     1      29.557  37.466  49.864  1.00  0.00    -0.289 N 
HETATM   33  H   UNL     1      29.696  36.677  49.242  1.00  0.00     0.188 HD
HETATM   34  C   UNL     1      28.675  38.499  49.733  1.00  0.00     0.123 A 
ENDBRANCH   6  29
TORSDOF 6
ENDMDL
MODEL 2
REMARK VINA RESULT:     -10.3      1.081      1.960
REMARK  6 active torsions:
REMARK  status: ('A' for Active; 'I' for Inactive)
REMARK    1  A    between atoms: O_2  and  C_3 
REMARK    2  A    between atoms: C_7  and  C_8 
REMARK    3  A    between atoms: C_8  and  N_9 
REMARK       I    between atoms: N_9  and  C_10 
REMARK    4  A    between atoms: C_10  and  C_12 
REMARK    5  A    between atoms: N_14  and  C_15 
REMARK    6  A    between atoms: C_23  and  C_27 
ROOT
HETATM    1  C   UNL     1      25.678  44.021  51.325  1.00  0.00     0.060 C 
HETATM    2  C   UNL     1      26.568  44.570  52.230  1.00  0.00     0.115 C 
HETATM    3  N   UNL     1      27.554  43.647  52.533  1.00  0.00    -0.321 N 
HETATM    4  C   UNL     1      27.395  42.549  51.685  1.00  0.00     0.051 A 
HETATM    5  C   UNL     1      28.209  41.419  51.442  1.00  0.00     0.043 A 
HETATM    6  C   UNL     1      27.777  40.427  50.544  1.00  0.00    -0.021 A 
HETATM    7  C   UNL     1      26.558  40.588  49.884  1.00  0.00     0.013 A 
HETATM    8  C   UNL     1      25.775  41.730  50.085  1.00  0.00     0.016 A 
HETATM    9  C   UNL     1      26.202  42.737  50.976  1.00  0.00     0.008 A 
ENDROOT
BRANCH   1  10
HETATM   10  C   UNL     1      24.436  44.625  50.843  1.00  0.00     0.254 C 
HETATM   11  N   UNL     1      24.598  45.818  50.174  1.00  0.00    -0.353 N 
HETATM   12  H   UNL     1      25.527  46.078  49.876  1.00  0.00     0.163 HD
HETATM   13  O   UNL     1      23.342  44.099  51.015  1.00  0.00    -0.268 OA
BRANCH  11  14
HETATM   14  C   UNL     1      23.481  46.509  49.577  1.00  0.00     0.161 C 
BRANCH  14  15
HETATM   15  C   UNL     1      23.885  47.857  49.041  1.00  0.00    -0.038 A 
HETATM   16  C   UNL     1      22.931  48.704  48.461  1.00  0.00     0.009 A 
HETATM   17  C   UNL     1      23.305  49.950  47.961  1.00  0.00     0.003 A 
HETATM   18  C   UNL     1      24.637  50.366  48.030  1.00  0.00     0.037 A 
HETATM   19  C   UNL     1      25.601  49.533  48.596  1.00  0.00     0.068 A 
HETATM   20  C   UNL     1      25.221  48.281  49.091  1.00  0.00     0.045 A 
BRANCH  19  21
HETATM   21  O   UNL     1      26.934  49.816  48.723  1.00  0.00    -0.356 OA
HETATM   22  C   UNL     1      27.766  48.770  49.208  1.00  0.00     0.210 C 
ENDBRANCH  19  21
ENDBRANCH  14  15
ENDBRANCH  11  14
ENDBRANCH   1  10
BRANCH   3  23
HETATM   23  C   UNL     1      28.522  43.819  53.571  1.00  0.00     0.039 A 
HETATM   24  C   UNL     1      28.397  44.862  54.499  1.00  0.00     0.030 A 
HETATM   25  C   UNL     1      29.362  45.041  55.494  1.00  0.00     0.002 A 
HETATM   26  C   UNL     1      30.460  44.188  55.566  1.00  0.00     0.000 A 
HETATM   27  C   UNL     1      30.601  43.159  54.637  1.00  0.00     0.002 A 
HETATM   28  C   UNL     1      29.642  42.977  53.637  1.00  0.00     0.030 A 
ENDBRANCH   3  23
BRANCH   6  29
HETATM   29  C   UNL     1      28.609  39.258  50.307  1.00  0.00     0.010 A 
HETATM   30  C   UNL     1      29.673  38.708  51.063  1.00  0.00     0.152 A 
HETATM   31  N   UNL     1      30.179  37.599  50.516  1.00  0.00    -0.187 NA
HETATM   32  N   UNL     1      29.443  37.434  49.407  1.00  0.00    -0.289 N 
HETATM   33  H   UNL     1      29.643  36.637  48.812  1.00  0.00     0.188 HD
HETATM   34  C   UNL     1      28.489  38.395  49.237  1.00  0.00     0.123 A 
ENDBRANCH   6  29
TORSDOF 6
ENDMDL
MODEL 3
REMARK VINA RESULT:     -10.1      1.581      4.684
REMARK  6 active torsions:
REMARK  status: ('A' for Active; 'I' for Inactive)
REMARK    1  A    between atoms: O_2  and  C_3 
REMARK    2  A    between atoms: C_7  and  C_8 
REMARK    3  A    between atoms: C_8  and  N_9 
REMARK       I    between atoms: N_9  and  C_10 
REMARK    4  A    between atoms: C_10  and  C_12 
REMARK    5  A    between atoms: N_14  and  C_15 
REMARK    6  A    between atoms: C_23  and  C_27 
ROOT
HETATM    1  C   UNL     1      25.956  43.832  51.698  1.00  0.00     0.060 C 
HETATM    2  C   UNL     1      26.238  42.566  51.216  1.00  0.00     0.115 C 
HETATM    3  N   UNL     1      27.413  42.102  51.781  1.00  0.00    -0.321 N 
HETATM    4  C   UNL     1      27.805  43.008  52.768  1.00  0.00     0.051 A 
HETATM    5  C   UNL     1      28.812  42.946  53.759  1.00  0.00     0.043 A 
HETATM    6  C   UNL     1      29.018  44.042  54.615  1.00  0.00    -0.021 A 
HETATM    7  C   UNL     1      28.204  45.168  54.490  1.00  0.00     0.013 A 
HETATM    8  C   UNL     1      27.174  45.211  53.544  1.00  0.00     0.016 A 
HETATM    9  C   UNL     1      26.951  44.114  52.685  1.00  0.00     0.008 A 
ENDROOT
BRANCH   1  10
HETATM   10  C   UNL     1      24.872  44.712  51.264  1.00  0.00     0.254 C 
HETATM   11  N   UNL     1      25.271  45.979  50.901  1.00  0.00    -0.353 N 
HETATM   12  H   UNL     1      26.254  46.147  50.749  1.00  0.00     0.163 HD
HETATM   13  O   UNL     1      23.704  44.341  51.220  1.00  0.00    -0.268 OA
BRANCH  11  14
HETATM   14  C   UNL     1      24.335  46.949  50.386  1.00  0.00     0.161 C 
BRANCH  14  15
HETATM   15  C   UNL     1      25.031  48.028  49.598  1.00  0.00    -0.038 A 
HETATM   16  C   UNL     1      26.427  48.141  49.631  1.00  0.00     0.009 A 
HETATM   17  C   UNL     1      27.071  49.140  48.905  1.00  0.00     0.003 A 
HETATM   18  C   UNL     1      26.330  50.044  48.139  1.00  0.00     0.037 A 
HETATM   19  C   UNL     1      24.939  49.953  48.101  1.00  0.00     0.068 A 
HETATM   20  C   UNL     1      24.297  48.950  48.836  1.00  0.00     0.045 A 
BRANCH  19  21
HETATM   21  O   UNL     1      24.098  50.771  47.398  1.00  0.00    -0.356 OA
HETATM   22  C   UNL     1      22.703  50.587  47.608  1.00  0.00     0.210 C 
ENDBRANCH  19  21
ENDBRANCH  14  15
ENDBRANCH  11  14
ENDBRANCH   1  10
BRANCH   3  23
HETATM   23  C   UNL     1      28.088  40.913  51.364  1.00  0.00     0.039 A 
HETATM   24  C   UNL     1      28.871  40.181  52.266  1.00  0.00     0.030 A 
HETATM   25  C   UNL     1      29.551  39.035  51.843  1.00  0.00     0.002 A 
HETATM   26  C   UNL     1      29.461  38.617  50.518  1.00  0.00     0.000 A 
HETATM   27  C   UNL     1      28.698  39.349  49.610  1.00  0.00     0.002 A 
HETATM   28  C   UNL     1      28.019  40.497  50.026  1.00  0.00     0.030 A 
ENDBRANCH   3  23
BRANCH   6  29
HETATM   29  C   UNL     1      30.065  43.982  55.623  1.00  0.00     0.010 A 
HETATM   30  C   UNL     1      30.427  44.898  56.640  1.00  0.00     0.152 A 
HETATM   31  N   UNL     1      31.445  44.466  57.390  1.00  0.00    -0.187 NA
HETATM   32  N   UNL     1      31.741  43.271  56.856  1.00  0.00    -0.289 N 
HETATM   33  H   UNL     1      32.498  42.735  57.267  1.00  0.00     0.188 HD
HETATM   34  C   UNL     1      30.944  42.933  55.801  1.00  0.00     0.123 A 
ENDBRANCH   6  29
TORSDOF 6
ENDMDL
MODEL 4
REMARK VINA RESULT:     -10.0      3.429      8.086
REMARK  6 active torsions:
REMARK  status: ('A' for Active; 'I' for Inactive)
REMARK    1  A    between atoms: O_2  and  C_3 
REMARK    2  A    between atoms: C_7  and  C_8 
REMARK    3  A    between atoms: C_8  and  N_9 
REMARK       I    between atoms: N_9  and  C_10 
REMARK    4  A    between atoms: C_10  and  C_12 
REMARK    5  A    between atoms: N_14  and  C_15 
REMARK    6  A    between atoms: C_23  and  C_27 
ROOT
HETATM    1  C   UNL     1      25.529  46.179  52.652  1.00  0.00     0.060 C 
HETATM    2  C   UNL     1      25.390  47.384  51.987  1.00  0.00     0.115 C 
HETATM    3  N   UNL     1      24.979  47.153  50.686  1.00  0.00    -0.321 N 
HETATM    4  C   UNL     1      24.685  45.795  50.559  1.00  0.00     0.051 A 
HETATM    5  C   UNL     1      24.070  45.055  49.522  1.00  0.00     0.043 A 
HETATM    6  C   UNL     1      23.933  43.661  49.645  1.00  0.00    -0.021 A 
HETATM    7  C   UNL     1      24.383  43.031  50.805  1.00  0.00     0.013 A 
HETATM    8  C   UNL     1      24.946  43.767  51.854  1.00  0.00     0.016 A 
HETATM    9  C   UNL     1      25.081  45.168  51.747  1.00  0.00     0.008 A 
ENDROOT
BRANCH   1  10
HETATM   10  C   UNL     1      26.055  45.980  54.003  1.00  0.00     0.254 C 
HETATM   11  N   UNL     1      27.337  46.444  54.195  1.00  0.00    -0.353 N 
HETATM   12  H   UNL     1      27.733  47.060  53.500  1.00  0.00     0.163 HD
HETATM   13  O   UNL     1      25.396  45.450  54.891  1.00  0.00    -0.268 OA
BRANCH  11  14
HETATM   14  C   UNL     1      27.977  46.386  55.487  1.00  0.00     0.161 C 
BRANCH  14  15
HETATM   15  C   UNL     1      29.016  45.296  55.542  1.00  0.00    -0.038 A 
HETATM   16  C   UNL     1      30.022  45.326  56.516  1.00  0.00     0.009 A 
HETATM   17  C   UNL     1      30.985  44.319  56.566  1.00  0.00     0.003 A 
HETATM   18  C   UNL     1      30.959  43.272  55.642  1.00  0.00     0.037 A 
HETATM   19  C   UNL     1      29.970  43.232  54.659  1.00  0.00     0.068 A 
HETATM   20  C   UNL     1      29.009  44.247  54.611  1.00  0.00     0.045 A 
BRANCH  19  21
HETATM   21  O   UNL     1      29.833  42.270  53.696  1.00  0.00    -0.356 OA
HETATM   22  C   UNL     1      28.531  41.723  53.521  1.00  0.00     0.210 C 
ENDBRANCH  19  21
ENDBRANCH  14  15
ENDBRANCH  11  14
ENDBRANCH   1  10
BRANCH   3  23
HETATM   23  C   UNL     1      24.919  48.162  49.674  1.00  0.00     0.039 A 
HETATM   24  C   UNL     1      26.091  48.752  49.183  1.00  0.00     0.030 A 
HETATM   25  C   UNL     1      26.023  49.757  48.214  1.00  0.00     0.002 A 
HETATM   26  C   UNL     1      24.787  50.185  47.735  1.00  0.00     0.000 A 
HETATM   27  C   UNL     1      23.616  49.615  48.231  1.00  0.00     0.002 A 
HETATM   28  C   UNL     1      23.677  48.613  49.202  1.00  0.00     0.030 A 
ENDBRANCH   3  23
BRANCH   6  29
HETATM   29  C   UNL     1      23.313  42.901  48.570  1.00  0.00     0.010 A 
HETATM   30  C   UNL     1      22.795  41.584  48.546  1.00  0.00     0.152 A 
HETATM   31  N   UNL     1      22.281  41.250  47.358  1.00  0.00    -0.187 NA
HETATM   32  N   UNL     1      22.470  42.352  46.616  1.00  0.00    -0.289 N 
HETATM   33  H   UNL     1      22.153  42.342  45.652  1.00  0.00     0.188 HD
HETATM   34  C   UNL     1      23.079  43.368  47.293  1.00  0.00     0.123 A 
ENDBRANCH   6  29
TORSDOF 6
ENDMDL
MODEL 5
REMARK VINA RESULT:      -9.9      3.304      8.424
REMARK  6 active torsions:
REMARK  status: ('A' for Active; 'I' for Inactive)
REMARK    1  A    between atoms: O_2  and  C_3 
REMARK    2  A    between atoms: C_7  and  C_8 
REMARK    3  A    between atoms: C_8  and  N_9 
REMARK       I    between atoms: N_9  and  C_10 
REMARK    4  A    between atoms: C_10  and  C_12 
REMARK    5  A    between atoms: N_14  and  C_15 
REMARK    6  A    between atoms: C_23  and  C_27 
ROOT
HETATM    1  C   UNL     1      25.220  45.023  51.717  1.00  0.00     0.060 C 
HETATM    2  C   UNL     1      25.719  46.281  51.433  1.00  0.00     0.115 C 
HETATM    3  N   UNL     1      25.176  46.741  50.246  1.00  0.00    -0.321 N 
HETATM    4  C   UNL     1      24.187  45.842  49.846  1.00  0.00     0.051 A 
HETATM    5  C   UNL     1      23.212  45.905  48.823  1.00  0.00     0.043 A 
HETATM    6  C   UNL     1      22.348  44.816  48.613  1.00  0.00    -0.021 A 
HETATM    7  C   UNL     1      22.449  43.695  49.438  1.00  0.00     0.013 A 
HETATM    8  C   UNL     1      23.379  43.651  50.483  1.00  0.00     0.016 A 
HETATM    9  C   UNL     1      24.246  44.742  50.710  1.00  0.00     0.008 A 
ENDROOT
BRANCH   1  10
HETATM   10  C   UNL     1      25.630  44.147  52.814  1.00  0.00     0.254 C 
HETATM   11  N   UNL     1      26.837  43.513  52.625  1.00  0.00    -0.353 N 
HETATM   12  H   UNL     1      27.441  43.843  51.887  1.00  0.00     0.163 HD
HETATM   13  O   UNL     1      24.950  44.001  53.825  1.00  0.00    -0.268 OA
BRANCH  11  14
HETATM   14  C   UNL     1      27.416  42.667  53.640  1.00  0.00     0.161 C 
BRANCH  14  15
HETATM   15  C   UNL     1      28.489  43.385  54.415  1.00  0.00    -0.038 A 
HETATM   16  C   UNL     1      29.708  42.752  54.691  1.00  0.00     0.009 A 
HETATM   17  C   UNL     1      30.701  43.415  55.411  1.00  0.00     0.003 A 
HETATM   18  C   UNL     1      30.488  44.717  55.869  1.00  0.00     0.037 A 
HETATM   19  C   UNL     1      29.277  45.360  55.612  1.00  0.00     0.068 A 
HETATM   20  C   UNL     1      28.283  44.688  54.893  1.00  0.00     0.045 A 
BRANCH  19  21
HETATM   21  O   UNL     1      28.941  46.627  56.003  1.00  0.00    -0.356 OA
HETATM   22  C   UNL     1      27.803  47.209  55.377  1.00  0.00     0.210 C 
ENDBRANCH  19  21
ENDBRANCH  14  15
ENDBRANCH  11  14
ENDBRANCH   1  10
BRANCH   3  23
HETATM   23  C   UNL     1      25.616  47.920  49.567  1.00  0.00     0.039 A 
HETATM   24  C   UNL     1      26.977  48.248  49.511  1.00  0.00     0.030 A 
HETATM   25  C   UNL     1      27.396  49.417  48.871  1.00  0.00     0.002 A 
HETATM   26  C   UNL     1      26.461  50.270  48.289  1.00  0.00     0.000 A 
HETATM   27  C   UNL     1      25.105  49.961  48.354  1.00  0.00     0.002 A 
HETATM   28  C   UNL     1      24.679  48.795  48.997  1.00  0.00     0.030 A 
ENDBRANCH   3  23
BRANCH   6  29
HETATM   29  C   UNL     1      21.356  44.877  47.550  1.00  0.00     0.010 A 
HETATM   30  C   UNL     1      19.959  45.098  47.599  1.00  0.00     0.152 A 
HETATM   31  N   UNL     1      19.392  45.104  46.388  1.00  0.00    -0.187 NA
HETATM   32  N   UNL     1      20.424  44.885  45.560  1.00  0.00    -0.289 N 
HETATM   33  H   UNL     1      20.240  44.848  44.562  1.00  0.00     0.188 HD
HETATM   34  C   UNL     1      21.620  44.746  46.202  1.00  0.00     0.123 A 
ENDBRANCH   6  29
TORSDOF 6
ENDMDL
MODEL 6
REMARK VINA RESULT:      -9.4      1.724      2.560
REMARK  6 active torsions:
REMARK  status: ('A' for Active; 'I' for Inactive)
REMARK    1  A    between atoms: O_2  and  C_3 
REMARK    2  A    between atoms: C_7  and  C_8 
REMARK    3  A    between atoms: C_8  and  N_9 
REMARK       I    between atoms: N_9  and  C_10 
REMARK    4  A    between atoms: C_10  and  C_12 
REMARK    5  A    between atoms: N_14  and  C_15 
REMARK    6  A    between atoms: C_23  and  C_27 
ROOT
HETATM    1  C   UNL     1      26.842  45.926  52.915  1.00  0.00     0.060 C 
HETATM    2  C   UNL     1      27.790  46.075  53.911  1.00  0.00     0.115 C 
HETATM    3  N   UNL     1      28.456  44.877  54.103  1.00  0.00    -0.321 N 
HETATM    4  C   UNL     1      28.051  43.992  53.103  1.00  0.00     0.051 A 
HETATM    5  C   UNL     1      28.530  42.717  52.721  1.00  0.00     0.043 A 
HETATM    6  C   UNL     1      27.897  42.016  51.680  1.00  0.00    -0.021 A 
HETATM    7  C   UNL     1      26.818  42.603  51.020  1.00  0.00     0.013 A 
HETATM    8  C   UNL     1      26.374  43.885  51.362  1.00  0.00     0.016 A 
HETATM    9  C   UNL     1      27.007  44.603  52.399  1.00  0.00     0.008 A 
ENDROOT
BRANCH   1  10
HETATM   10  C   UNL     1      25.853  46.918  52.493  1.00  0.00     0.254 C 
HETATM   11  N   UNL     1      25.638  46.975  51.134  1.00  0.00    -0.353 N 
HETATM   12  H   UNL     1      25.988  46.221  50.562  1.00  0.00     0.163 HD
HETATM   13  O   UNL     1      25.258  47.631  53.294  1.00  0.00    -0.268 OA
BRANCH  11  14
HETATM   14  C   UNL     1      24.646  47.852  50.561  1.00  0.00     0.161 C 
BRANCH  14  15
HETATM   15  C   UNL     1      23.781  47.132  49.560  1.00  0.00    -0.038 A 
HETATM   16  C   UNL     1      23.958  45.762  49.326  1.00  0.00     0.009 A 
HETATM   17  C   UNL     1      23.159  45.096  48.399  1.00  0.00     0.003 A 
HETATM   18  C   UNL     1      22.176  45.789  47.688  1.00  0.00     0.037 A 
HETATM   19  C   UNL     1      21.992  47.155  47.901  1.00  0.00     0.068 A 
HETATM   20  C   UNL     1      22.800  47.819  48.830  1.00  0.00     0.045 A 
BRANCH  19  21
HETATM   21  O   UNL     1      21.072  47.949  47.274  1.00  0.00    -0.356 OA
HETATM   22  C   UNL     1      20.932  49.277  47.766  1.00  0.00     0.210 C 
ENDBRANCH  19  21
ENDBRANCH  14  15
ENDBRANCH  11  14
ENDBRANCH   1  10
BRANCH   3  23
HETATM   23  C   UNL     1      29.364  44.629  55.180  1.00  0.00     0.039 A 
HETATM   24  C   UNL     1      29.480  45.537  56.241  1.00  0.00     0.030 A 
HETATM   25  C   UNL     1      30.390  45.301  57.275  1.00  0.00     0.002 A 
HETATM   26  C   UNL     1      31.195  44.165  57.254  1.00  0.00     0.000 A 
HETATM   27  C   UNL     1      31.099  43.266  56.194  1.00  0.00     0.002 A 
HETATM   28  C   UNL     1      30.193  43.498  55.155  1.00  0.00     0.030 A 
ENDBRANCH   3  23
BRANCH   6  29
HETATM   29  C   UNL     1      28.383  40.699  51.299  1.00  0.00     0.010 A 
HETATM   30  C   UNL     1      28.172  39.937  50.124  1.00  0.00     0.152 A 
HETATM   31  N   UNL     1      28.816  38.766  50.142  1.00  0.00    -0.187 NA
HETATM   32  N   UNL     1      29.440  38.772  51.330  1.00  0.00    -0.289 N 
HETATM   33  H   UNL     1      30.009  37.969  51.578  1.00  0.00     0.188 HD
HETATM   34  C   UNL     1      29.218  39.904  52.058  1.00  0.00     0.123 A 
ENDBRANCH   6  29
TORSDOF 6
ENDMDL
MODEL 7
REMARK VINA RESULT:      -9.4      2.552      3.876
REMARK  6 active torsions:
REMARK  status: ('A' for Active; 'I' for Inactive)
REMARK    1  A    between atoms: O_2  and  C_3 
REMARK    2  A    between atoms: C_7  and  C_8 
REMARK    3  A    between atoms: C_8  and  N_9 
REMARK       I    between atoms: N_9  and  C_10 
REMARK    4  A    between atoms: C_10  and  C_12 
REMARK    5  A    between atoms: N_14  and  C_15 
REMARK    6  A    between atoms: C_23  and  C_27 
ROOT
HETATM    1  C   UNL     1      24.170  45.425  50.167  1.00  0.00     0.060 C 
HETATM    2  C   UNL     1      24.751  46.221  51.138  1.00  0.00     0.115 C 
HETATM    3  N   UNL     1      25.699  45.491  51.833  1.00  0.00    -0.321 N 
HETATM    4  C   UNL     1      25.854  44.261  51.192  1.00  0.00     0.051 A 
HETATM    5  C   UNL     1      26.794  43.218  51.365  1.00  0.00     0.043 A 
HETATM    6  C   UNL     1      26.690  42.048  50.592  1.00  0.00    -0.021 A 
HETATM    7  C   UNL     1      25.671  41.945  49.645  1.00  0.00     0.013 A 
HETATM    8  C   UNL     1      24.770  42.996  49.437  1.00  0.00     0.016 A 
HETATM    9  C   UNL     1      24.870  44.179  50.199  1.00  0.00     0.008 A 
ENDROOT
BRANCH   1  10
HETATM   10  C   UNL     1      23.047  45.781  49.301  1.00  0.00     0.254 C 
HETATM   11  N   UNL     1      22.972  47.116  48.975  1.00  0.00    -0.353 N 
HETATM   12  H   UNL     1      23.775  47.699  49.156  1.00  0.00     0.163 HD
HETATM   13  O   UNL     1      22.245  44.948  48.892  1.00  0.00    -0.268 OA
BRANCH  11  14
HETATM   14  C   UNL     1      21.963  47.621  48.075  1.00  0.00     0.161 C 
BRANCH  14  15
HETATM   15  C   UNL     1      21.335  48.885  48.599  1.00  0.00    -0.038 A 
HETATM   16  C   UNL     1      21.857  50.136  48.242  1.00  0.00     0.009 A 
HETATM   17  C   UNL     1      21.278  51.307  48.729  1.00  0.00     0.003 A 
HETATM   18  C   UNL     1      20.173  51.245  49.582  1.00  0.00     0.037 A 
HETATM   19  C   UNL     1      19.646  50.008  49.955  1.00  0.00     0.068 A 
HETATM   20  C   UNL     1      20.234  48.836  49.467  1.00  0.00     0.045 A 
BRANCH  19  21
HETATM   21  O   UNL     1      18.574  49.807  50.781  1.00  0.00    -0.356 OA
HETATM   22  C   UNL     1      18.579  48.613  51.554  1.00  0.00     0.210 C 
ENDBRANCH  19  21
ENDBRANCH  14  15
ENDBRANCH  11  14
ENDBRANCH   1  10
BRANCH   3  23
HETATM   23  C   UNL     1      26.352  45.950  53.020  1.00  0.00     0.039 A 
HETATM   24  C   UNL     1      26.140  47.252  53.494  1.00  0.00     0.030 A 
HETATM   25  C   UNL     1      26.804  47.702  54.639  1.00  0.00     0.002 A 
HETATM   26  C   UNL     1      27.687  46.862  55.313  1.00  0.00     0.000 A 
HETATM   27  C   UNL     1      27.916  45.572  54.838  1.00  0.00     0.002 A 
HETATM   28  C   UNL     1      27.259  45.117  53.692  1.00  0.00     0.030 A 
ENDBRANCH   3  23
BRANCH   6  29
HETATM   29  C   UNL     1      27.650  40.972  50.782  1.00  0.00     0.010 A 
HETATM   30  C   UNL     1      27.989  39.875  49.954  1.00  0.00     0.152 A 
HETATM   31  N   UNL     1      28.948  39.106  50.477  1.00  0.00    -0.187 NA
HETATM   32  N   UNL     1      29.227  39.706  51.644  1.00  0.00    -0.289 N 
HETATM   33  H   UNL     1      29.943  39.298  52.236  1.00  0.00     0.188 HD
HETATM   34  C   UNL     1      28.482  40.827  51.873  1.00  0.00     0.123 A 
ENDBRANCH   6  29
TORSDOF 6
ENDMDL
MODEL 8
REMARK VINA RESULT:      -9.3      2.310      5.358
REMARK  6 active torsions:
REMARK  status: ('A' for Active; 'I' for Inactive)
REMARK    1  A    between atoms: O_2  and  C_3 
REMARK    2  A    between atoms: C_7  and  C_8 
REMARK    3  A    between atoms: C_8  and  N_9 
REMARK       I    between atoms: N_9  and  C_10 
REMARK    4  A    between atoms: C_10  and  C_12 
REMARK    5  A    between atoms: N_14  and  C_15 
REMARK    6  A    between atoms: C_23  and  C_27 
ROOT
HETATM    1  C   UNL     1      24.216  44.012  50.049  1.00  0.00     0.060 C 
HETATM    2  C   UNL     1      24.800  42.863  49.545  1.00  0.00     0.115 C 
HETATM    3  N   UNL     1      26.029  42.662  50.148  1.00  0.00    -0.321 N 
HETATM    4  C   UNL     1      26.166  43.597  51.176  1.00  0.00     0.051 A 
HETATM    5  C   UNL     1      27.124  43.732  52.207  1.00  0.00     0.043 A 
HETATM    6  C   UNL     1      27.040  44.814  53.101  1.00  0.00    -0.021 A 
HETATM    7  C   UNL     1      25.992  45.726  52.972  1.00  0.00     0.013 A 
HETATM    8  C   UNL     1      25.014  45.566  51.984  1.00  0.00     0.016 A 
HETATM    9  C   UNL     1      25.082  44.479  51.086  1.00  0.00     0.008 A 
ENDROOT
BRANCH   1  10
HETATM   10  C   UNL     1      22.975  44.635  49.593  1.00  0.00     0.254 C 
HETATM   11  N   UNL     1      23.074  45.980  49.315  1.00  0.00    -0.353 N 
HETATM   12  H   UNL     1      23.994  46.385  49.232  1.00  0.00     0.163 HD
HETATM   13  O   UNL     1      21.934  44.001  49.460  1.00  0.00    -0.268 OA
BRANCH  11  14
HETATM   14  C   UNL     1      21.958  46.730  48.791  1.00  0.00     0.161 C 
BRANCH  14  15
HETATM   15  C   UNL     1      22.279  48.197  48.677  1.00  0.00    -0.038 A 
HETATM   16  C   UNL     1      21.370  49.159  49.135  1.00  0.00     0.009 A 
HETATM   17  C   UNL     1      21.665  50.517  49.027  1.00  0.00     0.003 A 
HETATM   18  C   UNL     1      22.871  50.933  48.457  1.00  0.00     0.037 A 
HETATM   19  C   UNL     1      23.784  49.989  47.987  1.00  0.00     0.068 A 
HETATM   20  C   UNL     1      23.480  48.627  48.093  1.00  0.00     0.045 A 
BRANCH  19  21
HETATM   21  O   UNL     1      24.994  50.260  47.407  1.00  0.00    -0.356 OA
HETATM   22  C   UNL     1      26.151  49.828  48.113  1.00  0.00     0.210 C 
ENDBRANCH  19  21
ENDBRANCH  14  15
ENDBRANCH  11  14
ENDBRANCH   1  10
BRANCH   3  23
HETATM   23  C   UNL     1      26.976  41.676  49.728  1.00  0.00     0.039 A 
HETATM   24  C   UNL     1      27.395  41.610  48.392  1.00  0.00     0.030 A 
HETATM   25  C   UNL     1      28.299  40.626  47.983  1.00  0.00     0.002 A 
HETATM   26  C   UNL     1      28.785  39.698  48.901  1.00  0.00     0.000 A 
HETATM   27  C   UNL     1      28.361  39.746  50.227  1.00  0.00     0.002 A 
HETATM   28  C   UNL     1      27.454  40.725  50.641  1.00  0.00     0.030 A 
ENDBRANCH   3  23
BRANCH   6  29
HETATM   29  C   UNL     1      28.035  44.959  54.152  1.00  0.00     0.010 A 
HETATM   30  C   UNL     1      29.148  44.153  54.492  1.00  0.00     0.152 A 
HETATM   31  N   UNL     1      29.845  44.639  55.524  1.00  0.00    -0.187 NA
HETATM   32  N   UNL     1      29.181  45.757  55.850  1.00  0.00    -0.289 N 
HETATM   33  H   UNL     1      29.529  46.315  56.623  1.00  0.00     0.188 HD
HETATM   34  C   UNL     1      28.094  45.996  55.060  1.00  0.00     0.123 A 
ENDBRANCH   6  29
TORSDOF 6
ENDMDL
MODEL 9
REMARK VINA RESULT:      -9.2      3.058      7.453
REMARK  6 active torsions:
REMARK  status: ('A' for Active; 'I' for Inactive)
REMARK    1  A    between atoms: O_2  and  C_3 
REMARK    2  A    between atoms: C_7  and  C_8 
REMARK    3  A    between atoms: C_8  and  N_9 
REMARK       I    between atoms: N_9  and  C_10 
REMARK    4  A    between atoms: C_10  and  C_12 
REMARK    5  A    between atoms: N_14  and  C_15 
REMARK    6  A    between atoms: C_23  and  C_27 
ROOT
HETATM    1  C   UNL     1      28.259  41.082  51.473  1.00  0.00     0.060 C 
HETATM    2  C   UNL     1      28.770  41.449  52.705  1.00  0.00     0.115 C 
HETATM    3  N   UNL     1      28.586  42.807  52.901  1.00  0.00    -0.321 N 
HETATM    4  C   UNL     1      27.796  43.291  51.857  1.00  0.00     0.051 A 
HETATM    5  C   UNL     1      27.167  44.541  51.651  1.00  0.00     0.043 A 
HETATM    6  C   UNL     1      26.449  44.775  50.465  1.00  0.00    -0.021 A 
HETATM    7  C   UNL     1      26.345  43.756  49.518  1.00  0.00     0.013 A 
HETATM    8  C   UNL     1      26.924  42.502  49.742  1.00  0.00     0.016 A 
HETATM    9  C   UNL     1      27.639  42.252  50.933  1.00  0.00     0.008 A 
ENDROOT
BRANCH   1  10
HETATM   10  C   UNL     1      28.359  39.767  50.840  1.00  0.00     0.254 C 
HETATM   11  N   UNL     1      27.206  39.337  50.222  1.00  0.00    -0.353 N 
HETATM   12  H   UNL     1      26.473  40.009  50.056  1.00  0.00     0.163 HD
HETATM   13  O   UNL     1      29.394  39.110  50.856  1.00  0.00    -0.268 OA
BRANCH  11  14
HETATM   14  C   UNL     1      27.157  38.092  49.494  1.00  0.00     0.161 C 
BRANCH  14  15
HETATM   15  C   UNL     1      27.513  38.283  48.044  1.00  0.00    -0.038 A 
HETATM   16  C   UNL     1      28.369  37.380  47.400  1.00  0.00     0.009 A 
HETATM   17  C   UNL     1      28.701  37.557  46.058  1.00  0.00     0.003 A 
HETATM   18  C   UNL     1      28.187  38.641  45.342  1.00  0.00     0.037 A 
HETATM   19  C   UNL     1      27.341  39.555  45.969  1.00  0.00     0.068 A 
HETATM   20  C   UNL     1      27.014  39.374  47.317  1.00  0.00     0.045 A 
BRANCH  19  21
HETATM   21  O   UNL     1      26.773  40.655  45.387  1.00  0.00    -0.356 OA
HETATM   22  C   UNL     1      25.404  40.901  45.685  1.00  0.00     0.210 C 
ENDBRANCH  19  21
ENDBRANCH  14  15
ENDBRANCH  11  14
ENDBRANCH   1  10
BRANCH   3  23
HETATM   23  C   UNL     1      29.160  43.545  53.982  1.00  0.00     0.039 A 
HETATM   24  C   UNL     1      30.320  43.090  54.623  1.00  0.00     0.030 A 
HETATM   25  C   UNL     1      30.859  43.803  55.697  1.00  0.00     0.002 A 
HETATM   26  C   UNL     1      30.241  44.969  56.145  1.00  0.00     0.000 A 
HETATM   27  C   UNL     1      29.078  45.419  55.524  1.00  0.00     0.002 A 
HETATM   28  C   UNL     1      28.532  44.709  54.452  1.00  0.00     0.030 A 
ENDBRANCH   3  23
BRANCH   6  29
HETATM   29  C   UNL     1      25.815  46.067  50.250  1.00  0.00     0.010 A 
HETATM   30  C   UNL     1      26.375  47.354  50.061  1.00  0.00     0.152 A 
HETATM   31  N   UNL     1      25.449  48.299  49.871  1.00  0.00    -0.187 NA
HETATM   32  N   UNL     1      24.293  47.622  49.939  1.00  0.00    -0.289 N 
HETATM   33  H   UNL     1      23.427  48.137  49.820  1.00  0.00     0.188 HD
HETATM   34  C   UNL     1      24.456  46.285  50.160  1.00  0.00     0.123 A 
ENDBRANCH   6  29
TORSDOF 6
ENDMDL
MODEL 10
REMARK VINA RESULT:      -9.2      1.720      2.847
REMARK  6 active torsions:
REMARK  status: ('A' for Active; 'I' for Inactive)
REMARK    1  A    between atoms: O_2  and  C_3 
REMARK    2  A    between atoms: C_7  and  C_8 
REMARK    3  A    between atoms: C_8  and  N_9 
REMARK       I    between atoms: N_9  and  C_10 
REMARK    4  A    between atoms: C_10  and  C_12 
REMARK    5  A    between atoms: N_14  and  C_15 
REMARK    6  A    between atoms: C_23  and  C_27 
ROOT
HETATM    1  C   UNL     1      24.723  44.609  49.691  1.00  0.00     0.060 C 
HETATM    2  C   UNL     1      25.498  45.217  50.662  1.00  0.00     0.115 C 
HETATM    3  N   UNL     1      26.318  44.277  51.261  1.00  0.00    -0.321 N 
HETATM    4  C   UNL     1      26.193  43.080  50.553  1.00  0.00     0.051 A 
HETATM    5  C   UNL     1      26.916  41.866  50.616  1.00  0.00     0.043 A 
HETATM    6  C   UNL     1      26.543  40.787  49.795  1.00  0.00    -0.021 A 
HETATM    7  C   UNL     1      25.477  40.941  48.909  1.00  0.00     0.013 A 
HETATM    8  C   UNL     1      24.792  42.158  48.808  1.00  0.00     0.016 A 
HETATM    9  C   UNL     1      25.164  43.251  49.619  1.00  0.00     0.008 A 
ENDROOT
BRANCH   1  10
HETATM   10  C   UNL     1      23.650  45.228  48.914  1.00  0.00     0.254 C 
HETATM   11  N   UNL     1      23.111  46.363  49.479  1.00  0.00    -0.353 N 
HETATM   12  H   UNL     1      23.609  46.803  50.238  1.00  0.00     0.163 HD
HETATM   13  O   UNL     1      23.272  44.773  47.840  1.00  0.00    -0.268 OA
BRANCH  11  14
HETATM   14  C   UNL     1      22.090  47.131  48.808  1.00  0.00     0.161 C 
BRANCH  14  15
HETATM   15  C   UNL     1      22.510  48.564  48.616  1.00  0.00    -0.038 A 
HETATM   16  C   UNL     1      21.614  49.607  48.884  1.00  0.00     0.009 A 
HETATM   17  C   UNL     1      22.001  50.934  48.704  1.00  0.00     0.003 A 
HETATM   18  C   UNL     1      23.287  51.237  48.250  1.00  0.00     0.037 A 
HETATM   19  C   UNL     1      24.189  50.212  47.969  1.00  0.00     0.068 A 
HETATM   20  C   UNL     1      23.794  48.882  48.147  1.00  0.00     0.045 A 
BRANCH  19  21
HETATM   21  O   UNL     1      25.471  50.370  47.518  1.00  0.00    -0.356 OA
HETATM   22  C   UNL     1      26.503  49.790  48.307  1.00  0.00     0.210 C 
ENDBRANCH  19  21
ENDBRANCH  14  15
ENDBRANCH  11  14
ENDBRANCH   1  10
BRANCH   3  23
HETATM   23  C   UNL     1      27.109  44.528  52.425  1.00  0.00     0.039 A 
HETATM   24  C   UNL     1      28.244  43.754  52.699  1.00  0.00     0.030 A 
HETATM   25  C   UNL     1      28.995  43.987  53.855  1.00  0.00     0.002 A 
HETATM   26  C   UNL     1      28.616  44.987  54.747  1.00  0.00     0.000 A 
HETATM   27  C   UNL     1      27.478  45.750  54.491  1.00  0.00     0.002 A 
HETATM   28  C   UNL     1      26.721  45.519  53.340  1.00  0.00     0.030 A 
ENDBRANCH   3  23
BRANCH   6  29
HETATM   29  C   UNL     1      27.279  39.535  49.873  1.00  0.00     0.010 A 
HETATM   30  C   UNL     1      26.970  38.246  49.376  1.00  0.00     0.152 A 
HETATM   31  N   UNL     1      27.924  37.347  49.636  1.00  0.00    -0.187 NA
HETATM   32  N   UNL     1      28.847  38.056  50.303  1.00  0.00    -0.289 N 
HETATM   33  H   UNL     1      29.688  37.580  50.612  1.00  0.00     0.188 HD
HETATM   34  C   UNL     1      28.513  39.369  50.468  1.00  0.00     0.123 A 
ENDBRANCH   6  29
TORSDOF 6
ENDMDL
