MODEL 1
REMARK VINA RESULT:     -10.3      0.000      0.000
REMARK  7 active torsions:
REMARK  status: ('A' for Active; 'I' for Inactive)
REMARK    1  A    between atoms: O_2  and  C_3 
REMARK    2  A    between atoms: C_5  and  C_6 
REMARK    3  A    between atoms: N_8  and  C_9 
REMARK    4  A    between atoms: C_9  and  C_10 
REMARK    5  A    between atoms: C_17  and  C_18 
REMARK       I    between atoms: C_18  and  N_19 
REMARK    6  A    between atoms: N_19  and  N_20 
REMARK       I    between atoms: N_20  and  C_21 
REMARK    7  A    between atoms: C_21  and  C_22 
ROOT
HETATM    1  C   UNL     1      27.421  44.536  53.072  1.00  0.00     0.104 A 
HETATM    2  N   UNL     1      28.307  44.799  54.053  1.00  0.00    -0.171 NA
HETATM    3  N   UNL     1      27.880  45.939  54.614  1.00  0.00    -0.275 N 
HETATM    4  C   UNL     1      26.733  46.415  54.054  1.00  0.00     0.132 A 
HETATM    5  C   UNL     1      26.394  45.537  53.035  1.00  0.00     0.082 A 
ENDROOT
BRANCH   5   6
HETATM    6  C   UNL     1      25.256  45.670  52.135  1.00  0.00     0.274 C 
HETATM    7  N   UNL     1      25.276  46.811  51.353  1.00  0.00    -0.263 N 
HETATM    8  H   UNL     1      25.925  47.575  51.528  1.00  0.00     0.190 HD
HETATM    9  O   UNL     1      24.333  44.861  52.068  1.00  0.00    -0.266 OA
BRANCH   7  10
HETATM   10  N   UNL     1      24.129  47.146  50.615  1.00  0.00    -0.262 N 
HETATM   11  C   UNL     1      24.217  48.180  49.707  1.00  0.00     0.286 C 
HETATM   12  O   UNL     1      25.289  48.741  49.474  1.00  0.00    -0.264 OA
HETATM   13  H   UNL     1      23.250  46.731  50.916  1.00  0.00     0.190 HD
BRANCH  11  14
HETATM   14  C   UNL     1      22.983  48.559  49.057  1.00  0.00     0.102 A 
HETATM   15  N   UNL     1      21.785  47.965  49.397  1.00  0.00    -0.361 N 
HETATM   16  H   UNL     1      21.696  47.244  50.103  1.00  0.00     0.165 HD
HETATM   17  C   UNL     1      20.763  48.491  48.652  1.00  0.00     0.088 A 
HETATM   18  C   UNL     1      21.301  49.437  47.813  1.00  0.00     0.019 A 
HETATM   19  C   UNL     1      22.695  49.483  48.064  1.00  0.00     0.036 A 
ENDBRANCH  11  14
ENDBRANCH   7  10
ENDBRANCH   5   6
BRANCH   1  20
HETATM   20  C   UNL     1      27.612  43.335  52.251  1.00  0.00    -0.002 A 
HETATM   21  C   UNL     1      27.322  43.318  50.881  1.00  0.00     0.050 A 
HETATM   22  C   UNL     1      27.500  42.157  50.120  1.00  0.00     0.069 A 
HETATM   23  C   UNL     1      27.943  40.987  50.738  1.00  0.00     0.037 A 
HETATM   24  C   UNL     1      28.217  40.982  52.106  1.00  0.00     0.004 A 
HETATM   25  C   UNL     1      28.054  42.147  52.856  1.00  0.00     0.014 A 
BRANCH  22  26
HETATM   26  O   UNL     1      27.194  42.289  48.792  1.00  0.00    -0.356 OA
HETATM   27  C   UNL     1      27.276  41.111  47.999  1.00  0.00     0.210 C 
ENDBRANCH  22  26
ENDBRANCH   1  20
BRANCH   3  28
HETATM   28  C   UNL     1      28.596  46.504  55.751  1.00  0.00     0.189 C 
BRANCH  28  29
HETATM   29  C   UNL     1      29.592  45.534  56.338  1.00  0.00    -0.038 A 
HETATM   30  C   UNL     1      30.113  44.487  55.563  1.00  0.00     0.009 A 
HETATM   31  C   UNL     1      31.056  43.610  56.102  1.00  0.00     0.001 A 
HETATM   32  C   UNL     1      31.488  43.768  57.417  1.00  0.00     0.000 A 
HETATM   33  C   UNL     1      30.978  44.804  58.197  1.00  0.00     0.001 A 
HETATM   34  C   UNL     1      30.037  45.683  57.661  1.00  0.00     0.009 A 
ENDBRANCH  28  29
ENDBRANCH   3  28
TORSDOF 7
ENDMDL
MODEL 2
REMARK VINA RESULT:     -10.2      2.953      5.527
REMARK  7 active torsions:
REMARK  status: ('A' for Active; 'I' for Inactive)
REMARK    1  A    between atoms: O_2  and  C_3 
REMARK    2  A    between atoms: C_5  and  C_6 
REMARK    3  A    between atoms: N_8  and  C_9 
REMARK    4  A    between atoms: C_9  and  C_10 
REMARK    5  A    between atoms: C_17  and  C_18 
REMARK       I    between atoms: C_18  and  N_19 
REMARK    6  A    between atoms: N_19  and  N_20 
REMARK       I    between atoms: N_20  and  C_21 
REMARK    7  A    between atoms: C_21  and  C_22 
ROOT
HETATM    1  C   UNL     1      25.416  47.018  50.865  1.00  0.00     0.104 A 
HETATM    2  N   UNL     1      25.838  47.130  52.140  1.00  0.00    -0.171 NA
HETATM    3  N   UNL     1      25.377  46.034  52.758  1.00  0.00    -0.275 N 
HETATM    4  C   UNL     1      24.695  45.197  51.928  1.00  0.00     0.132 A 
HETATM    5  C   UNL     1      24.685  45.798  50.677  1.00  0.00     0.082 A 
ENDROOT
BRANCH   5   6
HETATM    6  C   UNL     1      24.031  45.279  49.484  1.00  0.00     0.274 C 
HETATM    7  N   UNL     1      22.746  45.750  49.284  1.00  0.00    -0.263 N 
HETATM    8  H   UNL     1      22.241  46.261  50.004  1.00  0.00     0.190 HD
HETATM    9  O   UNL     1      24.548  44.474  48.711  1.00  0.00    -0.266 OA
BRANCH   7  10
HETATM   10  N   UNL     1      21.952  45.151  48.293  1.00  0.00    -0.262 N 
HETATM   11  C   UNL     1      21.657  45.884  47.163  1.00  0.00     0.286 C 
HETATM   12  O   UNL     1      22.145  46.999  46.974  1.00  0.00    -0.264 OA
HETATM   13  H   UNL     1      21.488  44.279  48.538  1.00  0.00     0.190 HD
BRANCH  11  14
HETATM   14  C   UNL     1      20.745  45.266  46.227  1.00  0.00     0.102 A 
HETATM   15  N   UNL     1      20.463  45.855  45.011  1.00  0.00    -0.361 N 
HETATM   16  H   UNL     1      20.866  46.733  44.705  1.00  0.00     0.165 HD
HETATM   17  C   UNL     1      19.581  45.085  44.301  1.00  0.00     0.088 A 
HETATM   18  C   UNL     1      19.280  43.982  45.064  1.00  0.00     0.019 A 
HETATM   19  C   UNL     1      20.009  44.093  46.275  1.00  0.00     0.036 A 
ENDBRANCH  11  14
ENDBRANCH   7  10
ENDBRANCH   5   6
BRANCH   1  20
HETATM   20  C   UNL     1      25.757  48.081  49.912  1.00  0.00    -0.002 A 
HETATM   21  C   UNL     1      24.794  48.682  49.093  1.00  0.00     0.050 A 
HETATM   22  C   UNL     1      25.145  49.686  48.182  1.00  0.00     0.069 A 
HETATM   23  C   UNL     1      26.480  50.073  48.062  1.00  0.00     0.037 A 
HETATM   24  C   UNL     1      27.455  49.470  48.856  1.00  0.00     0.004 A 
HETATM   25  C   UNL     1      27.096  48.482  49.775  1.00  0.00     0.014 A 
BRANCH  22  26
HETATM   26  O   UNL     1      24.099  50.195  47.459  1.00  0.00    -0.356 OA
HETATM   27  C   UNL     1      23.011  50.730  48.202  1.00  0.00     0.210 C 
ENDBRANCH  22  26
ENDBRANCH   1  20
BRANCH   3  28
HETATM   28  C   UNL     1      25.684  45.808  54.164  1.00  0.00     0.189 C 
BRANCH  28  29
HETATM   29  C   UNL     1      27.030  45.153  54.357  1.00  0.00    -0.038 A 
HETATM   30  C   UNL     1      28.044  45.801  55.078  1.00  0.00     0.009 A 
HETATM   31  C   UNL     1      29.278  45.179  55.278  1.00  0.00     0.001 A 
HETATM   32  C   UNL     1      29.512  43.906  54.763  1.00  0.00     0.000 A 
HETATM   33  C   UNL     1      28.513  43.252  54.045  1.00  0.00     0.001 A 
HETATM   34  C   UNL     1      27.279  43.870  53.845  1.00  0.00     0.009 A 
ENDBRANCH  28  29
ENDBRANCH   3  28
TORSDOF 7
ENDMDL
MODEL 3
REMARK VINA RESULT:     -10.0      2.644      6.571
REMARK  7 active torsions:
REMARK  status: ('A' for Active; 'I' for Inactive)
REMARK    1  A    between atoms: O_2  and  C_3 
REMARK    2  A    between atoms: C_5  and  C_6 
REMARK    3  A    between atoms: N_8  and  C_9 
REMARK    4  A    between atoms: C_9  and  C_10 
REMARK    5  A    between atoms: C_17  and  C_18 
REMARK       I    between atoms: C_18  and  N_19 
REMARK    6  A    between atoms: N_19  and  N_20 
REMARK       I    between atoms: N_20  and  C_21 
REMARK    7  A    between atoms: C_21  and  C_22 
ROOT
HETATM    1  C   UNL     1      26.097  46.368  51.263  1.00  0.00     0.104 A 
HETATM    2  N   UNL     1      26.307  46.655  52.563  1.00  0.00    -0.171 NA
HETATM    3  N   UNL     1      26.461  45.466  53.163  1.00  0.00    -0.275 N 
HETATM    4  C   UNL     1      26.388  44.416  52.298  1.00  0.00     0.132 A 
HETATM    5  C   UNL     1      26.143  44.951  51.042  1.00  0.00     0.082 A 
ENDROOT
BRANCH   5   6
HETATM    6  C   UNL     1      25.949  44.195  49.813  1.00  0.00     0.274 C 
HETATM    7  N   UNL     1      26.712  43.045  49.722  1.00  0.00    -0.263 N 
HETATM    8  H   UNL     1      27.473  42.849  50.369  1.00  0.00     0.190 HD
HETATM    9  O   UNL     1      25.192  44.536  48.907  1.00  0.00    -0.266 OA
BRANCH   7  10
HETATM   10  N   UNL     1      26.766  42.363  48.496  1.00  0.00    -0.262 N 
HETATM   11  C   UNL     1      27.562  41.239  48.410  1.00  0.00     0.286 C 
HETATM   12  O   UNL     1      28.142  40.785  49.397  1.00  0.00    -0.264 OA
HETATM   13  H   UNL     1      26.361  42.831  47.690  1.00  0.00     0.190 HD
BRANCH  11  14
HETATM   14  C   UNL     1      27.673  40.641  47.099  1.00  0.00     0.102 A 
HETATM   15  N   UNL     1      27.493  41.390  45.954  1.00  0.00    -0.361 N 
HETATM   16  H   UNL     1      27.278  42.380  45.959  1.00  0.00     0.165 HD
HETATM   17  C   UNL     1      27.652  40.608  44.842  1.00  0.00     0.088 A 
HETATM   18  C   UNL     1      27.934  39.331  45.264  1.00  0.00     0.019 A 
HETATM   19  C   UNL     1      27.948  39.348  46.682  1.00  0.00     0.036 A 
ENDBRANCH  11  14
ENDBRANCH   7  10
ENDBRANCH   5   6
BRANCH   1  20
HETATM   20  C   UNL     1      25.883  47.474  50.322  1.00  0.00    -0.002 A 
HETATM   21  C   UNL     1      24.602  47.871  49.922  1.00  0.00     0.050 A 
HETATM   22  C   UNL     1      24.422  48.921  49.013  1.00  0.00     0.069 A 
HETATM   23  C   UNL     1      25.536  49.562  48.470  1.00  0.00     0.037 A 
HETATM   24  C   UNL     1      26.820  49.165  48.843  1.00  0.00     0.004 A 
HETATM   25  C   UNL     1      26.992  48.130  49.763  1.00  0.00     0.014 A 
BRANCH  22  26
HETATM   26  O   UNL     1      23.115  49.213  48.724  1.00  0.00    -0.356 OA
HETATM   27  C   UNL     1      22.187  48.139  48.819  1.00  0.00     0.210 C 
ENDBRANCH  22  26
ENDBRANCH   1  20
BRANCH   3  28
HETATM   28  C   UNL     1      26.746  45.402  54.591  1.00  0.00     0.189 C 
BRANCH  28  29
HETATM   29  C   UNL     1      28.125  44.860  54.874  1.00  0.00    -0.038 A 
HETATM   30  C   UNL     1      29.050  45.611  55.616  1.00  0.00     0.009 A 
HETATM   31  C   UNL     1      30.315  45.092  55.901  1.00  0.00     0.001 A 
HETATM   32  C   UNL     1      30.670  43.822  55.450  1.00  0.00     0.000 A 
HETATM   33  C   UNL     1      29.760  43.067  54.712  1.00  0.00     0.001 A 
HETATM   34  C   UNL     1      28.495  43.582  54.428  1.00  0.00     0.009 A 
ENDBRANCH  28  29
ENDBRANCH   3  28
TORSDOF 7
ENDMDL
MODEL 4
REMARK VINA RESULT:      -9.9      2.425      6.213
REMARK  7 active torsions:
REMARK  status: ('A' for Active; 'I' for Inactive)
REMARK    1  A    between atoms: O_2  and  C_3 
REMARK    2  A    between atoms: C_5  and  C_6 
REMARK    3  A    between atoms: N_8  and  C_9 
REMARK    4  A    between atoms: C_9  and  C_10 
REMARK    5  A    between atoms: C_17  and  C_18 
REMARK       I    between atoms: C_18  and  N_19 
REMARK    6  A    between atoms: N_19  and  N_20 
REMARK       I    between atoms: N_20  and  C_21 
REMARK    7  A    between atoms: C_21  and  C_22 
ROOT
HETATM    1  C   UNL     1      27.543  42.527  51.848  1.00  0.00     0.104 A 
HETATM    2  N   UNL     1      27.364  41.194  51.769  1.00  0.00    -0.171 NA
HETATM    3  N   UNL     1      26.606  41.006  50.680  1.00  0.00    -0.275 N 
HETATM    4  C   UNL     1      26.308  42.165  50.028  1.00  0.00     0.132 A 
HETATM    5  C   UNL     1      26.892  43.192  50.755  1.00  0.00     0.082 A 
ENDROOT
BRANCH   5   6
HETATM    6  C   UNL     1      26.801  44.614  50.452  1.00  0.00     0.274 C 
HETATM    7  N   UNL     1      25.784  45.276  51.115  1.00  0.00    -0.263 N 
HETATM    8  H   UNL     1      25.054  44.778  51.620  1.00  0.00     0.190 HD
HETATM    9  O   UNL     1      27.540  45.197  49.662  1.00  0.00    -0.266 OA
BRANCH   7  10
HETATM   10  N   UNL     1      25.471  46.591  50.734  1.00  0.00    -0.262 N 
HETATM   11  C   UNL     1      24.365  46.791  49.933  1.00  0.00     0.286 C 
HETATM   12  O   UNL     1      23.614  45.862  49.630  1.00  0.00    -0.264 OA
HETATM   13  H   UNL     1      26.172  47.304  50.916  1.00  0.00     0.190 HD
BRANCH  11  14
HETATM   14  C   UNL     1      24.151  48.144  49.475  1.00  0.00     0.102 A 
HETATM   15  N   UNL     1      22.939  48.778  49.661  1.00  0.00    -0.361 N 
HETATM   16  H   UNL     1      22.144  48.347  50.117  1.00  0.00     0.165 HD
HETATM   17  C   UNL     1      22.981  50.047  49.149  1.00  0.00     0.088 A 
HETATM   18  C   UNL     1      24.233  50.245  48.619  1.00  0.00     0.019 A 
HETATM   19  C   UNL     1      24.971  49.051  48.822  1.00  0.00     0.036 A 
ENDBRANCH  11  14
ENDBRANCH   7  10
ENDBRANCH   5   6
BRANCH   1  20
HETATM   20  C   UNL     1      28.340  43.069  52.955  1.00  0.00    -0.002 A 
HETATM   21  C   UNL     1      27.855  44.082  53.792  1.00  0.00     0.050 A 
HETATM   22  C   UNL     1      28.638  44.592  54.835  1.00  0.00     0.069 A 
HETATM   23  C   UNL     1      29.934  44.111  55.025  1.00  0.00     0.037 A 
HETATM   24  C   UNL     1      30.438  43.117  54.186  1.00  0.00     0.004 A 
HETATM   25  C   UNL     1      29.647  42.600  53.160  1.00  0.00     0.014 A 
BRANCH  22  26
HETATM   26  O   UNL     1      28.031  45.565  55.584  1.00  0.00    -0.356 OA
HETATM   27  C   UNL     1      28.781  46.090  56.673  1.00  0.00     0.210 C 
ENDBRANCH  22  26
ENDBRANCH   1  20
BRANCH   3  28
HETATM   28  C   UNL     1      26.244  39.656  50.269  1.00  0.00     0.189 C 
BRANCH  28  29
HETATM   29  C   UNL     1      27.291  39.029  49.381  1.00  0.00    -0.038 A 
HETATM   30  C   UNL     1      27.070  38.893  48.002  1.00  0.00     0.009 A 
HETATM   31  C   UNL     1      28.054  38.338  47.180  1.00  0.00     0.001 A 
HETATM   32  C   UNL     1      29.265  37.917  47.724  1.00  0.00     0.000 A 
HETATM   33  C   UNL     1      29.497  38.047  49.092  1.00  0.00     0.001 A 
HETATM   34  C   UNL     1      28.517  38.602  49.915  1.00  0.00     0.009 A 
ENDBRANCH  28  29
ENDBRANCH   3  28
TORSDOF 7
ENDMDL
MODEL 5
REMARK VINA RESULT:      -9.9      1.952      3.175
REMARK  7 active torsions:
REMARK  status: ('A' for Active; 'I' for Inactive)
REMARK    1  A    between atoms: O_2  and  C_3 
REMARK    2  A    between atoms: C_5  and  C_6 
REMARK    3  A    between atoms: N_8  and  C_9 
REMARK    4  A    between atoms: C_9  and  C_10 
REMARK    5  A    between atoms: C_17  and  C_18 
REMARK       I    between atoms: C_18  and  N_19 
REMARK    6  A    between atoms: N_19  and  N_20 
REMARK       I    between atoms: N_20  and  C_21 
REMARK    7  A    between atoms: C_21  and  C_22 
ROOT
HETATM    1  C   UNL     1      27.365  42.417  50.461  1.00  0.00     0.104 A 
HETATM    2  N   UNL     1      27.989  41.687  51.406  1.00  0.00    -0.171 NA
HETATM    3  N   UNL     1      28.349  42.569  52.349  1.00  0.00    -0.275 N 
HETATM    4  C   UNL     1      27.958  43.843  52.069  1.00  0.00     0.132 A 
HETATM    5  C   UNL     1      27.315  43.800  50.840  1.00  0.00     0.082 A 
ENDROOT
BRANCH   5   6
HETATM    6  C   UNL     1      26.764  44.942  50.123  1.00  0.00     0.274 C 
HETATM    7  N   UNL     1      25.444  45.224  50.425  1.00  0.00    -0.263 N 
HETATM    8  H   UNL     1      24.861  44.579  50.955  1.00  0.00     0.190 HD
HETATM    9  O   UNL     1      27.390  45.606  49.300  1.00  0.00    -0.266 OA
BRANCH   7  10
HETATM   10  N   UNL     1      24.754  46.159  49.637  1.00  0.00    -0.262 N 
HETATM   11  C   UNL     1      24.508  47.407  50.170  1.00  0.00     0.286 C 
HETATM   12  O   UNL     1      24.955  47.735  51.270  1.00  0.00    -0.264 OA
HETATM   13  H   UNL     1      24.315  45.811  48.787  1.00  0.00     0.190 HD
BRANCH  11  14
HETATM   14  C   UNL     1      23.697  48.292  49.365  1.00  0.00     0.102 A 
HETATM   15  N   UNL     1      22.320  48.198  49.366  1.00  0.00    -0.361 N 
HETATM   16  H   UNL     1      21.804  47.520  49.916  1.00  0.00     0.165 HD
HETATM   17  C   UNL     1      21.777  49.139  48.534  1.00  0.00     0.088 A 
HETATM   18  C   UNL     1      22.811  49.855  47.980  1.00  0.00     0.019 A 
HETATM   19  C   UNL     1      24.019  49.325  48.499  1.00  0.00     0.036 A 
ENDBRANCH  11  14
ENDBRANCH   7  10
ENDBRANCH   5   6
BRANCH   1  20
HETATM   20  C   UNL     1      26.846  41.736  49.270  1.00  0.00    -0.002 A 
HETATM   21  C   UNL     1      25.477  41.499  49.087  1.00  0.00     0.050 A 
HETATM   22  C   UNL     1      25.005  40.836  47.948  1.00  0.00     0.069 A 
HETATM   23  C   UNL     1      25.911  40.373  46.994  1.00  0.00     0.037 A 
HETATM   24  C   UNL     1      27.279  40.582  47.171  1.00  0.00     0.004 A 
HETATM   25  C   UNL     1      27.742  41.259  48.300  1.00  0.00     0.014 A 
BRANCH  22  26
HETATM   26  O   UNL     1      23.645  40.689  47.893  1.00  0.00    -0.356 OA
HETATM   27  C   UNL     1      22.869  41.679  48.558  1.00  0.00     0.210 C 
ENDBRANCH  22  26
ENDBRANCH   1  20
BRANCH   3  28
HETATM   28  C   UNL     1      29.026  42.109  53.555  1.00  0.00     0.189 C 
BRANCH  28  29
HETATM   29  C   UNL     1      29.407  43.250  54.466  1.00  0.00    -0.038 A 
HETATM   30  C   UNL     1      28.500  44.288  54.730  1.00  0.00     0.009 A 
HETATM   31  C   UNL     1      28.846  45.326  55.597  1.00  0.00     0.001 A 
HETATM   32  C   UNL     1      30.098  45.340  56.208  1.00  0.00     0.000 A 
HETATM   33  C   UNL     1      31.008  44.315  55.954  1.00  0.00     0.001 A 
HETATM   34  C   UNL     1      30.664  43.275  55.090  1.00  0.00     0.009 A 
ENDBRANCH  28  29
ENDBRANCH   3  28
TORSDOF 7
ENDMDL
MODEL 6
REMARK VINA RESULT:      -9.7      3.006      5.868
REMARK  7 active torsions:
REMARK  status: ('A' for Active; 'I' for Inactive)
REMARK    1  A    between atoms: O_2  and  C_3 
REMARK    2  A    between atoms: C_5  and  C_6 
REMARK    3  A    between atoms: N_8  and  C_9 
REMARK    4  A    between atoms: C_9  and  C_10 
REMARK    5  A    between atoms: C_17  and  C_18 
REMARK       I    between atoms: C_18  and  N_19 
REMARK    6  A    between atoms: N_19  and  N_20 
REMARK       I    between atoms: N_20  and  C_21 
REMARK    7  A    between atoms: C_21  and  C_22 
ROOT
HETATM    1  C   UNL     1      26.098  46.415  51.173  1.00  0.00     0.104 A 
HETATM    2  N   UNL     1      26.216  46.669  52.491  1.00  0.00    -0.171 NA
HETATM    3  N   UNL     1      26.365  45.468  53.066  1.00  0.00    -0.275 N 
HETATM    4  C   UNL     1      26.378  44.442  52.170  1.00  0.00     0.132 A 
HETATM    5  C   UNL     1      26.200  45.008  50.916  1.00  0.00     0.082 A 
ENDROOT
BRANCH   5   6
HETATM    6  C   UNL     1      26.107  44.282  49.656  1.00  0.00     0.274 C 
HETATM    7  N   UNL     1      24.894  44.416  49.007  1.00  0.00    -0.263 N 
HETATM    8  H   UNL     1      24.081  44.827  49.460  1.00  0.00     0.190 HD
HETATM    9  O   UNL     1      27.010  43.588  49.194  1.00  0.00    -0.266 OA
BRANCH   7  10
HETATM   10  N   UNL     1      24.621  43.590  47.904  1.00  0.00    -0.262 N 
HETATM   11  C   UNL     1      23.444  42.873  47.902  1.00  0.00     0.286 C 
HETATM   12  O   UNL     1      22.604  43.012  48.793  1.00  0.00    -0.264 OA
HETATM   13  H   UNL     1      25.384  43.426  47.252  1.00  0.00     0.190 HD
BRANCH  11  14
HETATM   14  C   UNL     1      23.263  41.953  46.802  1.00  0.00     0.102 A 
HETATM   15  N   UNL     1      24.181  41.881  45.773  1.00  0.00    -0.361 N 
HETATM   16  H   UNL     1      25.016  42.453  45.725  1.00  0.00     0.165 HD
HETATM   17  C   UNL     1      23.798  40.940  44.856  1.00  0.00     0.088 A 
HETATM   18  C   UNL     1      22.614  40.392  45.288  1.00  0.00     0.019 A 
HETATM   19  C   UNL     1      22.275  41.026  46.510  1.00  0.00     0.036 A 
ENDBRANCH  11  14
ENDBRANCH   7  10
ENDBRANCH   5   6
BRANCH   1  20
HETATM   20  C   UNL     1      25.914  47.542  50.250  1.00  0.00    -0.002 A 
HETATM   21  C   UNL     1      24.645  47.952  49.824  1.00  0.00     0.050 A 
HETATM   22  C   UNL     1      24.494  49.023  48.934  1.00  0.00     0.069 A 
HETATM   23  C   UNL     1      25.624  49.672  48.436  1.00  0.00     0.037 A 
HETATM   24  C   UNL     1      26.896  49.262  48.836  1.00  0.00     0.004 A 
HETATM   25  C   UNL     1      27.040  48.206  49.737  1.00  0.00     0.014 A 
BRANCH  22  26
HETATM   26  O   UNL     1      23.197  49.326  48.616  1.00  0.00    -0.356 OA
HETATM   27  C   UNL     1      23.000  50.367  47.667  1.00  0.00     0.210 C 
ENDBRANCH  22  26
ENDBRANCH   1  20
BRANCH   3  28
HETATM   28  C   UNL     1      26.559  45.369  54.507  1.00  0.00     0.189 C 
BRANCH  28  29
HETATM   29  C   UNL     1      27.970  44.977  54.869  1.00  0.00    -0.038 A 
HETATM   30  C   UNL     1      28.774  45.829  55.641  1.00  0.00     0.009 A 
HETATM   31  C   UNL     1      30.070  45.448  55.997  1.00  0.00     0.001 A 
HETATM   32  C   UNL     1      30.575  44.216  55.588  1.00  0.00     0.000 A 
HETATM   33  C   UNL     1      29.786  43.361  54.820  1.00  0.00     0.001 A 
HETATM   34  C   UNL     1      28.491  43.738  54.464  1.00  0.00     0.009 A 
ENDBRANCH  28  29
ENDBRANCH   3  28
TORSDOF 7
ENDMDL
MODEL 7
REMARK VINA RESULT:      -9.7      2.362      6.393
REMARK  7 active torsions:
REMARK  status: ('A' for Active; 'I' for Inactive)
REMARK    1  A    between atoms: O_2  and  C_3 
REMARK    2  A    between atoms: C_5  and  C_6 
REMARK    3  A    between atoms: N_8  and  C_9 
REMARK    4  A    between atoms: C_9  and  C_10 
REMARK    5  A    between atoms: C_17  and  C_18 
REMARK       I    between atoms: C_18  and  N_19 
REMARK    6  A    between atoms: N_19  and  N_20 
REMARK       I    between atoms: N_20  and  C_21 
REMARK    7  A    between atoms: C_21  and  C_22 
ROOT
HETATM    1  C   UNL     1      26.328  46.276  52.829  1.00  0.00     0.104 A 
HETATM    2  N   UNL     1      26.780  47.094  53.800  1.00  0.00    -0.171 NA
HETATM    3  N   UNL     1      27.117  46.284  54.813  1.00  0.00    -0.275 N 
HETATM    4  C   UNL     1      26.929  44.965  54.528  1.00  0.00     0.132 A 
HETATM    5  C   UNL     1      26.407  44.905  53.244  1.00  0.00     0.082 A 
ENDROOT
BRANCH   5   6
HETATM    6  C   UNL     1      26.011  43.694  52.537  1.00  0.00     0.274 C 
HETATM    7  N   UNL     1      27.001  42.732  52.453  1.00  0.00    -0.263 N 
HETATM    8  H   UNL     1      27.969  42.929  52.697  1.00  0.00     0.190 HD
HETATM    9  O   UNL     1      24.904  43.524  52.032  1.00  0.00    -0.266 OA
BRANCH   7  10
HETATM   10  N   UNL     1      26.800  41.626  51.611  1.00  0.00    -0.262 N 
HETATM   11  C   UNL     1      27.885  40.830  51.310  1.00  0.00     0.286 C 
HETATM   12  O   UNL     1      28.986  41.020  51.831  1.00  0.00    -0.264 OA
HETATM   13  H   UNL     1      25.908  41.573  51.125  1.00  0.00     0.190 HD
BRANCH  11  14
HETATM   14  C   UNL     1      27.651  39.775  50.351  1.00  0.00     0.102 A 
HETATM   15  N   UNL     1      26.456  39.084  50.327  1.00  0.00    -0.361 N 
HETATM   16  H   UNL     1      25.689  39.267  50.963  1.00  0.00     0.165 HD
HETATM   17  C   UNL     1      26.470  38.141  49.335  1.00  0.00     0.088 A 
HETATM   18  C   UNL     1      27.689  38.214  48.704  1.00  0.00     0.019 A 
HETATM   19  C   UNL     1      28.434  39.239  49.340  1.00  0.00     0.036 A 
ENDBRANCH  11  14
ENDBRANCH   7  10
ENDBRANCH   5   6
BRANCH   1  20
HETATM   20  C   UNL     1      25.868  46.865  51.566  1.00  0.00    -0.002 A 
HETATM   21  C   UNL     1      26.680  47.716  50.805  1.00  0.00     0.050 A 
HETATM   22  C   UNL     1      26.216  48.276  49.609  1.00  0.00     0.069 A 
HETATM   23  C   UNL     1      24.914  48.011  49.182  1.00  0.00     0.037 A 
HETATM   24  C   UNL     1      24.087  47.183  49.939  1.00  0.00     0.004 A 
HETATM   25  C   UNL     1      24.561  46.613  51.121  1.00  0.00     0.014 A 
BRANCH  22  26
HETATM   26  O   UNL     1      27.121  49.074  48.960  1.00  0.00    -0.356 OA
HETATM   27  C   UNL     1      26.587  50.092  48.123  1.00  0.00     0.210 C 
ENDBRANCH  22  26
ENDBRANCH   1  20
BRANCH   3  28
HETATM   28  C   UNL     1      27.687  46.840  56.033  1.00  0.00     0.189 C 
BRANCH  28  29
HETATM   29  C   UNL     1      28.875  46.049  56.522  1.00  0.00    -0.038 A 
HETATM   30  C   UNL     1      29.224  46.049  57.881  1.00  0.00     0.009 A 
HETATM   31  C   UNL     1      30.307  45.292  58.333  1.00  0.00     0.001 A 
HETATM   32  C   UNL     1      31.050  44.528  57.435  1.00  0.00     0.000 A 
HETATM   33  C   UNL     1      30.714  44.520  56.083  1.00  0.00     0.001 A 
HETATM   34  C   UNL     1      29.632  45.274  55.629  1.00  0.00     0.009 A 
ENDBRANCH  28  29
ENDBRANCH   3  28
TORSDOF 7
ENDMDL
MODEL 8
REMARK VINA RESULT:      -9.7      5.093      9.748
REMARK  7 active torsions:
REMARK  status: ('A' for Active; 'I' for Inactive)
REMARK    1  A    between atoms: O_2  and  C_3 
REMARK    2  A    between atoms: C_5  and  C_6 
REMARK    3  A    between atoms: N_8  and  C_9 
REMARK    4  A    between atoms: C_9  and  C_10 
REMARK    5  A    between atoms: C_17  and  C_18 
REMARK       I    between atoms: C_18  and  N_19 
REMARK    6  A    between atoms: N_19  and  N_20 
REMARK       I    between atoms: N_20  and  C_21 
REMARK    7  A    between atoms: C_21  and  C_22 
ROOT
HETATM    1  C   UNL     1      23.158  49.078  49.233  1.00  0.00     0.104 A 
HETATM    2  N   UNL     1      22.683  50.190  49.828  1.00  0.00    -0.171 NA
HETATM    3  N   UNL     1      21.349  50.076  49.765  1.00  0.00    -0.275 N 
HETATM    4  C   UNL     1      20.936  48.919  49.177  1.00  0.00     0.132 A 
HETATM    5  C   UNL     1      22.082  48.232  48.804  1.00  0.00     0.082 A 
ENDROOT
BRANCH   5   6
HETATM    6  C   UNL     1      22.125  46.956  48.103  1.00  0.00     0.274 C 
HETATM    7  N   UNL     1      22.326  45.860  48.922  1.00  0.00    -0.263 N 
HETATM    8  H   UNL     1      22.607  45.957  49.895  1.00  0.00     0.190 HD
HETATM    9  O   UNL     1      22.013  46.836  46.885  1.00  0.00    -0.266 OA
BRANCH   7  10
HETATM   10  N   UNL     1      22.601  44.615  48.332  1.00  0.00    -0.262 N 
HETATM   11  C   UNL     1      22.814  43.534  49.161  1.00  0.00     0.286 C 
HETATM   12  O   UNL     1      22.681  43.624  50.383  1.00  0.00    -0.264 OA
HETATM   13  H   UNL     1      22.805  44.612  47.336  1.00  0.00     0.190 HD
BRANCH  11  14
HETATM   14  C   UNL     1      23.204  42.304  48.511  1.00  0.00     0.102 A 
HETATM   15  N   UNL     1      24.434  41.725  48.755  1.00  0.00    -0.361 N 
HETATM   16  H   UNL     1      25.122  42.115  49.388  1.00  0.00     0.165 HD
HETATM   17  C   UNL     1      24.571  40.572  48.031  1.00  0.00     0.088 A 
HETATM   18  C   UNL     1      23.420  40.396  47.301  1.00  0.00     0.019 A 
HETATM   19  C   UNL     1      22.559  41.482  47.600  1.00  0.00     0.036 A 
ENDBRANCH  11  14
ENDBRANCH   7  10
ENDBRANCH   5   6
BRANCH   1  20
HETATM   20  C   UNL     1      24.612  48.898  49.133  1.00  0.00    -0.002 A 
HETATM   21  C   UNL     1      25.256  47.765  49.647  1.00  0.00     0.050 A 
HETATM   22  C   UNL     1      26.645  47.620  49.551  1.00  0.00     0.069 A 
HETATM   23  C   UNL     1      27.406  48.631  48.965  1.00  0.00     0.037 A 
HETATM   24  C   UNL     1      26.782  49.775  48.467  1.00  0.00     0.004 A 
HETATM   25  C   UNL     1      25.395  49.906  48.550  1.00  0.00     0.014 A 
BRANCH  22  26
HETATM   26  O   UNL     1      27.138  46.456  50.080  1.00  0.00    -0.356 OA
HETATM   27  C   UNL     1      26.465  45.257  49.718  1.00  0.00     0.210 C 
ENDBRANCH  22  26
ENDBRANCH   1  20
BRANCH   3  28
HETATM   28  C   UNL     1      20.502  51.104  50.356  1.00  0.00     0.189 C 
BRANCH  28  29
HETATM   29  C   UNL     1      19.280  51.390  49.518  1.00  0.00    -0.038 A 
HETATM   30  C   UNL     1      18.009  50.973  49.941  1.00  0.00     0.009 A 
HETATM   31  C   UNL     1      16.878  51.264  49.176  1.00  0.00     0.001 A 
HETATM   32  C   UNL     1      17.003  51.975  47.984  1.00  0.00     0.000 A 
HETATM   33  C   UNL     1      18.259  52.395  47.553  1.00  0.00     0.001 A 
HETATM   34  C   UNL     1      19.391  52.106  48.316  1.00  0.00     0.009 A 
ENDBRANCH  28  29
ENDBRANCH   3  28
TORSDOF 7
ENDMDL
MODEL 9
REMARK VINA RESULT:      -9.5      2.923      8.754
REMARK  7 active torsions:
REMARK  status: ('A' for Active; 'I' for Inactive)
REMARK    1  A    between atoms: O_2  and  C_3 
REMARK    2  A    between atoms: C_5  and  C_6 
REMARK    3  A    between atoms: N_8  and  C_9 
REMARK    4  A    between atoms: C_9  and  C_10 
REMARK    5  A    between atoms: C_17  and  C_18 
REMARK       I    between atoms: C_18  and  N_19 
REMARK    6  A    between atoms: N_19  and  N_20 
REMARK       I    between atoms: N_20  and  C_21 
REMARK    7  A    between atoms: C_21  and  C_22 
ROOT
HETATM    1  C   UNL     1      25.330  45.802  50.968  1.00  0.00     0.104 A 
HETATM    2  N   UNL     1      24.239  46.548  50.706  1.00  0.00    -0.171 NA
HETATM    3  N   UNL     1      23.878  46.215  49.459  1.00  0.00    -0.275 N 
HETATM    4  C   UNL     1      24.674  45.257  48.909  1.00  0.00     0.132 A 
HETATM    5  C   UNL     1      25.646  44.957  49.852  1.00  0.00     0.082 A 
ENDROOT
BRANCH   5   6
HETATM    6  C   UNL     1      26.741  44.011  49.681  1.00  0.00     0.274 C 
HETATM    7  N   UNL     1      26.391  42.842  49.032  1.00  0.00    -0.263 N 
HETATM    8  H   UNL     1      25.420  42.589  48.859  1.00  0.00     0.190 HD
HETATM    9  O   UNL     1      27.885  44.203  50.088  1.00  0.00    -0.266 OA
BRANCH   7  10
HETATM   10  N   UNL     1      27.308  41.779  49.009  1.00  0.00    -0.262 N 
HETATM   11  C   UNL     1      27.148  40.761  49.925  1.00  0.00     0.286 C 
HETATM   12  O   UNL     1      26.180  40.726  50.686  1.00  0.00    -0.264 OA
HETATM   13  H   UNL     1      28.144  41.903  48.442  1.00  0.00     0.190 HD
BRANCH  11  14
HETATM   14  C   UNL     1      28.182  39.750  49.936  1.00  0.00     0.102 A 
HETATM   15  N   UNL     1      28.848  39.423  51.100  1.00  0.00    -0.361 N 
HETATM   16  H   UNL     1      28.661  39.858  51.995  1.00  0.00     0.165 HD
HETATM   17  C   UNL     1      29.773  38.443  50.861  1.00  0.00     0.088 A 
HETATM   18  C   UNL     1      29.714  38.127  49.524  1.00  0.00     0.019 A 
HETATM   19  C   UNL     1      28.715  38.947  48.940  1.00  0.00     0.036 A 
ENDBRANCH  11  14
ENDBRANCH   7  10
ENDBRANCH   5   6
BRANCH   1  20
HETATM   20  C   UNL     1      25.982  45.938  52.276  1.00  0.00    -0.002 A 
HETATM   21  C   UNL     1      26.442  44.829  52.995  1.00  0.00     0.050 A 
HETATM   22  C   UNL     1      27.051  44.982  54.246  1.00  0.00     0.069 A 
HETATM   23  C   UNL     1      27.173  46.255  54.804  1.00  0.00     0.037 A 
HETATM   24  C   UNL     1      26.701  47.368  54.109  1.00  0.00     0.004 A 
HETATM   25  C   UNL     1      26.112  47.212  52.854  1.00  0.00     0.014 A 
BRANCH  22  26
HETATM   26  O   UNL     1      27.468  43.814  54.828  1.00  0.00    -0.356 OA
HETATM   27  C   UNL     1      27.582  42.682  53.975  1.00  0.00     0.210 C 
ENDBRANCH  22  26
ENDBRANCH   1  20
BRANCH   3  28
HETATM   28  C   UNL     1      22.694  46.816  48.859  1.00  0.00     0.189 C 
BRANCH  28  29
HETATM   29  C   UNL     1      22.785  48.321  48.799  1.00  0.00    -0.038 A 
HETATM   30  C   UNL     1      23.962  48.950  48.365  1.00  0.00     0.009 A 
HETATM   31  C   UNL     1      24.031  50.342  48.284  1.00  0.00     0.001 A 
HETATM   32  C   UNL     1      22.929  51.120  48.634  1.00  0.00     0.000 A 
HETATM   33  C   UNL     1      21.755  50.507  49.066  1.00  0.00     0.001 A 
HETATM   34  C   UNL     1      21.682  49.117  49.147  1.00  0.00     0.009 A 
ENDBRANCH  28  29
ENDBRANCH   3  28
TORSDOF 7
ENDMDL
MODEL 10
REMARK VINA RESULT:      -9.2      2.786      9.343
REMARK  7 active torsions:
REMARK  status: ('A' for Active; 'I' for Inactive)
REMARK    1  A    between atoms: O_2  and  C_3 
REMARK    2  A    between atoms: C_5  and  C_6 
REMARK    3  A    between atoms: N_8  and  C_9 
REMARK    4  A    between atoms: C_9  and  C_10 
REMARK    5  A    between atoms: C_17  and  C_18 
REMARK       I    between atoms: C_18  and  N_19 
REMARK    6  A    between atoms: N_19  and  N_20 
REMARK       I    between atoms: N_20  and  C_21 
REMARK    7  A    between atoms: C_21  and  C_22 
ROOT
HETATM    1  C   UNL     1      22.711  47.435  48.402  1.00  0.00     0.104 A 
HETATM    2  N   UNL     1      22.034  48.566  48.122  1.00  0.00    -0.171 NA
HETATM    3  N   UNL     1      22.689  49.536  48.775  1.00  0.00    -0.275 N 
HETATM    4  C   UNL     1      23.785  49.085  49.447  1.00  0.00     0.132 A 
HETATM    5  C   UNL     1      23.841  47.714  49.241  1.00  0.00     0.082 A 
ENDROOT
BRANCH   5   6
HETATM    6  C   UNL     1      24.829  46.804  49.805  1.00  0.00     0.274 C 
HETATM    7  N   UNL     1      24.844  46.762  51.188  1.00  0.00    -0.263 N 
HETATM    8  H   UNL     1      24.343  47.443  51.754  1.00  0.00     0.190 HD
HETATM    9  O   UNL     1      25.608  46.132  49.134  1.00  0.00    -0.266 OA
BRANCH   7  10
HETATM   10  N   UNL     1      25.895  46.090  51.833  1.00  0.00    -0.262 N 
HETATM   11  C   UNL     1      25.591  44.970  52.578  1.00  0.00     0.286 C 
HETATM   12  O   UNL     1      24.450  44.509  52.610  1.00  0.00    -0.264 OA
HETATM   13  H   UNL     1      26.794  46.564  51.866  1.00  0.00     0.190 HD
BRANCH  11  14
HETATM   14  C   UNL     1      26.688  44.382  53.313  1.00  0.00     0.102 A 
HETATM   15  N   UNL     1      26.847  43.013  53.386  1.00  0.00    -0.361 N 
HETATM   16  H   UNL     1      26.221  42.351  52.941  1.00  0.00     0.165 HD
HETATM   17  C   UNL     1      27.952  42.699  54.130  1.00  0.00     0.088 A 
HETATM   18  C   UNL     1      28.522  43.877  54.551  1.00  0.00     0.019 A 
HETATM   19  C   UNL     1      27.730  44.936  54.040  1.00  0.00     0.036 A 
ENDBRANCH  11  14
ENDBRANCH   7  10
ENDBRANCH   5   6
BRANCH   1  20
HETATM   20  C   UNL     1      22.237  46.169  47.831  1.00  0.00    -0.002 A 
HETATM   21  C   UNL     1      22.442  44.942  48.474  1.00  0.00     0.050 A 
HETATM   22  C   UNL     1      21.992  43.744  47.904  1.00  0.00     0.069 A 
HETATM   23  C   UNL     1      21.358  43.767  46.662  1.00  0.00     0.037 A 
HETATM   24  C   UNL     1      21.164  44.979  45.999  1.00  0.00     0.004 A 
HETATM   25  C   UNL     1      21.599  46.170  46.580  1.00  0.00     0.014 A 
BRANCH  22  26
HETATM   26  O   UNL     1      22.245  42.624  48.650  1.00  0.00    -0.356 OA
HETATM   27  C   UNL     1      22.966  42.814  49.861  1.00  0.00     0.210 C 
ENDBRANCH  22  26
ENDBRANCH   1  20
BRANCH   3  28
HETATM   28  C   UNL     1      22.243  50.919  48.663  1.00  0.00     0.189 C 
BRANCH  28  29
HETATM   29  C   UNL     1      20.799  51.088  49.066  1.00  0.00    -0.038 A 
HETATM   30  C   UNL     1      19.979  52.022  48.414  1.00  0.00     0.009 A 
HETATM   31  C   UNL     1      18.636  52.154  48.772  1.00  0.00     0.001 A 
HETATM   32  C   UNL     1      18.098  51.358  49.781  1.00  0.00     0.000 A 
HETATM   33  C   UNL     1      18.902  50.428  50.437  1.00  0.00     0.001 A 
HETATM   34  C   UNL     1      20.244  50.292  50.080  1.00  0.00     0.009 A 
ENDBRANCH  28  29
ENDBRANCH   3  28
TORSDOF 7
ENDMDL
