MODEL 1
REMARK VINA RESULT:      -7.4      0.000      0.000
REMARK  4 active torsions:
REMARK  status: ('A' for Active; 'I' for Inactive)
REMARK    1  A    between atoms: C_2  and  O_3 
REMARK    2  A    between atoms: O_3  and  C_4 
REMARK    3  A    between atoms: C_7  and  N_8 
REMARK       I    between atoms: N_8  and  C_9 
REMARK    4  A    between atoms: C_9  and  C_10 
ROOT
HETATM    1  N   UNL     1      25.010  47.231  51.072  1.00  0.00    -0.323 N 
HETATM    2  C   UNL     1      25.510  47.952  50.002  1.00  0.00     0.257 C 
HETATM    3  O   UNL     1      26.686  48.042  49.671  1.00  0.00    -0.267 OA
HETATM    4  H   UNL     1      24.008  47.173  51.178  1.00  0.00     0.169 HD
ENDROOT
BRANCH   1   5
HETATM    5  C   UNL     1      25.749  46.516  52.042  1.00  0.00     0.035 A 
HETATM    6  C   UNL     1      26.362  45.283  51.810  1.00  0.00     0.032 A 
HETATM    7  C   UNL     1      27.096  44.651  52.822  1.00  0.00     0.039 A 
HETATM    8  C   UNL     1      27.247  45.262  54.062  1.00  0.00     0.069 A 
HETATM    9  C   UNL     1      26.608  46.471  54.316  1.00  0.00     0.039 A 
HETATM   10  C   UNL     1      25.868  47.099  53.310  1.00  0.00     0.032 A 
BRANCH   8  11
HETATM   11  O   UNL     1      27.935  44.706  55.104  1.00  0.00    -0.347 OA
BRANCH  11  12
HETATM   12  C   UNL     1      29.349  44.952  55.105  1.00  0.00     0.120 C 
HETATM   13  C   UNL     1      30.055  43.602  55.050  1.00  0.00     0.040 C 
HETATM   14  C   UNL     1      29.694  45.690  56.395  1.00  0.00     0.040 C 
ENDBRANCH  11  12
ENDBRANCH   8  11
ENDBRANCH   1   5
BRANCH   2  15
HETATM   15  C   UNL     1      24.505  48.670  49.175  1.00  0.00     0.051 A 
HETATM   16  C   UNL     1      24.957  49.635  48.277  1.00  0.00     0.133 A 
HETATM   17  N   UNL     1      24.144  50.361  47.468  1.00  0.00    -0.271 NA
HETATM   18  C   UNL     1      22.816  50.127  47.574  1.00  0.00     0.135 A 
HETATM   19  C   UNL     1      22.272  49.202  48.452  1.00  0.00     0.029 A 
HETATM   20 BR   UNL     1      20.405  48.946  48.544  1.00  0.00    -0.050 Br
HETATM   21  C   UNL     1      23.125  48.464  49.271  1.00  0.00     0.039 A 
ENDBRANCH   2  15
TORSDOF 4
ENDMDL
MODEL 2
REMARK VINA RESULT:      -7.1      4.772      9.622
REMARK  4 active torsions:
REMARK  status: ('A' for Active; 'I' for Inactive)
REMARK    1  A    between atoms: C_2  and  O_3 
REMARK    2  A    between atoms: O_3  and  C_4 
REMARK    3  A    between atoms: C_7  and  N_8 
REMARK       I    between atoms: N_8  and  C_9 
REMARK    4  A    between atoms: C_9  and  C_10 
ROOT
HETATM    1  N   UNL     1      22.059  49.732  49.594  1.00  0.00    -0.323 N 
HETATM    2  C   UNL     1      22.411  48.543  48.979  1.00  0.00     0.257 C 
HETATM    3  O   UNL     1      21.708  47.876  48.228  1.00  0.00    -0.267 OA
HETATM    4  H   UNL     1      22.768  50.221  50.120  1.00  0.00     0.169 HD
ENDROOT
BRANCH   1   5
HETATM    5  C   UNL     1      20.804  50.381  49.547  1.00  0.00     0.035 A 
HETATM    6  C   UNL     1      19.690  49.990  50.291  1.00  0.00     0.032 A 
HETATM    7  C   UNL     1      18.487  50.702  50.201  1.00  0.00     0.039 A 
HETATM    8  C   UNL     1      18.401  51.828  49.389  1.00  0.00     0.069 A 
HETATM    9  C   UNL     1      19.493  52.203  48.613  1.00  0.00     0.039 A 
HETATM   10  C   UNL     1      20.691  51.488  48.695  1.00  0.00     0.032 A 
BRANCH   8  11
HETATM   11  O   UNL     1      17.262  52.568  49.236  1.00  0.00    -0.347 OA
BRANCH  11  12
HETATM   12  C   UNL     1      16.037  51.820  49.257  1.00  0.00     0.120 C 
HETATM   13  C   UNL     1      15.656  51.512  47.814  1.00  0.00     0.040 C 
HETATM   14  C   UNL     1      14.973  52.684  49.926  1.00  0.00     0.040 C 
ENDBRANCH  11  12
ENDBRANCH   8  11
ENDBRANCH   1   5
BRANCH   2  15
HETATM   15  C   UNL     1      23.785  48.049  49.256  1.00  0.00     0.051 A 
HETATM   16  C   UNL     1      23.934  46.759  49.761  1.00  0.00     0.133 A 
HETATM   17  N   UNL     1      25.130  46.192  50.058  1.00  0.00    -0.271 NA
HETATM   18  C   UNL     1      26.229  46.953  49.858  1.00  0.00     0.135 A 
HETATM   19  C   UNL     1      26.180  48.253  49.378  1.00  0.00     0.029 A 
HETATM   20 BR   UNL     1      27.762  49.252  49.141  1.00  0.00    -0.050 Br
HETATM   21  C   UNL     1      24.940  48.816  49.077  1.00  0.00     0.039 A 
ENDBRANCH   2  15
TORSDOF 4
ENDMDL
MODEL 3
REMARK VINA RESULT:      -6.9      4.597      5.271
REMARK  4 active torsions:
REMARK  status: ('A' for Active; 'I' for Inactive)
REMARK    1  A    between atoms: C_2  and  O_3 
REMARK    2  A    between atoms: O_3  and  C_4 
REMARK    3  A    between atoms: C_7  and  N_8 
REMARK       I    between atoms: N_8  and  C_9 
REMARK    4  A    between atoms: C_9  and  C_10 
ROOT
HETATM    1  N   UNL     1      26.676  43.540  52.560  1.00  0.00    -0.323 N 
HETATM    2  C   UNL     1      26.611  43.742  51.192  1.00  0.00     0.257 C 
HETATM    3  O   UNL     1      27.475  44.255  50.491  1.00  0.00    -0.267 OA
HETATM    4  H   UNL     1      25.927  43.025  52.999  1.00  0.00     0.169 HD
ENDROOT
BRANCH   1   5
HETATM    5  C   UNL     1      27.707  43.947  53.436  1.00  0.00     0.035 A 
HETATM    6  C   UNL     1      27.686  45.130  54.177  1.00  0.00     0.032 A 
HETATM    7  C   UNL     1      28.741  45.449  55.041  1.00  0.00     0.039 A 
HETATM    8  C   UNL     1      29.811  44.572  55.192  1.00  0.00     0.069 A 
HETATM    9  C   UNL     1      29.860  43.410  54.429  1.00  0.00     0.039 A 
HETATM   10  C   UNL     1      28.812  43.095  53.560  1.00  0.00     0.032 A 
BRANCH   8  11
HETATM   11  O   UNL     1      30.883  44.815  56.002  1.00  0.00    -0.347 OA
BRANCH  11  12
HETATM   12  C   UNL     1      30.872  44.121  57.259  1.00  0.00     0.120 C 
HETATM   13  C   UNL     1      30.884  45.167  58.367  1.00  0.00     0.040 C 
HETATM   14  C   UNL     1      32.123  43.250  57.322  1.00  0.00     0.040 C 
ENDBRANCH  11  12
ENDBRANCH   8  11
ENDBRANCH   1   5
BRANCH   2  15
HETATM   15  C   UNL     1      25.371  43.269  50.522  1.00  0.00     0.051 A 
HETATM   16  C   UNL     1      24.148  43.760  50.974  1.00  0.00     0.133 A 
HETATM   17  N   UNL     1      22.947  43.407  50.452  1.00  0.00    -0.271 NA
HETATM   18  C   UNL     1      22.965  42.508  49.442  1.00  0.00     0.135 A 
HETATM   19  C   UNL     1      24.130  41.949  48.938  1.00  0.00     0.029 A 
HETATM   20 BR   UNL     1      24.064  40.690  47.535  1.00  0.00    -0.050 Br
HETATM   21  C   UNL     1      25.353  42.328  49.488  1.00  0.00     0.039 A 
ENDBRANCH   2  15
TORSDOF 4
ENDMDL
MODEL 4
REMARK VINA RESULT:      -6.9      4.833      9.508
REMARK  4 active torsions:
REMARK  status: ('A' for Active; 'I' for Inactive)
REMARK    1  A    between atoms: C_2  and  O_3 
REMARK    2  A    between atoms: O_3  and  C_4 
REMARK    3  A    between atoms: C_7  and  N_8 
REMARK       I    between atoms: N_8  and  C_9 
REMARK    4  A    between atoms: C_9  and  C_10 
ROOT
HETATM    1  N   UNL     1      22.273  50.068  49.605  1.00  0.00    -0.323 N 
HETATM    2  C   UNL     1      23.081  49.726  48.534  1.00  0.00     0.257 C 
HETATM    3  O   UNL     1      22.811  49.861  47.347  1.00  0.00    -0.267 OA
HETATM    4  H   UNL     1      22.657  49.983  50.535  1.00  0.00     0.169 HD
ENDROOT
BRANCH   1   5
HETATM    5  C   UNL     1      20.952  50.569  49.554  1.00  0.00     0.035 A 
HETATM    6  C   UNL     1      20.559  51.669  48.790  1.00  0.00     0.032 A 
HETATM    7  C   UNL     1      19.222  52.088  48.779  1.00  0.00     0.039 A 
HETATM    8  C   UNL     1      18.265  51.390  49.509  1.00  0.00     0.069 A 
HETATM    9  C   UNL     1      18.653  50.317  50.304  1.00  0.00     0.039 A 
HETATM   10  C   UNL     1      19.988  49.904  50.323  1.00  0.00     0.032 A 
BRANCH   8  11
HETATM   11  O   UNL     1      16.946  51.742  49.562  1.00  0.00    -0.347 OA
BRANCH  11  12
HETATM   12  C   UNL     1      16.285  51.834  48.291  1.00  0.00     0.120 C 
HETATM   13  C   UNL     1      15.179  52.875  48.417  1.00  0.00     0.040 C 
HETATM   14  C   UNL     1      15.702  50.462  47.966  1.00  0.00     0.040 C 
ENDBRANCH  11  12
ENDBRANCH   8  11
ENDBRANCH   1   5
BRANCH   2  15
HETATM   15  C   UNL     1      24.409  49.154  48.878  1.00  0.00     0.051 A 
HETATM   16  C   UNL     1      25.547  49.771  48.364  1.00  0.00     0.133 A 
HETATM   17  N   UNL     1      26.815  49.347  48.599  1.00  0.00    -0.271 NA
HETATM   18  C   UNL     1      26.952  48.244  49.369  1.00  0.00     0.135 A 
HETATM   19  C   UNL     1      25.879  47.552  49.910  1.00  0.00     0.029 A 
HETATM   20 BR   UNL     1      26.160  46.014  50.965  1.00  0.00    -0.050 Br
HETATM   21  C   UNL     1      24.586  48.006  49.658  1.00  0.00     0.039 A 
ENDBRANCH   2  15
TORSDOF 4
ENDMDL
MODEL 5
REMARK VINA RESULT:      -6.9      1.780      2.379
REMARK  4 active torsions:
REMARK  status: ('A' for Active; 'I' for Inactive)
REMARK    1  A    between atoms: C_2  and  O_3 
REMARK    2  A    between atoms: O_3  and  C_4 
REMARK    3  A    between atoms: C_7  and  N_8 
REMARK       I    between atoms: N_8  and  C_9 
REMARK    4  A    between atoms: C_9  and  C_10 
ROOT
HETATM    1  N   UNL     1      25.408  46.894  52.263  1.00  0.00    -0.323 N 
HETATM    2  C   UNL     1      25.619  46.586  50.930  1.00  0.00     0.257 C 
HETATM    3  O   UNL     1      26.556  45.942  50.472  1.00  0.00    -0.267 OA
HETATM    4  H   UNL     1      24.547  47.359  52.511  1.00  0.00     0.169 HD
ENDROOT
BRANCH   1   5
HETATM    5  C   UNL     1      26.257  46.600  53.354  1.00  0.00     0.035 A 
HETATM    6  C   UNL     1      26.990  47.556  54.058  1.00  0.00     0.032 A 
HETATM    7  C   UNL     1      27.793  47.182  55.143  1.00  0.00     0.039 A 
HETATM    8  C   UNL     1      27.843  45.852  55.550  1.00  0.00     0.069 A 
HETATM    9  C   UNL     1      27.148  44.886  54.831  1.00  0.00     0.039 A 
HETATM   10  C   UNL     1      26.353  45.257  53.742  1.00  0.00     0.032 A 
BRANCH   8  11
HETATM   11  O   UNL     1      28.611  45.404  56.587  1.00  0.00    -0.347 OA
BRANCH  11  12
HETATM   12  C   UNL     1      30.003  45.748  56.513  1.00  0.00     0.120 C 
HETATM   13  C   UNL     1      30.743  44.560  55.911  1.00  0.00     0.040 C 
HETATM   14  C   UNL     1      30.491  46.029  57.931  1.00  0.00     0.040 C 
ENDBRANCH  11  12
ENDBRANCH   8  11
ENDBRANCH   1   5
BRANCH   2  15
HETATM   15  C   UNL     1      24.591  47.080  49.977  1.00  0.00     0.051 A 
HETATM   16  C   UNL     1      23.684  46.163  49.450  1.00  0.00     0.133 A 
HETATM   17  N   UNL     1      22.702  46.484  48.570  1.00  0.00    -0.271 NA
HETATM   18  C   UNL     1      22.633  47.778  48.185  1.00  0.00     0.135 A 
HETATM   19  C   UNL     1      23.502  48.758  48.639  1.00  0.00     0.029 A 
HETATM   20 BR   UNL     1      23.343  50.539  48.039  1.00  0.00    -0.050 Br
HETATM   21  C   UNL     1      24.502  48.407  49.545  1.00  0.00     0.039 A 
ENDBRANCH   2  15
TORSDOF 4
ENDMDL
MODEL 6
REMARK VINA RESULT:      -6.7      4.109      8.326
REMARK  4 active torsions:
REMARK  status: ('A' for Active; 'I' for Inactive)
REMARK    1  A    between atoms: C_2  and  O_3 
REMARK    2  A    between atoms: O_3  and  C_4 
REMARK    3  A    between atoms: C_7  and  N_8 
REMARK       I    between atoms: N_8  and  C_9 
REMARK    4  A    between atoms: C_9  and  C_10 
ROOT
HETATM    1  N   UNL     1      26.385  45.301  51.125  1.00  0.00    -0.323 N 
HETATM    2  C   UNL     1      27.077  44.218  50.611  1.00  0.00     0.257 C 
HETATM    3  O   UNL     1      27.229  43.947  49.426  1.00  0.00    -0.267 OA
HETATM    4  H   UNL     1      26.413  45.452  52.122  1.00  0.00     0.169 HD
ENDROOT
BRANCH   1   5
HETATM    5  C   UNL     1      25.652  46.268  50.400  1.00  0.00     0.035 A 
HETATM    6  C   UNL     1      24.320  46.114  50.011  1.00  0.00     0.032 A 
HETATM    7  C   UNL     1      23.659  47.133  49.313  1.00  0.00     0.039 A 
HETATM    8  C   UNL     1      24.318  48.324  49.025  1.00  0.00     0.069 A 
HETATM    9  C   UNL     1      25.656  48.472  49.374  1.00  0.00     0.039 A 
HETATM   10  C   UNL     1      26.320  47.453  50.063  1.00  0.00     0.032 A 
BRANCH   8  11
HETATM   11  O   UNL     1      23.749  49.359  48.338  1.00  0.00    -0.347 OA
BRANCH  11  12
HETATM   12  C   UNL     1      22.528  49.868  48.895  1.00  0.00     0.120 C 
HETATM   13  C   UNL     1      21.471  49.844  47.797  1.00  0.00     0.040 C 
HETATM   14  C   UNL     1      22.789  51.296  49.365  1.00  0.00     0.040 C 
ENDBRANCH  11  12
ENDBRANCH   8  11
ENDBRANCH   1   5
BRANCH   2  15
HETATM   15  C   UNL     1      27.705  43.314  51.611  1.00  0.00     0.051 A 
HETATM   16  C   UNL     1      27.387  41.958  51.567  1.00  0.00     0.133 A 
HETATM   17  N   UNL     1      27.888  41.031  52.422  1.00  0.00    -0.271 NA
HETATM   18  C   UNL     1      28.733  41.481  53.377  1.00  0.00     0.135 A 
HETATM   19  C   UNL     1      29.093  42.813  53.512  1.00  0.00     0.029 A 
HETATM   20 BR   UNL     1      30.269  43.358  54.883  1.00  0.00    -0.050 Br
HETATM   21  C   UNL     1      28.569  43.749  52.621  1.00  0.00     0.039 A 
ENDBRANCH   2  15
TORSDOF 4
ENDMDL
MODEL 7
REMARK VINA RESULT:      -6.6      6.433      7.984
REMARK  4 active torsions:
REMARK  status: ('A' for Active; 'I' for Inactive)
REMARK    1  A    between atoms: C_2  and  O_3 
REMARK    2  A    between atoms: O_3  and  C_4 
REMARK    3  A    between atoms: C_7  and  N_8 
REMARK       I    between atoms: N_8  and  C_9 
REMARK    4  A    between atoms: C_9  and  C_10 
ROOT
HETATM    1  N   UNL     1      28.815  41.030  51.334  1.00  0.00    -0.323 N 
HETATM    2  C   UNL     1      28.134  41.093  50.131  1.00  0.00     0.257 C 
HETATM    3  O   UNL     1      27.404  42.003  49.755  1.00  0.00    -0.267 OA
HETATM    4  H   UNL     1      29.452  40.261  51.478  1.00  0.00     0.169 HD
ENDROOT
BRANCH   1   5
HETATM    5  C   UNL     1      28.754  41.955  52.401  1.00  0.00     0.035 A 
HETATM    6  C   UNL     1      29.864  42.607  52.940  1.00  0.00     0.032 A 
HETATM    7  C   UNL     1      29.712  43.527  53.985  1.00  0.00     0.039 A 
HETATM    8  C   UNL     1      28.445  43.823  54.478  1.00  0.00     0.069 A 
HETATM    9  C   UNL     1      27.337  43.149  53.975  1.00  0.00     0.039 A 
HETATM   10  C   UNL     1      27.488  42.224  52.939  1.00  0.00     0.032 A 
BRANCH   8  11
HETATM   11  O   UNL     1      28.214  44.696  55.503  1.00  0.00    -0.347 OA
BRANCH  11  12
HETATM   12  C   UNL     1      29.104  45.821  55.562  1.00  0.00     0.120 C 
HETATM   13  C   UNL     1      29.567  45.971  57.006  1.00  0.00     0.040 C 
HETATM   14  C   UNL     1      28.329  47.055  55.111  1.00  0.00     0.040 C 
ENDBRANCH  11  12
ENDBRANCH   8  11
ENDBRANCH   1   5
BRANCH   2  15
HETATM   15  C   UNL     1      28.331  39.943  49.210  1.00  0.00     0.051 A 
HETATM   16  C   UNL     1      29.026  38.831  49.682  1.00  0.00     0.133 A 
HETATM   17  N   UNL     1      29.275  37.720  48.943  1.00  0.00    -0.271 NA
HETATM   18  C   UNL     1      28.824  37.726  47.669  1.00  0.00     0.135 A 
HETATM   19  C   UNL     1      28.140  38.792  47.105  1.00  0.00     0.029 A 
HETATM   20 BR   UNL     1      27.558  38.723  45.313  1.00  0.00    -0.050 Br
HETATM   21  C   UNL     1      27.893  39.923  47.883  1.00  0.00     0.039 A 
ENDBRANCH   2  15
TORSDOF 4
ENDMDL
MODEL 8
REMARK VINA RESULT:      -6.6      1.886      2.204
REMARK  4 active torsions:
REMARK  status: ('A' for Active; 'I' for Inactive)
REMARK    1  A    between atoms: C_2  and  O_3 
REMARK    2  A    between atoms: O_3  and  C_4 
REMARK    3  A    between atoms: C_7  and  N_8 
REMARK       I    between atoms: N_8  and  C_9 
REMARK    4  A    between atoms: C_9  and  C_10 
ROOT
HETATM    1  N   UNL     1      24.666  45.916  51.349  1.00  0.00    -0.323 N 
HETATM    2  C   UNL     1      24.653  45.981  49.967  1.00  0.00     0.257 C 
HETATM    3  O   UNL     1      25.389  45.368  49.203  1.00  0.00    -0.267 OA
HETATM    4  H   UNL     1      23.944  46.410  51.854  1.00  0.00     0.169 HD
ENDROOT
BRANCH   1   5
HETATM    5  C   UNL     1      25.570  45.196  52.163  1.00  0.00     0.035 A 
HETATM    6  C   UNL     1      25.697  43.806  52.155  1.00  0.00     0.032 A 
HETATM    7  C   UNL     1      26.635  43.171  52.978  1.00  0.00     0.039 A 
HETATM    8  C   UNL     1      27.473  43.925  53.794  1.00  0.00     0.069 A 
HETATM    9  C   UNL     1      27.327  45.307  53.839  1.00  0.00     0.039 A 
HETATM   10  C   UNL     1      26.386  45.942  53.024  1.00  0.00     0.032 A 
BRANCH   8  11
HETATM   11  O   UNL     1      28.402  43.382  54.636  1.00  0.00    -0.347 OA
BRANCH  11  12
HETATM   12  C   UNL     1      29.769  43.677  54.311  1.00  0.00     0.120 C 
HETATM   13  C   UNL     1      30.179  42.769  53.158  1.00  0.00     0.040 C 
HETATM   14  C   UNL     1      30.615  43.396  55.549  1.00  0.00     0.040 C 
ENDBRANCH  11  12
ENDBRANCH   8  11
ENDBRANCH   1   5
BRANCH   2  15
HETATM   15  C   UNL     1      23.629  46.877  49.367  1.00  0.00     0.051 A 
HETATM   16  C   UNL     1      22.608  46.301  48.613  1.00  0.00     0.133 A 
HETATM   17  N   UNL     1      21.617  47.006  48.012  1.00  0.00    -0.271 NA
HETATM   18  C   UNL     1      21.655  48.350  48.155  1.00  0.00     0.135 A 
HETATM   19  C   UNL     1      22.640  49.014  48.869  1.00  0.00     0.029 A 
HETATM   20 BR   UNL     1      22.626  50.895  49.008  1.00  0.00    -0.050 Br
HETATM   21  C   UNL     1      23.648  48.270  49.482  1.00  0.00     0.039 A 
ENDBRANCH   2  15
TORSDOF 4
ENDMDL
MODEL 9
REMARK VINA RESULT:      -6.5      7.364     10.418
REMARK  4 active torsions:
REMARK  status: ('A' for Active; 'I' for Inactive)
REMARK    1  A    between atoms: C_2  and  O_3 
REMARK    2  A    between atoms: O_3  and  C_4 
REMARK    3  A    between atoms: C_7  and  N_8 
REMARK       I    between atoms: N_8  and  C_9 
REMARK    4  A    between atoms: C_9  and  C_10 
ROOT
HETATM    1  N   UNL     1      17.145  52.412  49.726  1.00  0.00    -0.323 N 
HETATM    2  C   UNL     1      15.907  52.063  49.216  1.00  0.00     0.257 C 
HETATM    3  O   UNL     1      15.631  51.032  48.615  1.00  0.00    -0.267 OA
HETATM    4  H   UNL     1      17.211  53.255  50.277  1.00  0.00     0.169 HD
ENDROOT
BRANCH   1   5
HETATM    5  C   UNL     1      18.356  51.694  49.597  1.00  0.00     0.035 A 
HETATM    6  C   UNL     1      18.655  50.526  50.300  1.00  0.00     0.032 A 
HETATM    7  C   UNL     1      19.872  49.863  50.096  1.00  0.00     0.039 A 
HETATM    8  C   UNL     1      20.785  50.349  49.165  1.00  0.00     0.069 A 
HETATM    9  C   UNL     1      20.514  51.533  48.488  1.00  0.00     0.039 A 
HETATM   10  C   UNL     1      19.304  52.201  48.697  1.00  0.00     0.032 A 
BRANCH   8  11
HETATM   11  O   UNL     1      21.997  49.770  48.918  1.00  0.00    -0.347 OA
BRANCH  11  12
HETATM   12  C   UNL     1      22.014  48.335  48.971  1.00  0.00     0.120 C 
HETATM   13  C   UNL     1      23.418  47.902  49.374  1.00  0.00     0.040 C 
HETATM   14  C   UNL     1      21.663  47.811  47.582  1.00  0.00     0.040 C 
ENDBRANCH  11  12
ENDBRANCH   8  11
ENDBRANCH   1   5
BRANCH   2  15
HETATM   15  C   UNL     1      14.811  53.043  49.442  1.00  0.00     0.051 A 
HETATM   16  C   UNL     1      14.121  52.994  50.651  1.00  0.00     0.133 A 
HETATM   17  N   UNL     1      13.101  53.827  50.979  1.00  0.00    -0.271 NA
HETATM   18  C   UNL     1      12.741  54.741  50.050  1.00  0.00     0.135 A 
HETATM   19  C   UNL     1      13.356  54.853  48.812  1.00  0.00     0.029 A 
HETATM   20 BR   UNL     1      12.783  56.149  47.567  1.00  0.00    -0.050 Br
HETATM   21  C   UNL     1      14.403  53.988  48.496  1.00  0.00     0.039 A 
ENDBRANCH   2  15
TORSDOF 4
ENDMDL
MODEL 10
REMARK VINA RESULT:      -6.5      5.357      8.615
REMARK  4 active torsions:
REMARK  status: ('A' for Active; 'I' for Inactive)
REMARK    1  A    between atoms: C_2  and  O_3 
REMARK    2  A    between atoms: O_3  and  C_4 
REMARK    3  A    between atoms: C_7  and  N_8 
REMARK       I    between atoms: N_8  and  C_9 
REMARK    4  A    between atoms: C_9  and  C_10 
ROOT
HETATM    1  N   UNL     1      27.637  44.362  53.727  1.00  0.00    -0.323 N 
HETATM    2  C   UNL     1      27.834  45.532  54.439  1.00  0.00     0.257 C 
HETATM    3  O   UNL     1      27.330  46.623  54.200  1.00  0.00    -0.267 OA
HETATM    4  H   UNL     1      28.048  43.513  54.086  1.00  0.00     0.169 HD
ENDROOT
BRANCH   1   5
HETATM    5  C   UNL     1      26.882  44.199  52.543  1.00  0.00     0.035 A 
HETATM    6  C   UNL     1      25.489  44.127  52.504  1.00  0.00     0.032 A 
HETATM    7  C   UNL     1      24.816  43.986  51.284  1.00  0.00     0.039 A 
HETATM    8  C   UNL     1      25.532  43.946  50.091  1.00  0.00     0.069 A 
HETATM    9  C   UNL     1      26.922  43.977  50.122  1.00  0.00     0.039 A 
HETATM   10  C   UNL     1      27.595  44.109  51.340  1.00  0.00     0.032 A 
BRANCH   8  11
HETATM   11  O   UNL     1      24.952  43.796  48.863  1.00  0.00    -0.347 OA
BRANCH  11  12
HETATM   12  C   UNL     1      23.737  43.032  48.848  1.00  0.00     0.120 C 
HETATM   13  C   UNL     1      24.102  41.586  48.534  1.00  0.00     0.040 C 
HETATM   14  C   UNL     1      22.834  43.611  47.763  1.00  0.00     0.040 C 
ENDBRANCH  11  12
ENDBRANCH   8  11
ENDBRANCH   1   5
BRANCH   2  15
HETATM   15  C   UNL     1      28.737  45.433  55.616  1.00  0.00     0.051 A 
HETATM   16  C   UNL     1      28.528  46.303  56.684  1.00  0.00     0.133 A 
HETATM   17  N   UNL     1      29.282  46.317  57.812  1.00  0.00    -0.271 NA
HETATM   18  C   UNL     1      30.304  45.434  57.870  1.00  0.00     0.135 A 
HETATM   19  C   UNL     1      30.602  44.543  56.850  1.00  0.00     0.029 A 
HETATM   20 BR   UNL     1      32.055  43.351  57.007  1.00  0.00    -0.050 Br
HETATM   21  C   UNL     1      29.813  44.543  55.701  1.00  0.00     0.039 A 
ENDBRANCH   2  15
TORSDOF 4
ENDMDL
