MODEL 1
REMARK VINA RESULT:      -9.0      0.000      0.000
REMARK  8 active torsions:
REMARK  status: ('A' for Active; 'I' for Inactive)
REMARK    1  A    between atoms: C_2  and  C_3 
REMARK    2  A    between atoms: C_3  and  O_4 
REMARK    3  A    between atoms: O_4  and  C_5 
REMARK    4  A    between atoms: C_7  and  C_8 
REMARK    5  A    between atoms: N_9  and  C_10 
REMARK    6  A    between atoms: C_10  and  C_11 
REMARK    7  A    between atoms: C_24  and  C_25 
REMARK    8  A    between atoms: C_26  and  O_27 
ROOT
HETATM    1  C   UNL     1      26.050  44.746  50.582  1.00  0.00     0.159 A 
HETATM    2  N   UNL     1      24.973  45.769  50.477  1.00  0.00    -0.329 N 
HETATM    3  C   UNL     1      23.893  45.376  49.684  1.00  0.00     0.273 A 
HETATM    4  O   UNL     1      22.904  46.015  49.375  1.00  0.00    -0.266 OA
HETATM    5  C   UNL     1      24.234  44.061  49.292  1.00  0.00     0.129 A 
HETATM    6  C   UNL     1      25.451  43.665  49.765  1.00  0.00     0.034 A 
HETATM    7  N   UNL     1      23.720  43.056  48.572  1.00  0.00    -0.272 N 
HETATM    8  H   UNL     1      22.831  43.007  48.083  1.00  0.00     0.189 HD
HETATM    9  N   UNL     1      24.557  41.987  48.544  1.00  0.00    -0.173 NA
HETATM   10  C   UNL     1      25.656  42.373  49.246  1.00  0.00     0.101 A 
ENDROOT
BRANCH   1  11
HETATM   11  C   UNL     1      26.246  44.222  51.985  1.00  0.00    -0.028 A 
HETATM   12  C   UNL     1      27.402  43.517  52.370  1.00  0.00     0.046 A 
HETATM   13  C   UNL     1      27.563  43.029  53.671  1.00  0.00     0.069 A 
HETATM   14  C   UNL     1      26.561  43.250  54.613  1.00  0.00     0.037 A 
HETATM   15  C   UNL     1      25.404  43.942  54.249  1.00  0.00     0.003 A 
HETATM   16  C   UNL     1      25.244  44.419  52.946  1.00  0.00     0.010 A 
BRANCH  13  17
HETATM   17  O   UNL     1      28.738  42.361  53.882  1.00  0.00    -0.348 OA
BRANCH  17  18
HETATM   18  C   UNL     1      29.944  43.114  53.781  1.00  0.00     0.202 C 
BRANCH  18  19
HETATM   19  C   UNL     1      30.181  43.755  55.115  1.00  0.00    -0.011 C 
HETATM   20  C   UNL     1      31.054  43.316  56.031  1.00  0.00     0.009 C 
ENDBRANCH  18  19
ENDBRANCH  17  18
ENDBRANCH  13  17
ENDBRANCH   1  11
BRANCH   2  21
HETATM   21  C   UNL     1      25.126  47.108  51.002  1.00  0.00     0.167 C 
BRANCH  21  22
HETATM   22  C   UNL     1      25.653  48.061  49.967  1.00  0.00    -0.023 A 
HETATM   23  C   UNL     1      24.791  48.807  49.171  1.00  0.00     0.125 A 
HETATM   24  N   UNL     1      25.200  49.702  48.244  1.00  0.00    -0.273 NA
HETATM   25  C   UNL     1      26.534  49.855  48.093  1.00  0.00     0.116 A 
HETATM   26  C   UNL     1      27.476  49.158  48.830  1.00  0.00     0.020 A 
HETATM   27  C   UNL     1      27.026  48.250  49.781  1.00  0.00     0.012 A 
ENDBRANCH  21  22
ENDBRANCH   2  21
BRANCH  10  28
HETATM   28  C   UNL     1      26.806  41.474  49.385  1.00  0.00     0.028 A 
HETATM   29  C   UNL     1      27.647  41.186  48.294  1.00  0.00     0.078 A 
HETATM   30  C   UNL     1      28.725  40.311  48.420  1.00  0.00     0.037 A 
HETATM   31  C   UNL     1      28.997  39.719  49.651  1.00  0.00     0.003 A 
HETATM   32  C   UNL     1      28.196  40.011  50.753  1.00  0.00     0.001 A 
HETATM   33  C   UNL     1      27.110  40.886  50.622  1.00  0.00     0.017 A 
BRANCH  29  34
HETATM   34  O   UNL     1      27.467  41.750  47.057  1.00  0.00    -0.360 OA
HETATM   35  H   UNL     1      27.710  42.700  47.154  1.00  0.00     0.217 HD
ENDBRANCH  29  34
ENDBRANCH  10  28
TORSDOF 8
ENDMDL
MODEL 2
REMARK VINA RESULT:      -8.8      2.492      6.969
REMARK  8 active torsions:
REMARK  status: ('A' for Active; 'I' for Inactive)
REMARK    1  A    between atoms: C_2  and  C_3 
REMARK    2  A    between atoms: C_3  and  O_4 
REMARK    3  A    between atoms: O_4  and  C_5 
REMARK    4  A    between atoms: C_7  and  C_8 
REMARK    5  A    between atoms: N_9  and  C_10 
REMARK    6  A    between atoms: C_10  and  C_11 
REMARK    7  A    between atoms: C_24  and  C_25 
REMARK    8  A    between atoms: C_26  and  O_27 
ROOT
HETATM    1  C   UNL     1      27.535  43.096  50.614  1.00  0.00     0.159 A 
HETATM    2  N   UNL     1      27.381  41.807  49.886  1.00  0.00    -0.329 N 
HETATM    3  C   UNL     1      27.379  40.684  50.716  1.00  0.00     0.273 A 
HETATM    4  O   UNL     1      27.324  39.509  50.405  1.00  0.00    -0.266 OA
HETATM    5  C   UNL     1      27.489  41.234  52.014  1.00  0.00     0.129 A 
HETATM    6  C   UNL     1      27.591  42.595  52.007  1.00  0.00     0.034 A 
HETATM    7  N   UNL     1      27.530  40.820  53.286  1.00  0.00    -0.272 N 
HETATM    8  H   UNL     1      27.474  39.875  53.656  1.00  0.00     0.189 HD
HETATM    9  N   UNL     1      27.660  41.865  54.144  1.00  0.00    -0.173 NA
HETATM   10  C   UNL     1      27.744  42.969  53.354  1.00  0.00     0.101 A 
ENDROOT
BRANCH   1  11
HETATM   11  C   UNL     1      26.333  44.003  50.489  1.00  0.00    -0.028 A 
HETATM   12  C   UNL     1      26.433  45.322  50.006  1.00  0.00     0.046 A 
HETATM   13  C   UNL     1      25.312  46.153  49.907  1.00  0.00     0.069 A 
HETATM   14  C   UNL     1      24.064  45.665  50.289  1.00  0.00     0.037 A 
HETATM   15  C   UNL     1      23.945  44.362  50.777  1.00  0.00     0.003 A 
HETATM   16  C   UNL     1      25.069  43.540  50.882  1.00  0.00     0.010 A 
BRANCH  13  17
HETATM   17  O   UNL     1      25.577  47.405  49.425  1.00  0.00    -0.348 OA
BRANCH  17  18
HETATM   18  C   UNL     1      26.724  48.074  49.943  1.00  0.00     0.202 C 
BRANCH  18  19
HETATM   19  C   UNL     1      27.168  49.063  48.907  1.00  0.00    -0.011 C 
HETATM   20  C   UNL     1      26.349  49.861  48.210  1.00  0.00     0.009 C 
ENDBRANCH  18  19
ENDBRANCH  17  18
ENDBRANCH  13  17
ENDBRANCH   1  11
BRANCH   2  21
HETATM   21  C   UNL     1      27.415  41.726  48.442  1.00  0.00     0.167 C 
BRANCH  21  22
HETATM   22  C   UNL     1      26.177  41.082  47.887  1.00  0.00    -0.023 A 
HETATM   23  C   UNL     1      26.250  39.922  47.124  1.00  0.00     0.125 A 
HETATM   24  N   UNL     1      25.173  39.277  46.621  1.00  0.00    -0.273 NA
HETATM   25  C   UNL     1      23.964  39.820  46.880  1.00  0.00     0.116 A 
HETATM   26  C   UNL     1      23.781  40.973  47.623  1.00  0.00     0.020 A 
HETATM   27  C   UNL     1      24.906  41.611  48.134  1.00  0.00     0.012 A 
ENDBRANCH  21  22
ENDBRANCH   2  21
BRANCH  10  28
HETATM   28  C   UNL     1      27.942  44.296  53.946  1.00  0.00     0.028 A 
HETATM   29  C   UNL     1      29.036  44.566  54.789  1.00  0.00     0.078 A 
HETATM   30  C   UNL     1      29.210  45.820  55.373  1.00  0.00     0.037 A 
HETATM   31  C   UNL     1      28.299  46.841  55.108  1.00  0.00     0.003 A 
HETATM   32  C   UNL     1      27.224  46.605  54.254  1.00  0.00     0.001 A 
HETATM   33  C   UNL     1      27.049  45.343  53.674  1.00  0.00     0.017 A 
BRANCH  29  34
HETATM   34  O   UNL     1      29.994  43.628  55.077  1.00  0.00    -0.360 OA
HETATM   35  H   UNL     1      30.829  44.129  55.226  1.00  0.00     0.217 HD
ENDBRANCH  29  34
ENDBRANCH  10  28
TORSDOF 8
ENDMDL
MODEL 3
REMARK VINA RESULT:      -8.6      3.054      8.124
REMARK  8 active torsions:
REMARK  status: ('A' for Active; 'I' for Inactive)
REMARK    1  A    between atoms: C_2  and  C_3 
REMARK    2  A    between atoms: C_3  and  O_4 
REMARK    3  A    between atoms: O_4  and  C_5 
REMARK    4  A    between atoms: C_7  and  C_8 
REMARK    5  A    between atoms: N_9  and  C_10 
REMARK    6  A    between atoms: C_10  and  C_11 
REMARK    7  A    between atoms: C_24  and  C_25 
REMARK    8  A    between atoms: C_26  and  O_27 
ROOT
HETATM    1  C   UNL     1      24.205  46.674  50.144  1.00  0.00     0.159 A 
HETATM    2  N   UNL     1      25.495  45.997  50.453  1.00  0.00    -0.329 N 
HETATM    3  C   UNL     1      25.718  44.837  49.708  1.00  0.00     0.273 A 
HETATM    4  O   UNL     1      26.647  44.054  49.781  1.00  0.00    -0.266 OA
HETATM    5  C   UNL     1      24.586  44.764  48.865  1.00  0.00     0.129 A 
HETATM    6  C   UNL     1      23.696  45.775  49.082  1.00  0.00     0.034 A 
HETATM    7  N   UNL     1      24.099  43.983  47.893  1.00  0.00    -0.272 N 
HETATM    8  H   UNL     1      24.503  43.148  47.478  1.00  0.00     0.189 HD
HETATM    9  N   UNL     1      22.900  44.437  47.445  1.00  0.00    -0.173 NA
HETATM   10  C   UNL     1      22.620  45.526  48.211  1.00  0.00     0.101 A 
ENDROOT
BRANCH   1  11
HETATM   11  C   UNL     1      24.378  48.053  49.551  1.00  0.00    -0.028 A 
HETATM   12  C   UNL     1      23.327  48.989  49.504  1.00  0.00     0.046 A 
HETATM   13  C   UNL     1      23.501  50.257  48.941  1.00  0.00     0.069 A 
HETATM   14  C   UNL     1      24.743  50.609  48.419  1.00  0.00     0.037 A 
HETATM   15  C   UNL     1      25.796  49.693  48.449  1.00  0.00     0.003 A 
HETATM   16  C   UNL     1      25.615  48.424  49.004  1.00  0.00     0.010 A 
BRANCH  13  17
HETATM   17  O   UNL     1      22.383  51.046  48.969  1.00  0.00    -0.348 OA
BRANCH  17  18
HETATM   18  C   UNL     1      21.446  50.812  50.018  1.00  0.00     0.202 C 
BRANCH  18  19
HETATM   19  C   UNL     1      20.100  51.239  49.514  1.00  0.00    -0.011 C 
HETATM   20  C   UNL     1      19.875  51.819  48.328  1.00  0.00     0.009 C 
ENDBRANCH  18  19
ENDBRANCH  17  18
ENDBRANCH  13  17
ENDBRANCH   1  11
BRANCH   2  21
HETATM   21  C   UNL     1      26.341  46.411  51.550  1.00  0.00     0.167 C 
BRANCH  21  22
HETATM   22  C   UNL     1      26.259  45.463  52.712  1.00  0.00    -0.023 A 
HETATM   23  C   UNL     1      25.038  45.140  53.293  1.00  0.00     0.125 A 
HETATM   24  N   UNL     1      24.893  44.272  54.319  1.00  0.00    -0.273 NA
HETATM   25  C   UNL     1      26.020  43.705  54.800  1.00  0.00     0.116 A 
HETATM   26  C   UNL     1      27.285  43.961  54.298  1.00  0.00     0.020 A 
HETATM   27  C   UNL     1      27.402  44.852  53.237  1.00  0.00     0.012 A 
ENDBRANCH  21  22
ENDBRANCH   2  21
BRANCH  10  28
HETATM   28  C   UNL     1      21.360  46.256  48.037  1.00  0.00     0.028 A 
HETATM   29  C   UNL     1      20.186  45.860  48.704  1.00  0.00     0.078 A 
HETATM   30  C   UNL     1      18.982  46.538  48.519  1.00  0.00     0.037 A 
HETATM   31  C   UNL     1      18.933  47.644  47.674  1.00  0.00     0.003 A 
HETATM   32  C   UNL     1      20.089  48.072  47.024  1.00  0.00     0.001 A 
HETATM   33  C   UNL     1      21.295  47.385  47.208  1.00  0.00     0.017 A 
BRANCH  29  34
HETATM   34  O   UNL     1      20.156  44.802  49.577  1.00  0.00    -0.360 OA
HETATM   35  H   UNL     1      21.092  44.639  49.838  1.00  0.00     0.217 HD
ENDBRANCH  29  34
ENDBRANCH  10  28
TORSDOF 8
ENDMDL
MODEL 4
REMARK VINA RESULT:      -8.5      3.202      6.297
REMARK  8 active torsions:
REMARK  status: ('A' for Active; 'I' for Inactive)
REMARK    1  A    between atoms: C_2  and  C_3 
REMARK    2  A    between atoms: C_3  and  O_4 
REMARK    3  A    between atoms: O_4  and  C_5 
REMARK    4  A    between atoms: C_7  and  C_8 
REMARK    5  A    between atoms: N_9  and  C_10 
REMARK    6  A    between atoms: C_10  and  C_11 
REMARK    7  A    between atoms: C_24  and  C_25 
REMARK    8  A    between atoms: C_26  and  O_27 
ROOT
HETATM    1  C   UNL     1      22.837  47.535  49.165  1.00  0.00     0.159 A 
HETATM    2  N   UNL     1      22.344  48.541  48.185  1.00  0.00    -0.329 N 
HETATM    3  C   UNL     1      23.310  49.470  47.793  1.00  0.00     0.273 A 
HETATM    4  O   UNL     1      23.186  50.429  47.054  1.00  0.00    -0.266 OA
HETATM    5  C   UNL     1      24.468  49.053  48.487  1.00  0.00     0.129 A 
HETATM    6  C   UNL     1      24.248  47.969  49.286  1.00  0.00     0.034 A 
HETATM    7  N   UNL     1      25.754  49.407  48.612  1.00  0.00    -0.272 N 
HETATM    8  H   UNL     1      26.258  50.164  48.159  1.00  0.00     0.189 HD
HETATM    9  N   UNL     1      26.412  48.592  49.477  1.00  0.00    -0.173 NA
HETATM   10  C   UNL     1      25.471  47.722  49.935  1.00  0.00     0.101 A 
ENDROOT
BRANCH   1  11
HETATM   11  C   UNL     1      22.824  46.121  48.634  1.00  0.00    -0.028 A 
HETATM   12  C   UNL     1      22.949  44.999  49.476  1.00  0.00     0.046 A 
HETATM   13  C   UNL     1      22.946  43.697  48.966  1.00  0.00     0.069 A 
HETATM   14  C   UNL     1      22.809  43.500  47.594  1.00  0.00     0.037 A 
HETATM   15  C   UNL     1      22.690  44.599  46.741  1.00  0.00     0.003 A 
HETATM   16  C   UNL     1      22.703  45.898  47.255  1.00  0.00     0.010 A 
BRANCH  13  17
HETATM   17  O   UNL     1      23.083  42.719  49.913  1.00  0.00    -0.348 OA
BRANCH  17  18
HETATM   18  C   UNL     1      24.338  42.633  50.585  1.00  0.00     0.202 C 
BRANCH  18  19
HETATM   19  C   UNL     1      25.202  41.697  49.793  1.00  0.00    -0.011 C 
HETATM   20  C   UNL     1      26.246  42.070  49.042  1.00  0.00     0.009 C 
ENDBRANCH  18  19
ENDBRANCH  17  18
ENDBRANCH  13  17
ENDBRANCH   1  11
BRANCH   2  21
HETATM   21  C   UNL     1      20.949  48.644  47.819  1.00  0.00     0.167 C 
BRANCH  21  22
HETATM   22  C   UNL     1      20.250  49.738  48.575  1.00  0.00    -0.023 A 
HETATM   23  C   UNL     1      19.721  49.513  49.841  1.00  0.00     0.125 A 
HETATM   24  N   UNL     1      19.108  50.461  50.586  1.00  0.00    -0.273 NA
HETATM   25  C   UNL     1      19.005  51.692  50.039  1.00  0.00     0.116 A 
HETATM   26  C   UNL     1      19.493  52.019  48.785  1.00  0.00     0.020 A 
HETATM   27  C   UNL     1      20.125  51.026  48.046  1.00  0.00     0.012 A 
ENDBRANCH  21  22
ENDBRANCH   2  21
BRANCH  10  28
HETATM   28  C   UNL     1      25.817  46.711  50.939  1.00  0.00     0.028 A 
HETATM   29  C   UNL     1      26.663  45.629  50.628  1.00  0.00     0.078 A 
HETATM   30  C   UNL     1      26.971  44.654  51.575  1.00  0.00     0.037 A 
HETATM   31  C   UNL     1      26.453  44.752  52.865  1.00  0.00     0.003 A 
HETATM   32  C   UNL     1      25.637  45.829  53.204  1.00  0.00     0.001 A 
HETATM   33  C   UNL     1      25.325  46.804  52.249  1.00  0.00     0.017 A 
BRANCH  29  34
HETATM   34  O   UNL     1      27.238  45.475  49.392  1.00  0.00    -0.360 OA
HETATM   35  H   UNL     1      27.159  46.350  48.946  1.00  0.00     0.217 HD
ENDBRANCH  29  34
ENDBRANCH  10  28
TORSDOF 8
ENDMDL
MODEL 5
REMARK VINA RESULT:      -8.4      6.151      9.034
REMARK  8 active torsions:
REMARK  status: ('A' for Active; 'I' for Inactive)
REMARK    1  A    between atoms: C_2  and  C_3 
REMARK    2  A    between atoms: C_3  and  O_4 
REMARK    3  A    between atoms: O_4  and  C_5 
REMARK    4  A    between atoms: C_7  and  C_8 
REMARK    5  A    between atoms: N_9  and  C_10 
REMARK    6  A    between atoms: C_10  and  C_11 
REMARK    7  A    between atoms: C_24  and  C_25 
REMARK    8  A    between atoms: C_26  and  O_27 
ROOT
HETATM    1  C   UNL     1      18.783  48.230  46.908  1.00  0.00     0.159 A 
HETATM    2  N   UNL     1      17.417  48.768  47.157  1.00  0.00    -0.329 N 
HETATM    3  C   UNL     1      16.534  47.838  47.709  1.00  0.00     0.273 A 
HETATM    4  O   UNL     1      15.352  47.972  47.967  1.00  0.00    -0.266 OA
HETATM    5  C   UNL     1      17.331  46.682  47.869  1.00  0.00     0.129 A 
HETATM    6  C   UNL     1      18.608  46.851  47.420  1.00  0.00     0.034 A 
HETATM    7  N   UNL     1      17.216  45.432  48.335  1.00  0.00    -0.272 N 
HETATM    8  H   UNL     1      16.408  44.972  48.746  1.00  0.00     0.189 HD
HETATM    9  N   UNL     1      18.382  44.746  48.211  1.00  0.00    -0.173 NA
HETATM   10  C   UNL     1      19.241  45.608  47.602  1.00  0.00     0.101 A 
ENDROOT
BRANCH   1  11
HETATM   11  C   UNL     1      19.853  48.906  47.732  1.00  0.00    -0.028 A 
HETATM   12  C   UNL     1      21.077  49.328  47.177  1.00  0.00     0.046 A 
HETATM   13  C   UNL     1      22.062  49.942  47.956  1.00  0.00     0.069 A 
HETATM   14  C   UNL     1      21.829  50.148  49.314  1.00  0.00     0.037 A 
HETATM   15  C   UNL     1      20.625  49.732  49.886  1.00  0.00     0.003 A 
HETATM   16  C   UNL     1      19.648  49.110  49.104  1.00  0.00     0.010 A 
BRANCH  13  17
HETATM   17  O   UNL     1      23.193  50.286  47.269  1.00  0.00    -0.348 OA
BRANCH  17  18
HETATM   18  C   UNL     1      24.283  50.809  48.026  1.00  0.00     0.202 C 
BRANCH  18  19
HETATM   19  C   UNL     1      25.294  49.710  48.165  1.00  0.00    -0.011 C 
HETATM   20  C   UNL     1      26.604  49.897  48.368  1.00  0.00     0.009 C 
ENDBRANCH  18  19
ENDBRANCH  17  18
ENDBRANCH  13  17
ENDBRANCH   1  11
BRANCH   2  21
HETATM   21  C   UNL     1      17.007  50.076  46.698  1.00  0.00     0.167 C 
BRANCH  21  22
HETATM   22  C   UNL     1      16.925  51.067  47.824  1.00  0.00    -0.023 A 
HETATM   23  C   UNL     1      15.756  51.226  48.559  1.00  0.00     0.125 A 
HETATM   24  N   UNL     1      15.627  52.077  49.603  1.00  0.00    -0.273 NA
HETATM   25  C   UNL     1      16.712  52.814  49.924  1.00  0.00     0.116 A 
HETATM   26  C   UNL     1      17.921  52.735  49.255  1.00  0.00     0.020 A 
HETATM   27  C   UNL     1      18.027  51.847  48.191  1.00  0.00     0.012 A 
ENDBRANCH  21  22
ENDBRANCH   2  21
BRANCH  10  28
HETATM   28  C   UNL     1      20.603  45.186  47.260  1.00  0.00     0.028 A 
HETATM   29  C   UNL     1      21.489  44.704  48.242  1.00  0.00     0.078 A 
HETATM   30  C   UNL     1      22.792  44.327  47.922  1.00  0.00     0.037 A 
HETATM   31  C   UNL     1      23.232  44.406  46.603  1.00  0.00     0.003 A 
HETATM   32  C   UNL     1      22.364  44.852  45.609  1.00  0.00     0.001 A 
HETATM   33  C   UNL     1      21.058  45.236  45.935  1.00  0.00     0.017 A 
BRANCH  29  34
HETATM   34  O   UNL     1      21.126  44.567  49.558  1.00  0.00    -0.360 OA
HETATM   35  H   UNL     1      21.872  44.097  49.998  1.00  0.00     0.217 HD
ENDBRANCH  29  34
ENDBRANCH  10  28
TORSDOF 8
ENDMDL
MODEL 6
REMARK VINA RESULT:      -8.2      4.702      8.455
REMARK  8 active torsions:
REMARK  status: ('A' for Active; 'I' for Inactive)
REMARK    1  A    between atoms: C_2  and  C_3 
REMARK    2  A    between atoms: C_3  and  O_4 
REMARK    3  A    between atoms: O_4  and  C_5 
REMARK    4  A    between atoms: C_7  and  C_8 
REMARK    5  A    between atoms: N_9  and  C_10 
REMARK    6  A    between atoms: C_10  and  C_11 
REMARK    7  A    between atoms: C_24  and  C_25 
REMARK    8  A    between atoms: C_26  and  O_27 
ROOT
HETATM    1  C   UNL     1      21.812  46.864  47.511  1.00  0.00     0.159 A 
HETATM    2  N   UNL     1      20.455  46.303  47.261  1.00  0.00    -0.329 N 
HETATM    3  C   UNL     1      20.154  45.182  48.036  1.00  0.00     0.273 A 
HETATM    4  O   UNL     1      19.155  44.487  48.012  1.00  0.00    -0.266 OA
HETATM    5  C   UNL     1      21.304  45.019  48.841  1.00  0.00     0.129 A 
HETATM    6  C   UNL     1      22.275  45.940  48.572  1.00  0.00     0.034 A 
HETATM    7  N   UNL     1      21.753  44.213  49.811  1.00  0.00    -0.272 N 
HETATM    8  H   UNL     1      21.290  43.426  50.257  1.00  0.00     0.189 HD
HETATM    9  N   UNL     1      23.004  44.562  50.207  1.00  0.00    -0.173 NA
HETATM   10  C   UNL     1      23.354  45.607  49.410  1.00  0.00     0.101 A 
ENDROOT
BRANCH   1  11
HETATM   11  C   UNL     1      21.788  48.262  48.081  1.00  0.00    -0.028 A 
HETATM   12  C   UNL     1      20.879  48.650  49.084  1.00  0.00     0.046 A 
HETATM   13  C   UNL     1      20.863  49.952  49.594  1.00  0.00     0.069 A 
HETATM   14  C   UNL     1      21.770  50.889  49.105  1.00  0.00     0.037 A 
HETATM   15  C   UNL     1      22.676  50.526  48.106  1.00  0.00     0.003 A 
HETATM   16  C   UNL     1      22.681  49.227  47.594  1.00  0.00     0.010 A 
BRANCH  13  17
HETATM   17  O   UNL     1      19.917  50.170  50.558  1.00  0.00    -0.348 OA
BRANCH  17  18
HETATM   18  C   UNL     1      18.600  50.494  50.119  1.00  0.00     0.202 C 
BRANCH  18  19
HETATM   19  C   UNL     1      18.565  51.973  49.874  1.00  0.00    -0.011 C 
HETATM   20  C   UNL     1      18.559  52.550  48.665  1.00  0.00     0.009 C 
ENDBRANCH  18  19
ENDBRANCH  17  18
ENDBRANCH  13  17
ENDBRANCH   1  11
BRANCH   2  21
HETATM   21  C   UNL     1      19.610  46.775  46.186  1.00  0.00     0.167 C 
BRANCH  21  22
HETATM   22  C   UNL     1      18.520  47.680  46.685  1.00  0.00    -0.023 A 
HETATM   23  C   UNL     1      18.440  49.005  46.274  1.00  0.00     0.125 A 
HETATM   24  N   UNL     1      17.467  49.862  46.661  1.00  0.00    -0.273 NA
HETATM   25  C   UNL     1      16.534  49.379  47.510  1.00  0.00     0.116 A 
HETATM   26  C   UNL     1      16.525  48.078  47.982  1.00  0.00     0.020 A 
HETATM   27  C   UNL     1      17.533  47.218  47.561  1.00  0.00     0.012 A 
ENDBRANCH  21  22
ENDBRANCH   2  21
BRANCH  10  28
HETATM   28  C   UNL     1      24.681  46.221  49.525  1.00  0.00     0.028 A 
HETATM   29  C   UNL     1      25.856  45.453  49.412  1.00  0.00     0.078 A 
HETATM   30  C   UNL     1      27.117  46.031  49.547  1.00  0.00     0.037 A 
HETATM   31  C   UNL     1      27.230  47.400  49.778  1.00  0.00     0.003 A 
HETATM   32  C   UNL     1      26.083  48.185  49.866  1.00  0.00     0.001 A 
HETATM   33  C   UNL     1      24.817  47.600  49.736  1.00  0.00     0.017 A 
BRANCH  29  34
HETATM   34  O   UNL     1      25.833  44.106  49.154  1.00  0.00    -0.360 OA
HETATM   35  H   UNL     1      26.754  43.787  49.298  1.00  0.00     0.217 HD
ENDBRANCH  29  34
ENDBRANCH  10  28
TORSDOF 8
ENDMDL
MODEL 7
REMARK VINA RESULT:      -8.1      3.529      7.267
REMARK  8 active torsions:
REMARK  status: ('A' for Active; 'I' for Inactive)
REMARK    1  A    between atoms: C_2  and  C_3 
REMARK    2  A    between atoms: C_3  and  O_4 
REMARK    3  A    between atoms: O_4  and  C_5 
REMARK    4  A    between atoms: C_7  and  C_8 
REMARK    5  A    between atoms: N_9  and  C_10 
REMARK    6  A    between atoms: C_10  and  C_11 
REMARK    7  A    between atoms: C_24  and  C_25 
REMARK    8  A    between atoms: C_26  and  O_27 
ROOT
HETATM    1  C   UNL     1      23.035  47.512  49.219  1.00  0.00     0.159 A 
HETATM    2  N   UNL     1      22.598  48.515  48.210  1.00  0.00    -0.329 N 
HETATM    3  C   UNL     1      23.590  49.431  47.855  1.00  0.00     0.273 A 
HETATM    4  O   UNL     1      23.509  50.386  47.104  1.00  0.00    -0.266 OA
HETATM    5  C   UNL     1      24.711  49.009  48.604  1.00  0.00     0.129 A 
HETATM    6  C   UNL     1      24.444  47.934  49.400  1.00  0.00     0.034 A 
HETATM    7  N   UNL     1      25.993  49.352  48.784  1.00  0.00    -0.272 N 
HETATM    8  H   UNL     1      26.525  50.100  48.348  1.00  0.00     0.189 HD
HETATM    9  N   UNL     1      26.603  48.537  49.684  1.00  0.00    -0.173 NA
HETATM   10  C   UNL     1      25.634  47.680  50.106  1.00  0.00     0.101 A 
ENDROOT
BRANCH   1  11
HETATM   11  C   UNL     1      23.031  46.094  48.699  1.00  0.00    -0.028 A 
HETATM   12  C   UNL     1      22.776  45.789  47.348  1.00  0.00     0.046 A 
HETATM   13  C   UNL     1      22.765  44.470  46.884  1.00  0.00     0.069 A 
HETATM   14  C   UNL     1      23.019  43.431  47.775  1.00  0.00     0.037 A 
HETATM   15  C   UNL     1      23.268  43.711  49.120  1.00  0.00     0.003 A 
HETATM   16  C   UNL     1      23.268  45.030  49.580  1.00  0.00     0.010 A 
BRANCH  13  17
HETATM   17  O   UNL     1      22.496  44.343  45.549  1.00  0.00    -0.348 OA
BRANCH  17  18
HETATM   18  C   UNL     1      21.495  43.400  45.173  1.00  0.00     0.202 C 
BRANCH  18  19
HETATM   19  C   UNL     1      20.169  44.094  45.281  1.00  0.00    -0.011 C 
HETATM   20  C   UNL     1      19.247  43.841  46.219  1.00  0.00     0.009 C 
ENDBRANCH  18  19
ENDBRANCH  17  18
ENDBRANCH  13  17
ENDBRANCH   1  11
BRANCH   2  21
HETATM   21  C   UNL     1      21.221  48.629  47.780  1.00  0.00     0.167 C 
BRANCH  21  22
HETATM   22  C   UNL     1      20.486  49.702  48.532  1.00  0.00    -0.023 A 
HETATM   23  C   UNL     1      19.954  49.462  49.793  1.00  0.00     0.125 A 
HETATM   24  N   UNL     1      19.309  50.392  50.534  1.00  0.00    -0.273 NA
HETATM   25  C   UNL     1      19.176  51.620  49.986  1.00  0.00     0.116 A 
HETATM   26  C   UNL     1      19.664  51.962  48.737  1.00  0.00     0.020 A 
HETATM   27  C   UNL     1      20.330  50.987  48.002  1.00  0.00     0.012 A 
ENDBRANCH  21  22
ENDBRANCH   2  21
BRANCH  10  28
HETATM   28  C   UNL     1      25.924  46.674  51.132  1.00  0.00     0.028 A 
HETATM   29  C   UNL     1      26.664  45.515  50.833  1.00  0.00     0.078 A 
HETATM   30  C   UNL     1      26.917  44.545  51.803  1.00  0.00     0.037 A 
HETATM   31  C   UNL     1      26.451  44.727  53.102  1.00  0.00     0.003 A 
HETATM   32  C   UNL     1      25.740  45.879  53.429  1.00  0.00     0.001 A 
HETATM   33  C   UNL     1      25.482  46.848  52.452  1.00  0.00     0.017 A 
BRANCH  29  34
HETATM   34  O   UNL     1      27.185  45.274  49.587  1.00  0.00    -0.360 OA
HETATM   35  H   UNL     1      26.838  44.394  49.313  1.00  0.00     0.217 HD
ENDBRANCH  29  34
ENDBRANCH  10  28
TORSDOF 8
ENDMDL
MODEL 8
REMARK VINA RESULT:      -8.1      2.539      6.460
REMARK  8 active torsions:
REMARK  status: ('A' for Active; 'I' for Inactive)
REMARK    1  A    between atoms: C_2  and  C_3 
REMARK    2  A    between atoms: C_3  and  O_4 
REMARK    3  A    between atoms: O_4  and  C_5 
REMARK    4  A    between atoms: C_7  and  C_8 
REMARK    5  A    between atoms: N_9  and  C_10 
REMARK    6  A    between atoms: C_10  and  C_11 
REMARK    7  A    between atoms: C_24  and  C_25 
REMARK    8  A    between atoms: C_26  and  O_27 
ROOT
HETATM    1  C   UNL     1      26.682  44.488  54.248  1.00  0.00     0.159 A 
HETATM    2  N   UNL     1      25.654  45.252  53.489  1.00  0.00    -0.329 N 
HETATM    3  C   UNL     1      25.944  46.611  53.354  1.00  0.00     0.273 A 
HETATM    4  O   UNL     1      25.271  47.484  52.837  1.00  0.00    -0.266 OA
HETATM    5  C   UNL     1      27.198  46.745  53.992  1.00  0.00     0.129 A 
HETATM    6  C   UNL     1      27.651  45.574  54.524  1.00  0.00     0.034 A 
HETATM    7  N   UNL     1      28.104  47.697  54.250  1.00  0.00    -0.272 N 
HETATM    8  H   UNL     1      28.091  48.681  53.996  1.00  0.00     0.189 HD
HETATM    9  N   UNL     1      29.161  47.202  54.944  1.00  0.00    -0.173 NA
HETATM   10  C   UNL     1      28.866  45.891  55.158  1.00  0.00     0.101 A 
ENDROOT
BRANCH   1  11
HETATM   11  C   UNL     1      27.380  43.434  53.420  1.00  0.00    -0.028 A 
HETATM   12  C   UNL     1      27.394  43.471  52.012  1.00  0.00     0.046 A 
HETATM   13  C   UNL     1      28.035  42.481  51.260  1.00  0.00     0.069 A 
HETATM   14  C   UNL     1      28.681  41.436  51.916  1.00  0.00     0.037 A 
HETATM   15  C   UNL     1      28.673  41.378  53.311  1.00  0.00     0.003 A 
HETATM   16  C   UNL     1      28.023  42.364  54.057  1.00  0.00     0.010 A 
BRANCH  13  17
HETATM   17  O   UNL     1      27.953  42.658  49.907  1.00  0.00    -0.348 OA
BRANCH  17  18
HETATM   18  C   UNL     1      27.281  41.648  49.157  1.00  0.00     0.202 C 
BRANCH  18  19
HETATM   19  C   UNL     1      28.324  40.913  48.367  1.00  0.00    -0.011 C 
HETATM   20  C   UNL     1      28.660  39.630  48.552  1.00  0.00     0.009 C 
ENDBRANCH  18  19
ENDBRANCH  17  18
ENDBRANCH  13  17
ENDBRANCH   1  11
BRANCH   2  21
HETATM   21  C   UNL     1      24.393  44.666  53.092  1.00  0.00     0.167 C 
BRANCH  21  22
HETATM   22  C   UNL     1      24.340  44.395  51.615  1.00  0.00    -0.023 A 
HETATM   23  C   UNL     1      24.505  45.419  50.689  1.00  0.00     0.125 A 
HETATM   24  N   UNL     1      24.498  45.237  49.349  1.00  0.00    -0.273 NA
HETATM   25  C   UNL     1      24.307  43.975  48.908  1.00  0.00     0.116 A 
HETATM   26  C   UNL     1      24.129  42.886  49.744  1.00  0.00     0.020 A 
HETATM   27  C   UNL     1      24.148  43.102  51.117  1.00  0.00     0.012 A 
ENDBRANCH  21  22
ENDBRANCH   2  21
BRANCH  10  28
HETATM   28  C   UNL     1      29.775  45.039  55.932  1.00  0.00     0.028 A 
HETATM   29  C   UNL     1      30.061  45.309  57.283  1.00  0.00     0.078 A 
HETATM   30  C   UNL     1      30.945  44.515  58.011  1.00  0.00     0.037 A 
HETATM   31  C   UNL     1      31.550  43.416  57.404  1.00  0.00     0.003 A 
HETATM   32  C   UNL     1      31.261  43.112  56.076  1.00  0.00     0.001 A 
HETATM   33  C   UNL     1      30.377  43.916  55.346  1.00  0.00     0.017 A 
BRANCH  29  34
HETATM   34  O   UNL     1      29.485  46.352  57.963  1.00  0.00    -0.360 OA
HETATM   35  H   UNL     1      29.957  47.164  57.664  1.00  0.00     0.217 HD
ENDBRANCH  29  34
ENDBRANCH  10  28
TORSDOF 8
ENDMDL
MODEL 9
REMARK VINA RESULT:      -8.0      2.512      5.892
REMARK  8 active torsions:
REMARK  status: ('A' for Active; 'I' for Inactive)
REMARK    1  A    between atoms: C_2  and  C_3 
REMARK    2  A    between atoms: C_3  and  O_4 
REMARK    3  A    between atoms: O_4  and  C_5 
REMARK    4  A    between atoms: C_7  and  C_8 
REMARK    5  A    between atoms: N_9  and  C_10 
REMARK    6  A    between atoms: C_10  and  C_11 
REMARK    7  A    between atoms: C_24  and  C_25 
REMARK    8  A    between atoms: C_26  and  O_27 
ROOT
HETATM    1  C   UNL     1      25.067  42.561  50.820  1.00  0.00     0.159 A 
HETATM    2  N   UNL     1      23.890  42.997  50.019  1.00  0.00    -0.329 N 
HETATM    3  C   UNL     1      23.773  44.383  49.893  1.00  0.00     0.273 A 
HETATM    4  O   UNL     1      22.893  45.024  49.348  1.00  0.00    -0.266 OA
HETATM    5  C   UNL     1      24.906  44.873  50.580  1.00  0.00     0.129 A 
HETATM    6  C   UNL     1      25.663  43.881  51.132  1.00  0.00     0.034 A 
HETATM    7  N   UNL     1      25.481  46.047  50.871  1.00  0.00    -0.272 N 
HETATM    8  H   UNL     1      25.189  46.986  50.615  1.00  0.00     0.189 HD
HETATM    9  N   UNL     1      26.609  45.877  51.609  1.00  0.00    -0.173 NA
HETATM   10  C   UNL     1      26.705  44.536  51.814  1.00  0.00     0.101 A 
ENDROOT
BRANCH   1  11
HETATM   11  C   UNL     1      26.075  41.767  50.024  1.00  0.00    -0.028 A 
HETATM   12  C   UNL     1      26.457  40.460  50.383  1.00  0.00     0.046 A 
HETATM   13  C   UNL     1      27.400  39.742  49.641  1.00  0.00     0.069 A 
HETATM   14  C   UNL     1      27.973  40.328  48.515  1.00  0.00     0.037 A 
HETATM   15  C   UNL     1      27.613  41.626  48.145  1.00  0.00     0.003 A 
HETATM   16  C   UNL     1      26.678  42.342  48.895  1.00  0.00     0.010 A 
BRANCH  13  17
HETATM   17  O   UNL     1      27.666  38.491  50.124  1.00  0.00    -0.348 OA
BRANCH  17  18
HETATM   18  C   UNL     1      28.691  37.744  49.473  1.00  0.00     0.202 C 
BRANCH  18  19
HETATM   19  C   UNL     1      29.867  37.698  50.403  1.00  0.00    -0.011 C 
HETATM   20  C   UNL     1      29.907  37.011  51.552  1.00  0.00     0.009 C 
ENDBRANCH  18  19
ENDBRANCH  17  18
ENDBRANCH  13  17
ENDBRANCH   1  11
BRANCH   2  21
HETATM   21  C   UNL     1      22.874  42.070  49.574  1.00  0.00     0.167 C 
BRANCH  21  22
HETATM   22  C   UNL     1      23.023  41.730  48.118  1.00  0.00    -0.023 A 
HETATM   23  C   UNL     1      22.427  42.509  47.132  1.00  0.00     0.125 A 
HETATM   24  N   UNL     1      22.548  42.276  45.806  1.00  0.00    -0.273 NA
HETATM   25  C   UNL     1      23.288  41.207  45.441  1.00  0.00     0.116 A 
HETATM   26  C   UNL     1      23.919  40.365  46.342  1.00  0.00     0.020 A 
HETATM   27  C   UNL     1      23.784  40.634  47.699  1.00  0.00     0.012 A 
ENDBRANCH  21  22
ENDBRANCH   2  21
BRANCH  10  28
HETATM   28  C   UNL     1      27.794  43.982  52.625  1.00  0.00     0.028 A 
HETATM   29  C   UNL     1      28.020  44.418  53.944  1.00  0.00     0.078 A 
HETATM   30  C   UNL     1      29.071  43.910  54.706  1.00  0.00     0.037 A 
HETATM   31  C   UNL     1      29.909  42.935  54.168  1.00  0.00     0.003 A 
HETATM   32  C   UNL     1      29.688  42.468  52.875  1.00  0.00     0.001 A 
HETATM   33  C   UNL     1      28.634  42.984  52.110  1.00  0.00     0.017 A 
BRANCH  29  34
HETATM   34  O   UNL     1      27.224  45.351  54.558  1.00  0.00    -0.360 OA
HETATM   35  H   UNL     1      26.545  45.609  53.892  1.00  0.00     0.217 HD
ENDBRANCH  29  34
ENDBRANCH  10  28
TORSDOF 8
ENDMDL
MODEL 10
REMARK VINA RESULT:      -7.8      2.348      6.439
REMARK  8 active torsions:
REMARK  status: ('A' for Active; 'I' for Inactive)
REMARK    1  A    between atoms: C_2  and  C_3 
REMARK    2  A    between atoms: C_3  and  O_4 
REMARK    3  A    between atoms: O_4  and  C_5 
REMARK    4  A    between atoms: C_7  and  C_8 
REMARK    5  A    between atoms: N_9  and  C_10 
REMARK    6  A    between atoms: C_10  and  C_11 
REMARK    7  A    between atoms: C_24  and  C_25 
REMARK    8  A    between atoms: C_26  and  O_27 
ROOT
HETATM    1  C   UNL     1      25.173  42.565  50.416  1.00  0.00     0.159 A 
HETATM    2  N   UNL     1      24.136  42.980  49.432  1.00  0.00    -0.329 N 
HETATM    3  C   UNL     1      24.193  44.332  49.085  1.00  0.00     0.273 A 
HETATM    4  O   UNL     1      23.450  44.961  48.354  1.00  0.00    -0.266 OA
HETATM    5  C   UNL     1      25.305  44.811  49.813  1.00  0.00     0.129 A 
HETATM    6  C   UNL     1      25.886  43.852  50.590  1.00  0.00     0.034 A 
HETATM    7  N   UNL     1      25.983  45.953  49.986  1.00  0.00    -0.272 N 
HETATM    8  H   UNL     1      25.828  46.863  49.560  1.00  0.00     0.189 HD
HETATM    9  N   UNL     1      27.009  45.794  50.863  1.00  0.00    -0.173 NA
HETATM   10  C   UNL     1      26.928  44.501  51.277  1.00  0.00     0.101 A 
ENDROOT
BRANCH   1  11
HETATM   11  C   UNL     1      26.153  41.555  49.867  1.00  0.00    -0.028 A 
HETATM   12  C   UNL     1      26.912  41.798  48.706  1.00  0.00     0.046 A 
HETATM   13  C   UNL     1      27.807  40.847  48.204  1.00  0.00     0.069 A 
HETATM   14  C   UNL     1      27.958  39.633  48.869  1.00  0.00     0.037 A 
HETATM   15  C   UNL     1      27.210  39.370  50.018  1.00  0.00     0.003 A 
HETATM   16  C   UNL     1      26.310  40.319  50.510  1.00  0.00     0.010 A 
BRANCH  13  17
HETATM   17  O   UNL     1      28.462  41.233  47.067  1.00  0.00    -0.348 OA
BRANCH  17  18
HETATM   18  C   UNL     1      27.789  41.036  45.827  1.00  0.00     0.202 C 
BRANCH  18  19
HETATM   19  C   UNL     1      28.235  39.710  45.285  1.00  0.00    -0.011 C 
HETATM   20  C   UNL     1      27.415  38.708  44.942  1.00  0.00     0.009 C 
ENDBRANCH  18  19
ENDBRANCH  17  18
ENDBRANCH  13  17
ENDBRANCH   1  11
BRANCH   2  21
HETATM   21  C   UNL     1      23.065  42.099  49.020  1.00  0.00     0.167 C 
BRANCH  21  22
HETATM   22  C   UNL     1      23.296  41.539  47.646  1.00  0.00    -0.023 A 
HETATM   23  C   UNL     1      22.949  42.258  46.508  1.00  0.00     0.125 A 
HETATM   24  N   UNL     1      23.158  41.824  45.244  1.00  0.00    -0.273 NA
HETATM   25  C   UNL     1      23.730  40.608  45.105  1.00  0.00     0.116 A 
HETATM   26  C   UNL     1      24.109  39.811  46.172  1.00  0.00     0.020 A 
HETATM   27  C   UNL     1      23.889  40.286  47.459  1.00  0.00     0.012 A 
ENDBRANCH  21  22
ENDBRANCH   2  21
BRANCH  10  28
HETATM   28  C   UNL     1      27.863  43.980  52.280  1.00  0.00     0.028 A 
HETATM   29  C   UNL     1      27.954  44.550  53.563  1.00  0.00     0.078 A 
HETATM   30  C   UNL     1      28.862  44.072  54.507  1.00  0.00     0.037 A 
HETATM   31  C   UNL     1      29.685  42.993  54.192  1.00  0.00     0.003 A 
HETATM   32  C   UNL     1      29.593  42.394  52.938  1.00  0.00     0.001 A 
HETATM   33  C   UNL     1      28.685  42.881  51.990  1.00  0.00     0.017 A 
BRANCH  29  34
HETATM   34  O   UNL     1      27.159  45.594  53.963  1.00  0.00    -0.360 OA
HETATM   35  H   UNL     1      27.757  46.231  54.418  1.00  0.00     0.217 HD
ENDBRANCH  29  34
ENDBRANCH  10  28
TORSDOF 8
ENDMDL
