MODEL 1
REMARK VINA RESULT:      -9.7      0.000      0.000
REMARK  7 active torsions:
REMARK  status: ('A' for Active; 'I' for Inactive)
REMARK    1  A    between atoms: C_2  and  C_3 
REMARK    2  A    between atoms: N_21  and  N_23 
REMARK       I    between atoms: N_23  and  C_24 
REMARK    3  A    between atoms: C_24  and  C_25 
REMARK    4  A    between atoms: C_25  and  N_26 
REMARK    5  A    between atoms: C_25  and  C_34 
REMARK       I    between atoms: N_26  and  C_27 
REMARK    6  A    between atoms: C_27  and  O_28 
REMARK    7  A    between atoms: O_28  and  C_29 
ROOT
HETATM    1  C   UNL     1      25.598  47.940  49.863  1.00  0.00    -0.041 C 
HETATM    2  C   UNL     1      25.480  47.061  51.038  1.00  0.00     0.005 C 
HETATM    3  C   UNL     1      24.598  45.978  50.964  1.00  0.00     0.091 C 
HETATM    4  C   UNL     1      24.777  44.855  51.766  1.00  0.00     0.075 C 
HETATM    5  C   UNL     1      25.808  44.867  52.703  1.00  0.00     0.079 C 
HETATM    6  C   UNL     1      26.472  46.057  53.012  1.00  0.00    -0.024 C 
HETATM    7  C   UNL     1      27.436  46.127  54.167  1.00  0.00     0.044 C 
HETATM    8  C   UNL     1      27.649  44.757  54.806  1.00  0.00     0.043 C 
HETATM    9  C   UNL     1      27.561  43.651  53.739  1.00  0.00     0.068 C 
HETATM   10  C   UNL     1      28.634  43.837  52.626  1.00  0.00     0.038 C 
HETATM   11  C   UNL     1      28.626  42.707  51.602  1.00  0.00     0.003 C 
HETATM   12  C   UNL     1      28.850  41.365  52.280  1.00  0.00     0.000 C 
HETATM   13  C   UNL     1      27.822  41.125  53.381  1.00  0.00     0.003 C 
HETATM   14  C   UNL     1      27.783  42.271  54.398  1.00  0.00     0.038 C 
HETATM   15  O   UNL     1      26.204  43.658  53.216  1.00  0.00    -0.340 OA
HETATM   16  C   UNL     1      26.327  47.149  52.148  1.00  0.00     0.024 C 
HETATM   17  O   UNL     1      23.527  45.978  50.045  1.00  0.00    -0.292 OA
HETATM   18  C   UNL     1      23.545  46.925  49.053  1.00  0.00     0.163 C 
HETATM   19  N   UNL     1      22.518  46.948  48.287  1.00  0.00    -0.277 N 
HETATM   20  H   UNL     1      22.563  47.521  47.427  1.00  0.00     0.189 HD
HETATM   21  C   UNL     1      24.690  47.815  48.884  1.00  0.00     0.065 C 
ENDROOT
BRANCH  19  22
HETATM   22  N   UNL     1      21.256  46.411  48.602  1.00  0.00    -0.266 N 
HETATM   23  C   UNL     1      20.418  46.300  47.501  1.00  0.00     0.263 C 
HETATM   24  O   UNL     1      20.914  46.163  46.377  1.00  0.00    -0.269 OA
HETATM   25  H   UNL     1      20.923  46.543  49.553  1.00  0.00     0.190 HD
BRANCH  23  26
HETATM   26  C   UNL     1      18.926  46.625  47.758  1.00  0.00     0.214 C 
BRANCH  26  27
HETATM   27  N   UNL     1      18.821  48.070  47.858  1.00  0.00    -0.319 N 
HETATM   28  C   UNL     1      18.908  48.721  49.049  1.00  0.00     0.362 C 
HETATM   29  O   UNL     1      19.082  48.144  50.115  1.00  0.00    -0.238 OA
HETATM   30  H   UNL     1      18.735  48.643  47.027  1.00  0.00     0.166 HD
BRANCH  28  31
HETATM   31  O   UNL     1      18.865  50.049  48.832  1.00  0.00    -0.294 OA
BRANCH  31  32
HETATM   32  C   UNL     1      20.061  50.870  48.875  1.00  0.00     0.061 C 
HETATM   33  C   UNL     1      21.119  50.377  47.878  1.00  0.00     0.046 C 
HETATM   34  C   UNL     1      19.597  52.269  48.438  1.00  0.00     0.046 C 
HETATM   35  C   UNL     1      20.613  50.948  50.300  1.00  0.00     0.046 C 
ENDBRANCH  31  32
ENDBRANCH  28  31
ENDBRANCH  26  27
BRANCH  26  36
HETATM   36  C   UNL     1      17.999  46.113  46.679  1.00  0.00    -0.026 A 
HETATM   37  C   UNL     1      17.349  47.024  45.830  1.00  0.00     0.010 A 
HETATM   38  C   UNL     1      16.543  46.573  44.784  1.00  0.00     0.001 A 
HETATM   39  C   UNL     1      16.380  45.207  44.565  1.00  0.00     0.000 A 
HETATM   40  C   UNL     1      17.029  44.291  45.389  1.00  0.00     0.001 A 
HETATM   41  C   UNL     1      17.837  44.739  46.435  1.00  0.00     0.010 A 
ENDBRANCH  26  36
ENDBRANCH  23  26
ENDBRANCH  19  22
BRANCH   1  42
HETATM   42  C   UNL     1      26.834  48.789  49.668  1.00  0.00     0.035 C 
HETATM   43  C   UNL     1      26.687  49.796  48.541  1.00  0.00     0.010 C 
ENDBRANCH   1  42
TORSDOF 7
ENDMDL
MODEL 2
REMARK VINA RESULT:      -9.4      6.106     11.086
REMARK  7 active torsions:
REMARK  status: ('A' for Active; 'I' for Inactive)
REMARK    1  A    between atoms: C_2  and  C_3 
REMARK    2  A    between atoms: N_21  and  N_23 
REMARK       I    between atoms: N_23  and  C_24 
REMARK    3  A    between atoms: C_24  and  C_25 
REMARK    4  A    between atoms: C_25  and  N_26 
REMARK    5  A    between atoms: C_25  and  C_34 
REMARK       I    between atoms: N_26  and  C_27 
REMARK    6  A    between atoms: C_27  and  O_28 
REMARK    7  A    between atoms: O_28  and  C_29 
ROOT
HETATM    1  C   UNL     1      26.742  38.148  49.007  1.00  0.00    -0.041 C 
HETATM    2  C   UNL     1      26.922  39.159  47.953  1.00  0.00     0.005 C 
HETATM    3  C   UNL     1      28.016  40.025  48.053  1.00  0.00     0.091 C 
HETATM    4  C   UNL     1      28.545  40.639  46.922  1.00  0.00     0.075 C 
HETATM    5  C   UNL     1      27.910  40.435  45.698  1.00  0.00     0.079 C 
HETATM    6  C   UNL     1      26.640  39.854  45.646  1.00  0.00    -0.024 C 
HETATM    7  C   UNL     1      25.857  39.823  44.360  1.00  0.00     0.044 C 
HETATM    8  C   UNL     1      26.674  40.367  43.190  1.00  0.00     0.043 C 
HETATM    9  C   UNL     1      28.163  40.028  43.376  1.00  0.00     0.068 C 
HETATM   10  C   UNL     1      28.400  38.490  43.456  1.00  0.00     0.038 C 
HETATM   11  C   UNL     1      29.876  38.122  43.552  1.00  0.00     0.003 C 
HETATM   12  C   UNL     1      30.647  38.676  42.365  1.00  0.00     0.000 C 
HETATM   13  C   UNL     1      30.457  40.184  42.239  1.00  0.00     0.003 C 
HETATM   14  C   UNL     1      28.977  40.579  42.184  1.00  0.00     0.038 C 
HETATM   15  O   UNL     1      28.625  40.727  44.564  1.00  0.00    -0.340 OA
HETATM   16  C   UNL     1      26.164  39.184  46.778  1.00  0.00     0.024 C 
HETATM   17  O   UNL     1      28.638  40.268  49.296  1.00  0.00    -0.292 OA
HETATM   18  C   UNL     1      28.324  39.427  50.335  1.00  0.00     0.163 C 
HETATM   19  N   UNL     1      28.842  39.726  51.467  1.00  0.00    -0.277 N 
HETATM   20  H   UNL     1      28.776  39.032  52.232  1.00  0.00     0.189 HD
HETATM   21  C   UNL     1      27.476  38.258  50.124  1.00  0.00     0.065 C 
ENDROOT
BRANCH  19  22
HETATM   22  N   UNL     1      29.334  40.994  51.829  1.00  0.00    -0.266 N 
HETATM   23  C   UNL     1      28.549  41.635  52.778  1.00  0.00     0.263 C 
HETATM   24  O   UNL     1      27.877  40.957  53.563  1.00  0.00    -0.269 OA
HETATM   25  H   UNL     1      29.899  41.483  51.140  1.00  0.00     0.190 HD
BRANCH  23  26
HETATM   26  C   UNL     1      28.385  43.163  52.591  1.00  0.00     0.214 C 
BRANCH  26  27
HETATM   27  N   UNL     1      26.993  43.398  52.249  1.00  0.00    -0.319 N 
HETATM   28  C   UNL     1      26.623  43.948  51.062  1.00  0.00     0.362 C 
HETATM   29  O   UNL     1      27.426  44.282  50.201  1.00  0.00    -0.238 OA
HETATM   30  H   UNL     1      26.249  43.103  52.870  1.00  0.00     0.166 HD
BRANCH  28  31
HETATM   31  O   UNL     1      25.279  43.966  50.982  1.00  0.00    -0.294 OA
BRANCH  31  32
HETATM   32  C   UNL     1      24.568  43.315  49.897  1.00  0.00     0.061 C 
HETATM   33  C   UNL     1      25.144  41.924  49.602  1.00  0.00     0.046 C 
HETATM   34  C   UNL     1      23.129  43.146  50.411  1.00  0.00     0.046 C 
HETATM   35  C   UNL     1      24.553  44.202  48.651  1.00  0.00     0.046 C 
ENDBRANCH  31  32
ENDBRANCH  28  31
ENDBRANCH  26  27
BRANCH  26  36
HETATM   36  C   UNL     1      28.759  43.968  53.815  1.00  0.00    -0.026 A 
HETATM   37  C   UNL     1      29.901  43.620  54.555  1.00  0.00     0.010 A 
HETATM   38  C   UNL     1      30.304  44.390  55.647  1.00  0.00     0.001 A 
HETATM   39  C   UNL     1      29.578  45.522  56.012  1.00  0.00     0.000 A 
HETATM   40  C   UNL     1      28.452  45.888  55.280  1.00  0.00     0.001 A 
HETATM   41  C   UNL     1      28.047  45.122  54.186  1.00  0.00     0.010 A 
ENDBRANCH  26  36
ENDBRANCH  23  26
ENDBRANCH  19  22
BRANCH   1  42
HETATM   42  C   UNL     1      25.929  36.902  48.736  1.00  0.00     0.035 C 
HETATM   43  C   UNL     1      26.694  35.858  47.942  1.00  0.00     0.010 C 
ENDBRANCH   1  42
TORSDOF 7
ENDMDL
MODEL 3
REMARK VINA RESULT:      -9.2      3.045     10.964
REMARK  7 active torsions:
REMARK  status: ('A' for Active; 'I' for Inactive)
REMARK    1  A    between atoms: C_2  and  C_3 
REMARK    2  A    between atoms: N_21  and  N_23 
REMARK       I    between atoms: N_23  and  C_24 
REMARK    3  A    between atoms: C_24  and  C_25 
REMARK    4  A    between atoms: C_25  and  N_26 
REMARK    5  A    between atoms: C_25  and  C_34 
REMARK       I    between atoms: N_26  and  C_27 
REMARK    6  A    between atoms: C_27  and  O_28 
REMARK    7  A    between atoms: O_28  and  C_29 
ROOT
HETATM    1  C   UNL     1      21.940  44.813  46.096  1.00  0.00    -0.041 C 
HETATM    2  C   UNL     1      21.076  45.380  47.144  1.00  0.00     0.005 C 
HETATM    3  C   UNL     1      21.659  45.702  48.373  1.00  0.00     0.091 C 
HETATM    4  C   UNL     1      21.089  46.661  49.204  1.00  0.00     0.075 C 
HETATM    5  C   UNL     1      19.878  47.236  48.821  1.00  0.00     0.079 C 
HETATM    6  C   UNL     1      19.131  46.684  47.777  1.00  0.00    -0.024 C 
HETATM    7  C   UNL     1      17.730  47.160  47.495  1.00  0.00     0.044 C 
HETATM    8  C   UNL     1      17.349  48.344  48.381  1.00  0.00     0.043 C 
HETATM    9  C   UNL     1      18.583  49.216  48.667  1.00  0.00     0.068 C 
HETATM   10  C   UNL     1      19.210  49.777  47.356  1.00  0.00     0.038 C 
HETATM   11  C   UNL     1      20.383  50.716  47.615  1.00  0.00     0.003 C 
HETATM   12  C   UNL     1      19.956  51.881  48.493  1.00  0.00     0.000 C 
HETATM   13  C   UNL     1      19.337  51.391  49.798  1.00  0.00     0.003 C 
HETATM   14  C   UNL     1      18.182  50.412  49.560  1.00  0.00     0.038 C 
HETATM   15  O   UNL     1      19.518  48.409  49.434  1.00  0.00    -0.340 OA
HETATM   16  C   UNL     1      19.753  45.773  46.916  1.00  0.00     0.024 C 
HETATM   17  O   UNL     1      22.864  45.094  48.786  1.00  0.00    -0.292 OA
HETATM   18  C   UNL     1      23.579  44.403  47.840  1.00  0.00     0.163 C 
HETATM   19  N   UNL     1      24.623  43.796  48.267  1.00  0.00    -0.277 N 
HETATM   20  H   UNL     1      25.283  43.411  47.569  1.00  0.00     0.189 HD
HETATM   21  C   UNL     1      23.170  44.405  46.439  1.00  0.00     0.065 C 
ENDROOT
BRANCH  19  22
HETATM   22  N   UNL     1      24.866  43.436  49.606  1.00  0.00    -0.266 N 
HETATM   23  C   UNL     1      26.205  43.516  49.960  1.00  0.00     0.263 C 
HETATM   24  O   UNL     1      26.941  44.311  49.364  1.00  0.00    -0.269 OA
HETATM   25  H   UNL     1      24.205  42.796  50.038  1.00  0.00     0.190 HD
BRANCH  23  26
HETATM   26  C   UNL     1      26.717  42.401  50.905  1.00  0.00     0.214 C 
BRANCH  26  27
HETATM   27  N   UNL     1      27.388  41.419  50.071  1.00  0.00    -0.319 N 
HETATM   28  C   UNL     1      26.951  40.136  49.970  1.00  0.00     0.362 C 
HETATM   29  O   UNL     1      25.967  39.716  50.566  1.00  0.00    -0.238 OA
HETATM   30  H   UNL     1      28.177  41.682  49.493  1.00  0.00     0.166 HD
BRANCH  28  31
HETATM   31  O   UNL     1      27.705  39.480  49.068  1.00  0.00    -0.294 OA
BRANCH  31  32
HETATM   32  C   UNL     1      28.403  38.252  49.402  1.00  0.00     0.061 C 
HETATM   33  C   UNL     1      27.422  37.102  49.668  1.00  0.00     0.046 C 
HETATM   34  C   UNL     1      29.225  37.911  48.149  1.00  0.00     0.046 C 
HETATM   35  C   UNL     1      29.355  38.474  50.580  1.00  0.00     0.046 C 
ENDBRANCH  31  32
ENDBRANCH  28  31
ENDBRANCH  26  27
BRANCH  26  36
HETATM   36  C   UNL     1      27.659  42.899  51.977  1.00  0.00    -0.026 A 
HETATM   37  C   UNL     1      27.196  43.806  52.944  1.00  0.00     0.010 A 
HETATM   38  C   UNL     1      28.028  44.225  53.984  1.00  0.00     0.001 A 
HETATM   39  C   UNL     1      29.330  43.740  54.077  1.00  0.00     0.000 A 
HETATM   40  C   UNL     1      29.799  42.829  53.135  1.00  0.00     0.001 A 
HETATM   41  C   UNL     1      28.970  42.406  52.096  1.00  0.00     0.010 A 
ENDBRANCH  26  36
ENDBRANCH  23  26
ENDBRANCH  19  22
BRANCH   1  42
HETATM   42  C   UNL     1      21.532  44.904  44.642  1.00  0.00     0.035 C 
HETATM   43  C   UNL     1      22.711  45.127  43.711  1.00  0.00     0.010 C 
ENDBRANCH   1  42
TORSDOF 7
ENDMDL
MODEL 4
REMARK VINA RESULT:      -8.9      3.305      8.325
REMARK  7 active torsions:
REMARK  status: ('A' for Active; 'I' for Inactive)
REMARK    1  A    between atoms: C_2  and  C_3 
REMARK    2  A    between atoms: N_21  and  N_23 
REMARK       I    between atoms: N_23  and  C_24 
REMARK    3  A    between atoms: C_24  and  C_25 
REMARK    4  A    between atoms: C_25  and  N_26 
REMARK    5  A    between atoms: C_25  and  C_34 
REMARK       I    between atoms: N_26  and  C_27 
REMARK    6  A    between atoms: C_27  and  O_28 
REMARK    7  A    between atoms: O_28  and  C_29 
ROOT
HETATM    1  C   UNL     1      25.948  46.553  51.783  1.00  0.00    -0.041 C 
HETATM    2  C   UNL     1      25.308  46.968  50.524  1.00  0.00     0.005 C 
HETATM    3  C   UNL     1      24.217  46.224  50.065  1.00  0.00     0.091 C 
HETATM    4  C   UNL     1      23.271  46.792  49.218  1.00  0.00     0.075 C 
HETATM    5  C   UNL     1      23.479  48.096  48.772  1.00  0.00     0.079 C 
HETATM    6  C   UNL     1      24.717  48.718  48.951  1.00  0.00    -0.024 C 
HETATM    7  C   UNL     1      25.023  50.036  48.290  1.00  0.00     0.044 C 
HETATM    8  C   UNL     1      23.803  50.596  47.562  1.00  0.00     0.043 C 
HETATM    9  C   UNL     1      22.513  50.211  48.306  1.00  0.00     0.068 C 
HETATM   10  C   UNL     1      22.500  50.762  49.763  1.00  0.00     0.038 C 
HETATM   11  C   UNL     1      21.196  50.469  50.496  1.00  0.00     0.003 C 
HETATM   12  C   UNL     1      20.012  51.051  49.740  1.00  0.00     0.000 C 
HETATM   13  C   UNL     1      19.970  50.542  48.303  1.00  0.00     0.003 C 
HETATM   14  C   UNL     1      21.288  50.788  47.562  1.00  0.00     0.038 C 
HETATM   15  O   UNL     1      22.397  48.762  48.255  1.00  0.00    -0.340 OA
HETATM   16  C   UNL     1      25.621  48.160  49.862  1.00  0.00     0.024 C 
HETATM   17  O   UNL     1      24.023  44.889  50.482  1.00  0.00    -0.292 OA
HETATM   18  C   UNL     1      24.763  44.446  51.549  1.00  0.00     0.163 C 
HETATM   19  N   UNL     1      24.623  43.208  51.847  1.00  0.00    -0.277 N 
HETATM   20  H   UNL     1      25.022  42.874  52.741  1.00  0.00     0.189 HD
HETATM   21  C   UNL     1      25.623  45.358  52.296  1.00  0.00     0.065 C 
ENDROOT
BRANCH  19  22
HETATM   22  N   UNL     1      24.135  42.212  50.981  1.00  0.00    -0.266 N 
HETATM   23  C   UNL     1      25.140  41.521  50.321  1.00  0.00     0.263 C 
HETATM   24  O   UNL     1      26.254  41.426  50.848  1.00  0.00    -0.269 OA
HETATM   25  H   UNL     1      23.200  42.347  50.604  1.00  0.00     0.190 HD
BRANCH  23  26
HETATM   26  C   UNL     1      24.844  41.150  48.846  1.00  0.00     0.214 C 
BRANCH  26  27
HETATM   27  N   UNL     1      24.453  42.378  48.175  1.00  0.00    -0.319 N 
HETATM   28  C   UNL     1      23.151  42.698  47.952  1.00  0.00     0.362 C 
HETATM   29  O   UNL     1      22.218  41.984  48.299  1.00  0.00    -0.238 OA
HETATM   30  H   UNL     1      25.148  43.063  47.901  1.00  0.00     0.166 HD
BRANCH  28  31
HETATM   31  O   UNL     1      23.084  43.922  47.396  1.00  0.00    -0.294 OA
BRANCH  31  32
HETATM   32  C   UNL     1      22.416  44.152  46.128  1.00  0.00     0.061 C 
HETATM   33  C   UNL     1      21.217  43.213  45.946  1.00  0.00     0.046 C 
HETATM   34  C   UNL     1      21.896  45.596  46.211  1.00  0.00     0.046 C 
HETATM   35  C   UNL     1      23.408  44.043  44.968  1.00  0.00     0.046 C 
ENDBRANCH  31  32
ENDBRANCH  28  31
ENDBRANCH  26  27
BRANCH  26  36
HETATM   36  C   UNL     1      26.017  40.521  48.130  1.00  0.00    -0.026 A 
HETATM   37  C   UNL     1      26.990  41.340  47.536  1.00  0.00     0.010 A 
HETATM   38  C   UNL     1      28.117  40.782  46.930  1.00  0.00     0.001 A 
HETATM   39  C   UNL     1      28.292  39.401  46.915  1.00  0.00     0.000 A 
HETATM   40  C   UNL     1      27.343  38.576  47.512  1.00  0.00     0.001 A 
HETATM   41  C   UNL     1      26.217  39.130  48.121  1.00  0.00     0.010 A 
ENDBRANCH  26  36
ENDBRANCH  23  26
ENDBRANCH  19  22
BRANCH   1  42
HETATM   42  C   UNL     1      26.765  47.543  52.584  1.00  0.00     0.035 C 
HETATM   43  C   UNL     1      26.824  47.201  54.063  1.00  0.00     0.010 C 
ENDBRANCH   1  42
TORSDOF 7
ENDMDL
MODEL 5
REMARK VINA RESULT:      -8.7      2.214      9.976
REMARK  7 active torsions:
REMARK  status: ('A' for Active; 'I' for Inactive)
REMARK    1  A    between atoms: C_2  and  C_3 
REMARK    2  A    between atoms: N_21  and  N_23 
REMARK       I    between atoms: N_23  and  C_24 
REMARK    3  A    between atoms: C_24  and  C_25 
REMARK    4  A    between atoms: C_25  and  N_26 
REMARK    5  A    between atoms: C_25  and  C_34 
REMARK       I    between atoms: N_26  and  C_27 
REMARK    6  A    between atoms: C_27  and  O_28 
REMARK    7  A    between atoms: O_28  and  C_29 
ROOT
HETATM    1  C   UNL     1      20.197  43.818  46.471  1.00  0.00    -0.041 C 
HETATM    2  C   UNL     1      19.856  44.930  47.373  1.00  0.00     0.005 C 
HETATM    3  C   UNL     1      20.885  45.784  47.780  1.00  0.00     0.091 C 
HETATM    4  C   UNL     1      20.613  47.087  48.187  1.00  0.00     0.075 C 
HETATM    5  C   UNL     1      19.282  47.495  48.255  1.00  0.00     0.079 C 
HETATM    6  C   UNL     1      18.248  46.559  48.175  1.00  0.00    -0.024 C 
HETATM    7  C   UNL     1      16.823  46.956  48.459  1.00  0.00     0.044 C 
HETATM    8  C   UNL     1      16.694  48.459  48.697  1.00  0.00     0.043 C 
HETATM    9  C   UNL     1      17.714  49.225  47.837  1.00  0.00     0.068 C 
HETATM   10  C   UNL     1      17.505  48.957  46.317  1.00  0.00     0.038 C 
HETATM   11  C   UNL     1      18.446  49.771  45.437  1.00  0.00     0.003 C 
HETATM   12  C   UNL     1      18.277  51.259  45.701  1.00  0.00     0.000 C 
HETATM   13  C   UNL     1      18.477  51.583  47.178  1.00  0.00     0.003 C 
HETATM   14  C   UNL     1      17.569  50.743  48.084  1.00  0.00     0.038 C 
HETATM   15  O   UNL     1      19.041  48.845  48.295  1.00  0.00    -0.340 OA
HETATM   16  C   UNL     1      18.541  45.277  47.697  1.00  0.00     0.024 C 
HETATM   17  O   UNL     1      22.232  45.363  47.753  1.00  0.00    -0.292 OA
HETATM   18  C   UNL     1      22.520  44.214  47.060  1.00  0.00     0.163 C 
HETATM   19  N   UNL     1      23.736  43.816  47.124  1.00  0.00    -0.277 N 
HETATM   20  H   UNL     1      24.037  43.062  46.484  1.00  0.00     0.189 HD
HETATM   21  C   UNL     1      21.493  43.528  46.282  1.00  0.00     0.065 C 
ENDROOT
BRANCH  19  22
HETATM   22  N   UNL     1      24.661  44.183  48.119  1.00  0.00    -0.266 N 
HETATM   23  C   UNL     1      24.388  43.616  49.356  1.00  0.00     0.263 C 
HETATM   24  O   UNL     1      23.782  42.540  49.406  1.00  0.00    -0.269 OA
HETATM   25  H   UNL     1      25.140  45.072  47.999  1.00  0.00     0.190 HD
BRANCH  23  26
HETATM   26  C   UNL     1      24.643  44.526  50.582  1.00  0.00     0.214 C 
BRANCH  26  27
HETATM   27  N   UNL     1      25.677  43.883  51.376  1.00  0.00    -0.319 N 
HETATM   28  C   UNL     1      25.644  43.872  52.734  1.00  0.00     0.362 C 
HETATM   29  O   UNL     1      24.749  44.396  53.385  1.00  0.00    -0.238 OA
HETATM   30  H   UNL     1      26.429  43.371  50.930  1.00  0.00     0.166 HD
BRANCH  28  31
HETATM   31  O   UNL     1      26.672  43.136  53.197  1.00  0.00    -0.294 OA
BRANCH  31  32
HETATM   32  C   UNL     1      27.989  43.707  53.407  1.00  0.00     0.061 C 
HETATM   33  C   UNL     1      27.903  45.100  54.045  1.00  0.00     0.046 C 
HETATM   34  C   UNL     1      28.679  42.758  54.400  1.00  0.00     0.046 C 
HETATM   35  C   UNL     1      28.785  43.727  52.099  1.00  0.00     0.046 C 
ENDBRANCH  31  32
ENDBRANCH  28  31
ENDBRANCH  26  27
BRANCH  26  36
HETATM   36  C   UNL     1      25.070  45.930  50.219  1.00  0.00    -0.026 A 
HETATM   37  C   UNL     1      26.430  46.213  50.012  1.00  0.00     0.010 A 
HETATM   38  C   UNL     1      26.840  47.485  49.608  1.00  0.00     0.001 A 
HETATM   39  C   UNL     1      25.898  48.489  49.399  1.00  0.00     0.000 A 
HETATM   40  C   UNL     1      24.545  48.221  49.586  1.00  0.00     0.001 A 
HETATM   41  C   UNL     1      24.131  46.950  49.987  1.00  0.00     0.010 A 
ENDBRANCH  26  36
ENDBRANCH  23  26
ENDBRANCH  19  22
BRANCH   1  42
HETATM   42  C   UNL     1      19.129  43.180  45.611  1.00  0.00     0.035 C 
HETATM   43  C   UNL     1      19.689  42.170  44.624  1.00  0.00     0.010 C 
ENDBRANCH   1  42
TORSDOF 7
ENDMDL
MODEL 6
REMARK VINA RESULT:      -8.7      4.262      9.349
REMARK  7 active torsions:
REMARK  status: ('A' for Active; 'I' for Inactive)
REMARK    1  A    between atoms: C_2  and  C_3 
REMARK    2  A    between atoms: N_21  and  N_23 
REMARK       I    between atoms: N_23  and  C_24 
REMARK    3  A    between atoms: C_24  and  C_25 
REMARK    4  A    between atoms: C_25  and  N_26 
REMARK    5  A    between atoms: C_25  and  C_34 
REMARK       I    between atoms: N_26  and  C_27 
REMARK    6  A    between atoms: C_27  and  O_28 
REMARK    7  A    between atoms: O_28  and  C_29 
ROOT
HETATM    1  C   UNL     1      25.524  46.492  51.830  1.00  0.00    -0.041 C 
HETATM    2  C   UNL     1      24.982  46.915  50.528  1.00  0.00     0.005 C 
HETATM    3  C   UNL     1      24.049  46.083  49.902  1.00  0.00     0.091 C 
HETATM    4  C   UNL     1      23.140  46.594  48.981  1.00  0.00     0.075 C 
HETATM    5  C   UNL     1      23.233  47.941  48.636  1.00  0.00     0.079 C 
HETATM    6  C   UNL     1      24.357  48.690  48.997  1.00  0.00    -0.024 C 
HETATM    7  C   UNL     1      24.568  50.077  48.451  1.00  0.00     0.044 C 
HETATM    8  C   UNL     1      23.377  50.541  47.615  1.00  0.00     0.043 C 
HETATM    9  C   UNL     1      22.070  49.956  48.178  1.00  0.00     0.068 C 
HETATM   10  C   UNL     1      21.827  50.399  49.652  1.00  0.00     0.038 C 
HETATM   11  C   UNL     1      20.495  49.905  50.207  1.00  0.00     0.003 C 
HETATM   12  C   UNL     1      19.340  50.397  49.349  1.00  0.00     0.000 C 
HETATM   13  C   UNL     1      19.522  49.987  47.891  1.00  0.00     0.003 C 
HETATM   14  C   UNL     1      20.874  50.437  47.327  1.00  0.00     0.038 C 
HETATM   15  O   UNL     1      22.141  48.511  48.033  1.00  0.00    -0.340 OA
HETATM   16  C   UNL     1      25.216  48.179  49.976  1.00  0.00     0.024 C 
HETATM   17  O   UNL     1      23.978  44.709  50.218  1.00  0.00    -0.292 OA
HETATM   18  C   UNL     1      24.644  44.282  51.339  1.00  0.00     0.163 C 
HETATM   19  N   UNL     1      24.625  43.018  51.549  1.00  0.00    -0.277 N 
HETATM   20  H   UNL     1      24.961  42.671  52.463  1.00  0.00     0.189 HD
HETATM   21  C   UNL     1      25.295  45.233  52.233  1.00  0.00     0.065 C 
ENDROOT
BRANCH  19  22
HETATM   22  N   UNL     1      24.364  42.035  50.576  1.00  0.00    -0.266 N 
HETATM   23  C   UNL     1      25.515  41.456  50.061  1.00  0.00     0.263 C 
HETATM   24  O   UNL     1      26.536  41.417  50.757  1.00  0.00    -0.269 OA
HETATM   25  H   UNL     1      23.494  42.118  50.059  1.00  0.00     0.190 HD
BRANCH  23  26
HETATM   26  C   UNL     1      25.487  41.142  48.545  1.00  0.00     0.214 C 
BRANCH  26  27
HETATM   27  N   UNL     1      25.795  39.729  48.402  1.00  0.00    -0.319 N 
HETATM   28  C   UNL     1      27.017  39.293  47.997  1.00  0.00     0.362 C 
HETATM   29  O   UNL     1      27.941  40.049  47.726  1.00  0.00    -0.238 OA
HETATM   30  H   UNL     1      25.116  39.022  48.658  1.00  0.00     0.166 HD
BRANCH  28  31
HETATM   31  O   UNL     1      27.044  37.947  48.040  1.00  0.00    -0.294 OA
BRANCH  31  32
HETATM   32  C   UNL     1      27.272  37.148  46.850  1.00  0.00     0.061 C 
HETATM   33  C   UNL     1      28.768  37.012  46.542  1.00  0.00     0.046 C 
HETATM   34  C   UNL     1      26.717  35.756  47.196  1.00  0.00     0.046 C 
HETATM   35  C   UNL     1      26.493  37.715  45.660  1.00  0.00     0.046 C 
ENDBRANCH  31  32
ENDBRANCH  28  31
ENDBRANCH  26  27
BRANCH  26  36
HETATM   36  C   UNL     1      24.163  41.451  47.885  1.00  0.00    -0.026 A 
HETATM   37  C   UNL     1      23.889  42.759  47.453  1.00  0.00     0.010 A 
HETATM   38  C   UNL     1      22.702  43.053  46.779  1.00  0.00     0.001 A 
HETATM   39  C   UNL     1      21.776  42.045  46.521  1.00  0.00     0.000 A 
HETATM   40  C   UNL     1      22.039  40.740  46.930  1.00  0.00     0.001 A 
HETATM   41  C   UNL     1      23.226  40.442  47.601  1.00  0.00     0.010 A 
ENDBRANCH  26  36
ENDBRANCH  23  26
ENDBRANCH  19  22
BRANCH   1  42
HETATM   42  C   UNL     1      26.118  47.512  52.775  1.00  0.00     0.035 C 
HETATM   43  C   UNL     1      26.505  46.917  54.118  1.00  0.00     0.010 C 
ENDBRANCH   1  42
TORSDOF 7
ENDMDL
MODEL 7
REMARK VINA RESULT:      -8.5      2.423     10.747
REMARK  7 active torsions:
REMARK  status: ('A' for Active; 'I' for Inactive)
REMARK    1  A    between atoms: C_2  and  C_3 
REMARK    2  A    between atoms: N_21  and  N_23 
REMARK       I    between atoms: N_23  and  C_24 
REMARK    3  A    between atoms: C_24  and  C_25 
REMARK    4  A    between atoms: C_25  and  N_26 
REMARK    5  A    between atoms: C_25  and  C_34 
REMARK       I    between atoms: N_26  and  C_27 
REMARK    6  A    between atoms: C_27  and  O_28 
REMARK    7  A    between atoms: O_28  and  C_29 
ROOT
HETATM    1  C   UNL     1      21.039  45.383  46.721  1.00  0.00    -0.041 C 
HETATM    2  C   UNL     1      20.043  46.089  47.544  1.00  0.00     0.005 C 
HETATM    3  C   UNL     1      20.506  46.927  48.562  1.00  0.00     0.091 C 
HETATM    4  C   UNL     1      19.724  47.976  49.035  1.00  0.00     0.075 C 
HETATM    5  C   UNL     1      18.435  48.124  48.525  1.00  0.00     0.079 C 
HETATM    6  C   UNL     1      17.852  47.106  47.767  1.00  0.00    -0.024 C 
HETATM    7  C   UNL     1      16.394  47.160  47.393  1.00  0.00     0.044 C 
HETATM    8  C   UNL     1      15.748  48.472  47.832  1.00  0.00     0.043 C 
HETATM    9  C   UNL     1      16.768  49.622  47.751  1.00  0.00     0.068 C 
HETATM   10  C   UNL     1      17.311  49.811  46.303  1.00  0.00     0.038 C 
HETATM   11  C   UNL     1      18.257  51.000  46.176  1.00  0.00     0.003 C 
HETATM   12  C   UNL     1      17.571  52.283  46.615  1.00  0.00     0.000 C 
HETATM   13  C   UNL     1      17.022  52.158  48.033  1.00  0.00     0.003 C 
HETATM   14  C   UNL     1      16.100  50.943  48.192  1.00  0.00     0.038 C 
HETATM   15  O   UNL     1      17.822  49.337  48.711  1.00  0.00    -0.340 OA
HETATM   16  C   UNL     1      18.676  46.102  47.248  1.00  0.00     0.024 C 
HETATM   17  O   UNL     1      21.796  46.757  49.111  1.00  0.00    -0.292 OA
HETATM   18  C   UNL     1      22.669  45.944  48.433  1.00  0.00     0.163 C 
HETATM   19  N   UNL     1      23.800  45.747  49.001  1.00  0.00    -0.277 N 
HETATM   20  H   UNL     1      24.548  45.288  48.453  1.00  0.00     0.189 HD
HETATM   21  C   UNL     1      22.315  45.379  47.135  1.00  0.00     0.065 C 
ENDROOT
BRANCH  19  22
HETATM   22  N   UNL     1      24.066  45.929  50.371  1.00  0.00    -0.266 N 
HETATM   23  C   UNL     1      25.310  45.450  50.756  1.00  0.00     0.263 C 
HETATM   24  O   UNL     1      26.223  45.405  49.923  1.00  0.00    -0.269 OA
HETATM   25  H   UNL     1      23.264  45.979  50.993  1.00  0.00     0.190 HD
BRANCH  23  26
HETATM   26  C   UNL     1      25.366  44.763  52.142  1.00  0.00     0.214 C 
BRANCH  26  27
HETATM   27  N   UNL     1      25.735  43.377  51.911  1.00  0.00    -0.319 N 
HETATM   28  C   UNL     1      25.000  42.557  51.114  1.00  0.00     0.362 C 
HETATM   29  O   UNL     1      23.984  42.922  50.535  1.00  0.00    -0.238 OA
HETATM   30  H   UNL     1      26.590  42.997  52.298  1.00  0.00     0.166 HD
BRANCH  28  31
HETATM   31  O   UNL     1      25.620  41.366  51.012  1.00  0.00    -0.294 OA
BRANCH  31  32
HETATM   32  C   UNL     1      26.731  41.157  50.103  1.00  0.00     0.061 C 
HETATM   33  C   UNL     1      28.077  41.218  50.836  1.00  0.00     0.046 C 
HETATM   34  C   UNL     1      26.537  39.731  49.561  1.00  0.00     0.046 C 
HETATM   35  C   UNL     1      26.670  42.147  48.938  1.00  0.00     0.046 C 
ENDBRANCH  31  32
ENDBRANCH  28  31
ENDBRANCH  26  27
BRANCH  26  36
HETATM   36  C   UNL     1      26.345  45.405  53.099  1.00  0.00    -0.026 A 
HETATM   37  C   UNL     1      26.165  46.743  53.487  1.00  0.00     0.010 A 
HETATM   38  C   UNL     1      27.016  47.335  54.421  1.00  0.00     0.001 A 
HETATM   39  C   UNL     1      28.054  46.598  54.988  1.00  0.00     0.000 A 
HETATM   40  C   UNL     1      28.237  45.267  54.624  1.00  0.00     0.001 A 
HETATM   41  C   UNL     1      27.387  44.671  53.692  1.00  0.00     0.010 A 
ENDBRANCH  26  36
ENDBRANCH  23  26
ENDBRANCH  19  22
BRANCH   1  42
HETATM   42  C   UNL     1      20.671  44.882  45.343  1.00  0.00     0.035 C 
HETATM   43  C   UNL     1      20.969  45.892  44.248  1.00  0.00     0.010 C 
ENDBRANCH   1  42
TORSDOF 7
ENDMDL
MODEL 8
REMARK VINA RESULT:      -8.5      3.498      7.618
REMARK  7 active torsions:
REMARK  status: ('A' for Active; 'I' for Inactive)
REMARK    1  A    between atoms: C_2  and  C_3 
REMARK    2  A    between atoms: N_21  and  N_23 
REMARK       I    between atoms: N_23  and  C_24 
REMARK    3  A    between atoms: C_24  and  C_25 
REMARK    4  A    between atoms: C_25  and  N_26 
REMARK    5  A    between atoms: C_25  and  C_34 
REMARK       I    between atoms: N_26  and  C_27 
REMARK    6  A    between atoms: C_27  and  O_28 
REMARK    7  A    between atoms: O_28  and  C_29 
ROOT
HETATM    1  C   UNL     1      24.868  46.192  50.807  1.00  0.00    -0.041 C 
HETATM    2  C   UNL     1      24.197  46.888  49.697  1.00  0.00     0.005 C 
HETATM    3  C   UNL     1      23.068  46.288  49.132  1.00  0.00     0.091 C 
HETATM    4  C   UNL     1      22.111  47.050  48.469  1.00  0.00     0.075 C 
HETATM    5  C   UNL     1      22.344  48.415  48.311  1.00  0.00     0.079 C 
HETATM    6  C   UNL     1      23.606  48.954  48.571  1.00  0.00    -0.024 C 
HETATM    7  C   UNL     1      23.929  50.378  48.203  1.00  0.00     0.044 C 
HETATM    8  C   UNL     1      22.702  51.112  47.666  1.00  0.00     0.043 C 
HETATM    9  C   UNL     1      21.428  50.602  48.360  1.00  0.00     0.068 C 
HETATM   10  C   UNL     1      21.483  50.819  49.901  1.00  0.00     0.038 C 
HETATM   11  C   UNL     1      20.197  50.401  50.605  1.00  0.00     0.003 C 
HETATM   12  C   UNL     1      19.006  51.162  50.044  1.00  0.00     0.000 C 
HETATM   13  C   UNL     1      18.897  50.982  48.534  1.00  0.00     0.003 C 
HETATM   14  C   UNL     1      20.196  51.356  47.811  1.00  0.00     0.038 C 
HETATM   15  O   UNL     1      21.265  49.203  47.997  1.00  0.00    -0.340 OA
HETATM   16  C   UNL     1      24.523  48.189  49.300  1.00  0.00     0.024 C 
HETATM   17  O   UNL     1      22.848  44.899  49.253  1.00  0.00    -0.292 OA
HETATM   18  C   UNL     1      23.611  44.215  50.166  1.00  0.00     0.163 C 
HETATM   19  N   UNL     1      23.442  42.946  50.192  1.00  0.00    -0.277 N 
HETATM   20  H   UNL     1      23.862  42.414  50.973  1.00  0.00     0.189 HD
HETATM   21  C   UNL     1      24.524  44.921  51.059  1.00  0.00     0.065 C 
ENDROOT
BRANCH  19  22
HETATM   22  N   UNL     1      22.894  42.176  49.149  1.00  0.00    -0.266 N 
HETATM   23  C   UNL     1      23.689  42.148  48.012  1.00  0.00     0.263 C 
HETATM   24  O   UNL     1      24.911  42.300  48.126  1.00  0.00    -0.269 OA
HETATM   25  H   UNL     1      21.882  42.076  49.133  1.00  0.00     0.190 HD
BRANCH  23  26
HETATM   26  C   UNL     1      22.932  42.191  46.662  1.00  0.00     0.214 C 
BRANCH  26  27
HETATM   27  N   UNL     1      22.162  43.423  46.650  1.00  0.00    -0.319 N 
HETATM   28  C   UNL     1      20.812  43.431  46.497  1.00  0.00     0.362 C 
HETATM   29  O   UNL     1      20.149  42.411  46.360  1.00  0.00    -0.238 OA
HETATM   30  H   UNL     1      22.612  44.316  46.814  1.00  0.00     0.166 HD
BRANCH  28  31
HETATM   31  O   UNL     1      20.360  44.694  46.612  1.00  0.00    -0.294 OA
BRANCH  31  32
HETATM   32  C   UNL     1      19.566  45.321  45.572  1.00  0.00     0.061 C 
HETATM   33  C   UNL     1      18.096  44.892  45.650  1.00  0.00     0.046 C 
HETATM   34  C   UNL     1      19.649  46.828  45.865  1.00  0.00     0.046 C 
HETATM   35  C   UNL     1      20.169  45.046  44.192  1.00  0.00     0.046 C 
ENDBRANCH  31  32
ENDBRANCH  28  31
ENDBRANCH  26  27
BRANCH  26  36
HETATM   36  C   UNL     1      23.839  42.137  45.455  1.00  0.00    -0.026 A 
HETATM   37  C   UNL     1      23.821  43.187  44.523  1.00  0.00     0.010 A 
HETATM   38  C   UNL     1      24.700  43.192  43.438  1.00  0.00     0.001 A 
HETATM   39  C   UNL     1      25.612  42.153  43.271  1.00  0.00     0.000 A 
HETATM   40  C   UNL     1      25.652  41.112  44.194  1.00  0.00     0.001 A 
HETATM   41  C   UNL     1      24.778  41.105  45.281  1.00  0.00     0.010 A 
ENDBRANCH  26  36
ENDBRANCH  23  26
ENDBRANCH  19  22
BRANCH   1  42
HETATM   42  C   UNL     1      25.743  46.963  51.771  1.00  0.00     0.035 C 
HETATM   43  C   UNL     1      25.685  46.417  53.188  1.00  0.00     0.010 C 
ENDBRANCH   1  42
TORSDOF 7
ENDMDL
MODEL 9
REMARK VINA RESULT:      -8.3      5.938      9.838
REMARK  7 active torsions:
REMARK  status: ('A' for Active; 'I' for Inactive)
REMARK    1  A    between atoms: C_2  and  C_3 
REMARK    2  A    between atoms: N_21  and  N_23 
REMARK       I    between atoms: N_23  and  C_24 
REMARK    3  A    between atoms: C_24  and  C_25 
REMARK    4  A    between atoms: C_25  and  N_26 
REMARK    5  A    between atoms: C_25  and  C_34 
REMARK       I    between atoms: N_26  and  C_27 
REMARK    6  A    between atoms: C_27  and  O_28 
REMARK    7  A    between atoms: O_28  and  C_29 
ROOT
HETATM    1  C   UNL     1      28.470  39.258  48.948  1.00  0.00    -0.041 C 
HETATM    2  C   UNL     1      27.716  39.100  47.694  1.00  0.00     0.005 C 
HETATM    3  C   UNL     1      27.196  40.249  47.091  1.00  0.00     0.091 C 
HETATM    4  C   UNL     1      26.930  40.281  45.725  1.00  0.00     0.075 C 
HETATM    5  C   UNL     1      27.118  39.114  44.986  1.00  0.00     0.079 C 
HETATM    6  C   UNL     1      27.311  37.890  45.631  1.00  0.00    -0.024 C 
HETATM    7  C   UNL     1      27.302  36.599  44.855  1.00  0.00     0.044 C 
HETATM    8  C   UNL     1      27.191  36.846  43.352  1.00  0.00     0.043 C 
HETATM    9  C   UNL     1      27.913  38.149  42.971  1.00  0.00     0.068 C 
HETATM   10  C   UNL     1      29.425  38.102  43.342  1.00  0.00     0.038 C 
HETATM   11  C   UNL     1      30.183  39.347  42.896  1.00  0.00     0.003 C 
HETATM   12  C   UNL     1      30.052  39.548  41.395  1.00  0.00     0.000 C 
HETATM   13  C   UNL     1      28.588  39.608  40.972  1.00  0.00     0.003 C 
HETATM   14  C   UNL     1      27.797  38.384  41.448  1.00  0.00     0.038 C 
HETATM   15  O   UNL     1      27.211  39.243  43.624  1.00  0.00    -0.340 OA
HETATM   16  C   UNL     1      27.645  37.894  46.989  1.00  0.00     0.024 C 
HETATM   17  O   UNL     1      26.965  41.421  47.842  1.00  0.00    -0.292 OA
HETATM   18  C   UNL     1      27.520  41.488  49.095  1.00  0.00     0.163 C 
HETATM   19  N   UNL     1      27.223  42.529  49.780  1.00  0.00    -0.277 N 
HETATM   20  H   UNL     1      27.750  42.706  50.652  1.00  0.00     0.189 HD
HETATM   21  C   UNL     1      28.414  40.440  49.577  1.00  0.00     0.065 C 
ENDROOT
BRANCH  19  22
HETATM   22  N   UNL     1      26.111  43.362  49.555  1.00  0.00    -0.266 N 
HETATM   23  C   UNL     1      26.400  44.711  49.696  1.00  0.00     0.263 C 
HETATM   24  O   UNL     1      27.553  45.107  49.487  1.00  0.00    -0.269 OA
HETATM   25  H   UNL     1      25.193  42.960  49.725  1.00  0.00     0.190 HD
BRANCH  23  26
HETATM   26  C   UNL     1      25.296  45.568  50.363  1.00  0.00     0.214 C 
BRANCH  26  27
HETATM   27  N   UNL     1      25.667  45.718  51.760  1.00  0.00    -0.319 N 
HETATM   28  C   UNL     1      25.308  44.809  52.705  1.00  0.00     0.362 C 
HETATM   29  O   UNL     1      24.654  43.805  52.452  1.00  0.00    -0.238 OA
HETATM   30  H   UNL     1      26.258  46.484  52.061  1.00  0.00     0.166 HD
BRANCH  28  31
HETATM   31  O   UNL     1      25.859  45.154  53.884  1.00  0.00    -0.294 OA
BRANCH  31  32
HETATM   32  C   UNL     1      27.136  44.618  54.318  1.00  0.00     0.061 C 
HETATM   33  C   UNL     1      27.748  45.464  55.442  1.00  0.00     0.046 C 
HETATM   34  C   UNL     1      26.809  43.225  54.881  1.00  0.00     0.046 C 
HETATM   35  C   UNL     1      28.091  44.467  53.132  1.00  0.00     0.046 C 
ENDBRANCH  31  32
ENDBRANCH  28  31
ENDBRANCH  26  27
BRANCH  26  36
HETATM   36  C   UNL     1      25.116  46.928  49.729  1.00  0.00    -0.026 A 
HETATM   37  C   UNL     1      23.822  47.408  49.466  1.00  0.00     0.010 A 
HETATM   38  C   UNL     1      23.630  48.689  48.945  1.00  0.00     0.001 A 
HETATM   39  C   UNL     1      24.724  49.511  48.686  1.00  0.00     0.000 A 
HETATM   40  C   UNL     1      26.012  49.055  48.953  1.00  0.00     0.001 A 
HETATM   41  C   UNL     1      26.208  47.777  49.477  1.00  0.00     0.010 A 
ENDBRANCH  26  36
ENDBRANCH  23  26
ENDBRANCH  19  22
BRANCH   1  42
HETATM   42  C   UNL     1      29.455  38.195  49.383  1.00  0.00     0.035 C 
HETATM   43  C   UNL     1      29.710  38.203  50.880  1.00  0.00     0.010 C 
ENDBRANCH   1  42
TORSDOF 7
ENDMDL
MODEL 10
REMARK VINA RESULT:      -8.3      4.573      9.428
REMARK  7 active torsions:
REMARK  status: ('A' for Active; 'I' for Inactive)
REMARK    1  A    between atoms: C_2  and  C_3 
REMARK    2  A    between atoms: N_21  and  N_23 
REMARK       I    between atoms: N_23  and  C_24 
REMARK    3  A    between atoms: C_24  and  C_25 
REMARK    4  A    between atoms: C_25  and  N_26 
REMARK    5  A    between atoms: C_25  and  C_34 
REMARK       I    between atoms: N_26  and  C_27 
REMARK    6  A    between atoms: C_27  and  O_28 
REMARK    7  A    between atoms: O_28  and  C_29 
ROOT
HETATM    1  C   UNL     1      24.736  46.474  50.679  1.00  0.00    -0.041 C 
HETATM    2  C   UNL     1      24.074  47.263  49.627  1.00  0.00     0.005 C 
HETATM    3  C   UNL     1      23.225  46.595  48.740  1.00  0.00     0.091 C 
HETATM    4  C   UNL     1      22.209  47.274  48.075  1.00  0.00     0.075 C 
HETATM    5  C   UNL     1      22.108  48.653  48.251  1.00  0.00     0.079 C 
HETATM    6  C   UNL     1      23.144  49.368  48.859  1.00  0.00    -0.024 C 
HETATM    7  C   UNL     1      23.144  50.874  48.864  1.00  0.00     0.044 C 
HETATM    8  C   UNL     1      21.860  51.439  48.261  1.00  0.00     0.043 C 
HETATM    9  C   UNL     1      20.672  50.512  48.571  1.00  0.00     0.068 C 
HETATM   10  C   UNL     1      20.453  50.348  50.105  1.00  0.00     0.038 C 
HETATM   11  C   UNL     1      19.228  49.505  50.441  1.00  0.00     0.003 C 
HETATM   12  C   UNL     1      17.975  50.108  49.829  1.00  0.00     0.000 C 
HETATM   13  C   UNL     1      18.129  50.289  48.322  1.00  0.00     0.003 C 
HETATM   14  C   UNL     1      19.379  51.098  47.960  1.00  0.00     0.038 C 
HETATM   15  O   UNL     1      20.921  49.245  47.903  1.00  0.00    -0.340 OA
HETATM   16  C   UNL     1      24.112  48.661  49.579  1.00  0.00     0.024 C 
HETATM   17  O   UNL     1      23.348  45.205  48.526  1.00  0.00    -0.292 OA
HETATM   18  C   UNL     1      24.123  44.496  49.409  1.00  0.00     0.163 C 
HETATM   19  N   UNL     1      24.279  43.254  49.138  1.00  0.00    -0.277 N 
HETATM   20  H   UNL     1      24.706  42.647  49.859  1.00  0.00     0.189 HD
HETATM   21  C   UNL     1      24.693  45.137  50.590  1.00  0.00     0.065 C 
ENDROOT
BRANCH  19  22
HETATM   22  N   UNL     1      24.096  42.667  47.872  1.00  0.00    -0.266 N 
HETATM   23  C   UNL     1      23.200  41.608  47.884  1.00  0.00     0.263 C 
HETATM   24  O   UNL     1      22.309  41.580  48.742  1.00  0.00    -0.269 OA
HETATM   25  H   UNL     1      24.863  42.750  47.210  1.00  0.00     0.190 HD
BRANCH  23  26
HETATM   26  C   UNL     1      23.563  40.410  46.972  1.00  0.00     0.214 C 
BRANCH  26  27
HETATM   27  N   UNL     1      24.485  39.575  47.723  1.00  0.00    -0.319 N 
HETATM   28  C   UNL     1      25.808  39.505  47.420  1.00  0.00     0.362 C 
HETATM   29  O   UNL     1      26.318  40.135  46.503  1.00  0.00    -0.238 OA
HETATM   30  H   UNL     1      24.172  39.059  48.537  1.00  0.00     0.166 HD
BRANCH  28  31
HETATM   31  O   UNL     1      26.430  38.729  48.328  1.00  0.00    -0.294 OA
BRANCH  31  32
HETATM   32  C   UNL     1      26.944  37.415  47.989  1.00  0.00     0.061 C 
HETATM   33  C   UNL     1      28.344  37.501  47.367  1.00  0.00     0.046 C 
HETATM   34  C   UNL     1      27.053  36.674  49.331  1.00  0.00     0.046 C 
HETATM   35  C   UNL     1      25.962  36.668  47.084  1.00  0.00     0.046 C 
ENDBRANCH  31  32
ENDBRANCH  28  31
ENDBRANCH  26  27
BRANCH  26  36
HETATM   36  C   UNL     1      22.368  39.595  46.534  1.00  0.00    -0.026 A 
HETATM   37  C   UNL     1      22.376  38.201  46.702  1.00  0.00     0.010 A 
HETATM   38  C   UNL     1      21.257  37.437  46.369  1.00  0.00     0.001 A 
HETATM   39  C   UNL     1      20.112  38.053  45.870  1.00  0.00     0.000 A 
HETATM   40  C   UNL     1      20.083  39.436  45.710  1.00  0.00     0.001 A 
HETATM   41  C   UNL     1      21.199  40.203  46.045  1.00  0.00     0.010 A 
ENDBRANCH  26  36
ENDBRANCH  23  26
ENDBRANCH  19  22
BRANCH   1  42
HETATM   42  C   UNL     1      25.242  47.151  51.933  1.00  0.00     0.035 C 
HETATM   43  C   UNL     1      26.175  46.268  52.745  1.00  0.00     0.010 C 
ENDBRANCH   1  42
TORSDOF 7
ENDMDL
