MODEL 1
REMARK VINA RESULT:      -9.3      0.000      0.000
REMARK  5 active torsions:
REMARK  status: ('A' for Active; 'I' for Inactive)
REMARK    1  A    between atoms: C_2  and  C_3 
REMARK    2  A    between atoms: C_2  and  C_9 
REMARK    3  A    between atoms: C_9  and  C_10 
REMARK       I    between atoms: C_10  and  N_11 
REMARK    4  A    between atoms: N_11  and  C_12 
REMARK    5  A    between atoms: C_19  and  C_20 
REMARK       I    between atoms: C_20  and  N_21 
ROOT
HETATM    1  C   UNL     1      26.100  47.370  49.951  1.00  0.00     0.035 A 
HETATM    2  C   UNL     1      24.764  47.494  49.544  1.00  0.00     0.046 A 
HETATM    3  C   UNL     1      24.374  48.600  48.757  1.00  0.00     0.030 A 
HETATM    4  C   UNL     1      25.332  49.539  48.400  1.00  0.00     0.063 A 
HETATM    5  N   UNL     1      24.666  50.472  47.654  1.00  0.00    -0.277 N 
HETATM    6  H   UNL     1      25.052  51.305  47.226  1.00  0.00     0.189 HD
HETATM    7  N   UNL     1      23.355  50.228  47.499  1.00  0.00    -0.168 NA
HETATM    8  C   UNL     1      23.157  49.074  48.177  1.00  0.00     0.156 A 
HETATM    9  C   UNL     1      26.671  49.447  48.782  1.00  0.00     0.034 A 
HETATM   10  C   UNL     1      27.032  48.345  49.568  1.00  0.00     0.032 A 
ENDROOT
BRANCH   1  11
HETATM   11  N   UNL     1      26.578  46.322  50.766  1.00  0.00    -0.327 N 
HETATM   12  C   UNL     1      25.840  45.491  51.590  1.00  0.00     0.223 C 
HETATM   13  O   UNL     1      24.618  45.447  51.679  1.00  0.00    -0.273 OA
HETATM   14  H   UNL     1      27.576  46.162  50.737  1.00  0.00     0.169 HD
BRANCH  12  15
HETATM   15  C   UNL     1      26.708  44.589  52.455  1.00  0.00     0.116 C 
BRANCH  15  16
HETATM   16  C   UNL     1      26.677  44.928  53.972  1.00  0.00    -0.012 C 
HETATM   17  C   UNL     1      25.554  44.114  54.661  1.00  0.00     0.020 C 
HETATM   18  C   UNL     1      26.353  46.422  54.213  1.00  0.00     0.020 C 
BRANCH  16  19
HETATM   19  C   UNL     1      28.080  44.625  54.552  1.00  0.00    -0.050 A 
HETATM   20  C   UNL     1      28.693  45.445  55.516  1.00  0.00     0.008 A 
HETATM   21  C   UNL     1      29.962  45.147  56.021  1.00  0.00     0.001 A 
HETATM   22  C   UNL     1      30.647  44.018  55.582  1.00  0.00     0.000 A 
HETATM   23  C   UNL     1      30.060  43.184  54.638  1.00  0.00     0.001 A 
HETATM   24  C   UNL     1      28.792  43.483  54.131  1.00  0.00     0.008 A 
ENDBRANCH  16  19
ENDBRANCH  15  16
ENDBRANCH  12  15
ENDBRANCH   1  11
BRANCH   8  25
HETATM   25  C   UNL     1      21.825  48.460  48.259  1.00  0.00     0.270 C 
HETATM   26  N   UNL     1      21.252  48.532  49.500  1.00  0.00    -0.365 N 
HETATM   27  H   UNL     1      21.768  48.984  50.246  1.00  0.00     0.159 HD
HETATM   28  H   UNL     1      20.341  48.132  49.653  1.00  0.00     0.159 HD
HETATM   29  O   UNL     1      21.246  47.915  47.326  1.00  0.00    -0.266 OA
ENDBRANCH   8  25
TORSDOF 5
ENDMDL
MODEL 2
REMARK VINA RESULT:      -9.2      0.908      1.702
REMARK  5 active torsions:
REMARK  status: ('A' for Active; 'I' for Inactive)
REMARK    1  A    between atoms: C_2  and  C_3 
REMARK    2  A    between atoms: C_2  and  C_9 
REMARK    3  A    between atoms: C_9  and  C_10 
REMARK       I    between atoms: C_10  and  N_11 
REMARK    4  A    between atoms: N_11  and  C_12 
REMARK    5  A    between atoms: C_19  and  C_20 
REMARK       I    between atoms: C_20  and  N_21 
ROOT
HETATM    1  C   UNL     1      25.990  47.389  50.705  1.00  0.00     0.035 A 
HETATM    2  C   UNL     1      24.675  47.589  50.263  1.00  0.00     0.046 A 
HETATM    3  C   UNL     1      24.420  48.518  49.229  1.00  0.00     0.030 A 
HETATM    4  C   UNL     1      25.488  49.208  48.670  1.00  0.00     0.063 A 
HETATM    5  N   UNL     1      24.938  50.017  47.715  1.00  0.00    -0.277 N 
HETATM    6  H   UNL     1      25.423  50.664  47.105  1.00  0.00     0.189 HD
HETATM    7  N   UNL     1      23.604  49.920  47.605  1.00  0.00    -0.168 NA
HETATM    8  C   UNL     1      23.267  48.998  48.536  1.00  0.00     0.156 A 
HETATM    9  C   UNL     1      26.810  49.032  49.082  1.00  0.00     0.034 A 
HETATM   10  C   UNL     1      27.036  48.111  50.112  1.00  0.00     0.032 A 
ENDROOT
BRANCH   1  11
HETATM   11  N   UNL     1      26.340  46.511  51.754  1.00  0.00    -0.327 N 
HETATM   12  C   UNL     1      26.038  45.165  51.863  1.00  0.00     0.223 C 
HETATM   13  O   UNL     1      25.499  44.466  51.012  1.00  0.00    -0.273 OA
HETATM   14  H   UNL     1      26.878  46.918  52.507  1.00  0.00     0.169 HD
BRANCH  12  15
HETATM   15  C   UNL     1      26.425  44.578  53.212  1.00  0.00     0.116 C 
BRANCH  15  16
HETATM   16  C   UNL     1      27.730  43.734  53.196  1.00  0.00    -0.012 C 
HETATM   17  C   UNL     1      28.361  43.785  51.782  1.00  0.00     0.020 C 
HETATM   18  C   UNL     1      27.447  42.244  53.501  1.00  0.00     0.020 C 
BRANCH  16  19
HETATM   19  C   UNL     1      28.668  44.296  54.291  1.00  0.00    -0.050 A 
HETATM   20  C   UNL     1      29.787  43.588  54.765  1.00  0.00     0.008 A 
HETATM   21  C   UNL     1      30.616  44.119  55.757  1.00  0.00     0.001 A 
HETATM   22  C   UNL     1      30.354  45.375  56.294  1.00  0.00     0.000 A 
HETATM   23  C   UNL     1      29.262  46.102  55.836  1.00  0.00     0.001 A 
HETATM   24  C   UNL     1      28.431  45.570  54.846  1.00  0.00     0.008 A 
ENDBRANCH  16  19
ENDBRANCH  15  16
ENDBRANCH  12  15
ENDBRANCH   1  11
BRANCH   8  25
HETATM   25  C   UNL     1      21.867  48.605  48.745  1.00  0.00     0.270 C 
HETATM   26  N   UNL     1      21.226  49.316  49.723  1.00  0.00    -0.365 N 
HETATM   27  H   UNL     1      21.744  50.034  50.217  1.00  0.00     0.159 HD
HETATM   28  H   UNL     1      20.265  49.112  49.940  1.00  0.00     0.159 HD
HETATM   29  O   UNL     1      21.288  47.720  48.125  1.00  0.00    -0.266 OA
ENDBRANCH   8  25
TORSDOF 5
ENDMDL
MODEL 3
REMARK VINA RESULT:      -9.0      1.752      2.762
REMARK  5 active torsions:
REMARK  status: ('A' for Active; 'I' for Inactive)
REMARK    1  A    between atoms: C_2  and  C_3 
REMARK    2  A    between atoms: C_2  and  C_9 
REMARK    3  A    between atoms: C_9  and  C_10 
REMARK       I    between atoms: C_10  and  N_11 
REMARK    4  A    between atoms: N_11  and  C_12 
REMARK    5  A    between atoms: C_19  and  C_20 
REMARK       I    between atoms: C_20  and  N_21 
ROOT
HETATM    1  C   UNL     1      24.840  45.802  50.655  1.00  0.00     0.035 A 
HETATM    2  C   UNL     1      24.524  47.032  50.062  1.00  0.00     0.046 A 
HETATM    3  C   UNL     1      23.505  47.095  49.086  1.00  0.00     0.030 A 
HETATM    4  C   UNL     1      22.832  45.930  48.743  1.00  0.00     0.063 A 
HETATM    5  N   UNL     1      21.921  46.302  47.794  1.00  0.00    -0.277 N 
HETATM    6  H   UNL     1      21.255  45.707  47.316  1.00  0.00     0.189 HD
HETATM    7  N   UNL     1      21.943  47.608  47.483  1.00  0.00    -0.168 NA
HETATM    8  C   UNL     1      22.919  48.113  48.272  1.00  0.00     0.156 A 
HETATM    9  C   UNL     1      23.116  44.689  49.315  1.00  0.00     0.034 A 
HETATM   10  C   UNL     1      24.135  44.650  50.274  1.00  0.00     0.032 A 
ENDROOT
BRANCH   1  11
HETATM   11  N   UNL     1      25.865  45.630  51.610  1.00  0.00    -0.327 N 
HETATM   12  C   UNL     1      25.754  45.080  52.875  1.00  0.00     0.223 C 
HETATM   13  O   UNL     1      24.762  44.542  53.354  1.00  0.00    -0.273 OA
HETATM   14  H   UNL     1      26.784  45.944  51.331  1.00  0.00     0.169 HD
BRANCH  12  15
HETATM   15  C   UNL     1      27.028  45.217  53.695  1.00  0.00     0.116 C 
BRANCH  15  16
HETATM   16  C   UNL     1      27.960  43.974  53.650  1.00  0.00    -0.012 C 
HETATM   17  C   UNL     1      28.531  43.807  52.220  1.00  0.00     0.020 C 
HETATM   18  C   UNL     1      27.187  42.673  53.972  1.00  0.00     0.020 C 
BRANCH  16  19
HETATM   19  C   UNL     1      29.063  44.173  54.717  1.00  0.00    -0.050 A 
HETATM   20  C   UNL     1      29.180  45.351  55.475  1.00  0.00     0.008 A 
HETATM   21  C   UNL     1      30.188  45.503  56.432  1.00  0.00     0.001 A 
HETATM   22  C   UNL     1      31.101  44.478  56.660  1.00  0.00     0.000 A 
HETATM   23  C   UNL     1      31.003  43.298  55.933  1.00  0.00     0.001 A 
HETATM   24  C   UNL     1      29.996  43.147  54.975  1.00  0.00     0.008 A 
ENDBRANCH  16  19
ENDBRANCH  15  16
ENDBRANCH  12  15
ENDBRANCH   1  11
BRANCH   8  25
HETATM   25  C   UNL     1      23.270  49.539  48.228  1.00  0.00     0.270 C 
HETATM   26  N   UNL     1      22.882  50.244  49.335  1.00  0.00    -0.365 N 
HETATM   27  H   UNL     1      22.396  49.753  50.076  1.00  0.00     0.159 HD
HETATM   28  H   UNL     1      23.075  51.231  49.392  1.00  0.00     0.159 HD
HETATM   29  O   UNL     1      23.853  50.089  47.300  1.00  0.00    -0.266 OA
ENDBRANCH   8  25
TORSDOF 5
ENDMDL
MODEL 4
REMARK VINA RESULT:      -8.8      5.895      7.927
REMARK  5 active torsions:
REMARK  status: ('A' for Active; 'I' for Inactive)
REMARK    1  A    between atoms: C_2  and  C_3 
REMARK    2  A    between atoms: C_2  and  C_9 
REMARK    3  A    between atoms: C_9  and  C_10 
REMARK       I    between atoms: C_10  and  N_11 
REMARK    4  A    between atoms: N_11  and  C_12 
REMARK    5  A    between atoms: C_19  and  C_20 
REMARK       I    between atoms: C_20  and  N_21 
ROOT
HETATM    1  C   UNL     1      28.969  39.621  51.130  1.00  0.00     0.035 A 
HETATM    2  C   UNL     1      28.306  40.006  49.956  1.00  0.00     0.046 A 
HETATM    3  C   UNL     1      28.416  39.205  48.798  1.00  0.00     0.030 A 
HETATM    4  C   UNL     1      29.177  38.045  48.855  1.00  0.00     0.063 A 
HETATM    5  N   UNL     1      29.094  37.495  47.606  1.00  0.00    -0.277 N 
HETATM    6  H   UNL     1      29.529  36.639  47.283  1.00  0.00     0.189 HD
HETATM    7  N   UNL     1      28.351  38.197  46.736  1.00  0.00    -0.168 NA
HETATM    8  C   UNL     1      27.925  39.260  47.457  1.00  0.00     0.156 A 
HETATM    9  C   UNL     1      29.846  37.628  50.006  1.00  0.00     0.034 A 
HETATM   10  C   UNL     1      29.728  38.442  51.139  1.00  0.00     0.032 A 
ENDROOT
BRANCH   1  11
HETATM   11  N   UNL     1      28.949  40.371  52.325  1.00  0.00    -0.327 N 
HETATM   12  C   UNL     1      28.015  41.315  52.713  1.00  0.00     0.223 C 
HETATM   13  O   UNL     1      26.972  41.593  52.130  1.00  0.00    -0.273 OA
HETATM   14  H   UNL     1      29.705  40.190  52.971  1.00  0.00     0.169 HD
BRANCH  12  15
HETATM   15  C   UNL     1      28.407  42.051  53.985  1.00  0.00     0.116 C 
BRANCH  15  16
HETATM   16  C   UNL     1      29.056  43.443  53.749  1.00  0.00    -0.012 C 
HETATM   17  C   UNL     1      27.968  44.452  53.304  1.00  0.00     0.020 C 
HETATM   18  C   UNL     1      30.105  43.396  52.613  1.00  0.00     0.020 C 
BRANCH  16  19
HETATM   19  C   UNL     1      29.763  43.864  55.060  1.00  0.00    -0.050 A 
HETATM   20  C   UNL     1      29.469  45.067  55.726  1.00  0.00     0.008 A 
HETATM   21  C   UNL     1      30.125  45.421  56.909  1.00  0.00     0.001 A 
HETATM   22  C   UNL     1      31.085  44.579  57.460  1.00  0.00     0.000 A 
HETATM   23  C   UNL     1      31.387  43.378  56.829  1.00  0.00     0.001 A 
HETATM   24  C   UNL     1      30.733  43.024  55.645  1.00  0.00     0.008 A 
ENDBRANCH  16  19
ENDBRANCH  15  16
ENDBRANCH  12  15
ENDBRANCH   1  11
BRANCH   8  25
HETATM   25  C   UNL     1      27.073  40.295  46.856  1.00  0.00     0.270 C 
HETATM   26  N   UNL     1      27.767  41.319  46.271  1.00  0.00    -0.365 N 
HETATM   27  H   UNL     1      28.780  41.295  46.296  1.00  0.00     0.159 HD
HETATM   28  H   UNL     1      27.267  42.078  45.837  1.00  0.00     0.159 HD
HETATM   29  O   UNL     1      25.847  40.283  46.860  1.00  0.00    -0.266 OA
ENDBRANCH   8  25
TORSDOF 5
ENDMDL
MODEL 5
REMARK VINA RESULT:      -8.7      4.949      7.829
REMARK  5 active torsions:
REMARK  status: ('A' for Active; 'I' for Inactive)
REMARK    1  A    between atoms: C_2  and  C_3 
REMARK    2  A    between atoms: C_2  and  C_9 
REMARK    3  A    between atoms: C_9  and  C_10 
REMARK       I    between atoms: C_10  and  N_11 
REMARK    4  A    between atoms: N_11  and  C_12 
REMARK    5  A    between atoms: C_19  and  C_20 
REMARK       I    between atoms: C_20  and  N_21 
ROOT
HETATM    1  C   UNL     1      27.332  41.671  50.952  1.00  0.00     0.035 A 
HETATM    2  C   UNL     1      28.261  40.630  50.821  1.00  0.00     0.046 A 
HETATM    3  C   UNL     1      27.923  39.483  50.068  1.00  0.00     0.030 A 
HETATM    4  C   UNL     1      26.672  39.420  49.469  1.00  0.00     0.063 A 
HETATM    5  N   UNL     1      26.639  38.215  48.823  1.00  0.00    -0.277 N 
HETATM    6  H   UNL     1      25.876  37.832  48.278  1.00  0.00     0.189 HD
HETATM    7  N   UNL     1      27.756  37.483  48.954  1.00  0.00    -0.168 NA
HETATM    8  C   UNL     1      28.561  38.252  49.723  1.00  0.00     0.156 A 
HETATM    9  C   UNL     1      25.724  40.438  49.574  1.00  0.00     0.034 A 
HETATM   10  C   UNL     1      26.079  41.561  50.331  1.00  0.00     0.032 A 
ENDROOT
BRANCH   1  11
HETATM   11  N   UNL     1      27.562  42.838  51.711  1.00  0.00    -0.327 N 
HETATM   12  C   UNL     1      26.666  43.856  51.986  1.00  0.00     0.223 C 
HETATM   13  O   UNL     1      25.473  43.874  51.705  1.00  0.00    -0.273 OA
HETATM   14  H   UNL     1      28.491  42.934  52.100  1.00  0.00     0.169 HD
BRANCH  12  15
HETATM   15  C   UNL     1      27.312  45.043  52.686  1.00  0.00     0.116 C 
BRANCH  15  16
HETATM   16  C   UNL     1      27.133  45.054  54.230  1.00  0.00    -0.012 C 
HETATM   17  C   UNL     1      26.082  43.992  54.636  1.00  0.00     0.020 C 
HETATM   18  C   UNL     1      26.600  46.417  54.730  1.00  0.00     0.020 C 
BRANCH  16  19
HETATM   19  C   UNL     1      28.520  44.799  54.867  1.00  0.00    -0.050 A 
HETATM   20  C   UNL     1      29.138  45.722  55.729  1.00  0.00     0.008 A 
HETATM   21  C   UNL     1      30.393  45.465  56.290  1.00  0.00     0.001 A 
HETATM   22  C   UNL     1      31.058  44.276  56.009  1.00  0.00     0.000 A 
HETATM   23  C   UNL     1      30.466  43.340  55.169  1.00  0.00     0.001 A 
HETATM   24  C   UNL     1      29.212  43.598  54.607  1.00  0.00     0.008 A 
ENDBRANCH  16  19
ENDBRANCH  15  16
ENDBRANCH  12  15
ENDBRANCH   1  11
BRANCH   8  25
HETATM   25  C   UNL     1      29.903  37.798  50.111  1.00  0.00     0.270 C 
HETATM   26  N   UNL     1      30.919  38.414  49.432  1.00  0.00    -0.365 N 
HETATM   27  H   UNL     1      30.683  39.110  48.734  1.00  0.00     0.159 HD
HETATM   28  H   UNL     1      31.874  38.162  49.626  1.00  0.00     0.159 HD
HETATM   29  O   UNL     1      30.136  36.942  50.958  1.00  0.00    -0.266 OA
ENDBRANCH   8  25
TORSDOF 5
ENDMDL
MODEL 6
REMARK VINA RESULT:      -8.7      5.327      7.440
REMARK  5 active torsions:
REMARK  status: ('A' for Active; 'I' for Inactive)
REMARK    1  A    between atoms: C_2  and  C_3 
REMARK    2  A    between atoms: C_2  and  C_9 
REMARK    3  A    between atoms: C_9  and  C_10 
REMARK       I    between atoms: C_10  and  N_11 
REMARK    4  A    between atoms: N_11  and  C_12 
REMARK    5  A    between atoms: C_19  and  C_20 
REMARK       I    between atoms: C_20  and  N_21 
ROOT
HETATM    1  C   UNL     1      26.421  41.707  50.870  1.00  0.00     0.035 A 
HETATM    2  C   UNL     1      27.063  40.538  50.437  1.00  0.00     0.046 A 
HETATM    3  C   UNL     1      26.523  39.805  49.357  1.00  0.00     0.030 A 
HETATM    4  C   UNL     1      25.366  40.268  48.745  1.00  0.00     0.063 A 
HETATM    5  N   UNL     1      25.093  39.366  47.754  1.00  0.00    -0.277 N 
HETATM    6  H   UNL     1      24.318  39.386  47.102  1.00  0.00     0.189 HD
HETATM    7  N   UNL     1      25.967  38.350  47.670  1.00  0.00    -0.168 NA
HETATM    8  C   UNL     1      26.858  38.606  48.656  1.00  0.00     0.156 A 
HETATM    9  C   UNL     1      24.702  41.427  49.146  1.00  0.00     0.034 A 
HETATM   10  C   UNL     1      25.252  42.134  50.223  1.00  0.00     0.032 A 
ENDROOT
BRANCH   1  11
HETATM   11  N   UNL     1      26.862  42.487  51.961  1.00  0.00    -0.327 N 
HETATM   12  C   UNL     1      27.550  43.686  51.915  1.00  0.00     0.223 C 
HETATM   13  O   UNL     1      27.809  44.342  50.912  1.00  0.00    -0.273 OA
HETATM   14  H   UNL     1      26.642  42.124  52.878  1.00  0.00     0.169 HD
BRANCH  12  15
HETATM   15  C   UNL     1      28.017  44.155  53.285  1.00  0.00     0.116 C 
BRANCH  15  16
HETATM   16  C   UNL     1      29.150  43.292  53.908  1.00  0.00    -0.012 C 
HETATM   17  C   UNL     1      30.264  43.062  52.857  1.00  0.00     0.020 C 
HETATM   18  C   UNL     1      28.636  41.892  54.321  1.00  0.00     0.020 C 
BRANCH  16  19
HETATM   19  C   UNL     1      29.661  44.026  55.172  1.00  0.00    -0.050 A 
HETATM   20  C   UNL     1      29.088  45.223  55.635  1.00  0.00     0.008 A 
HETATM   21  C   UNL     1      29.572  45.865  56.779  1.00  0.00     0.001 A 
HETATM   22  C   UNL     1      30.635  45.322  57.493  1.00  0.00     0.000 A 
HETATM   23  C   UNL     1      31.214  44.133  57.065  1.00  0.00     0.001 A 
HETATM   24  C   UNL     1      30.732  43.493  55.920  1.00  0.00     0.008 A 
ENDBRANCH  16  19
ENDBRANCH  15  16
ENDBRANCH  12  15
ENDBRANCH   1  11
BRANCH   8  25
HETATM   25  C   UNL     1      27.993  37.707  48.907  1.00  0.00     0.270 C 
HETATM   26  N   UNL     1      27.849  36.923  50.019  1.00  0.00    -0.365 N 
HETATM   27  H   UNL     1      27.005  37.017  50.572  1.00  0.00     0.159 HD
HETATM   28  H   UNL     1      28.580  36.280  50.275  1.00  0.00     0.159 HD
HETATM   29  O   UNL     1      29.000  37.639  48.211  1.00  0.00    -0.266 OA
ENDBRANCH   8  25
TORSDOF 5
ENDMDL
MODEL 7
REMARK VINA RESULT:      -8.5      3.834      9.545
REMARK  5 active torsions:
REMARK  status: ('A' for Active; 'I' for Inactive)
REMARK    1  A    between atoms: C_2  and  C_3 
REMARK    2  A    between atoms: C_2  and  C_9 
REMARK    3  A    between atoms: C_9  and  C_10 
REMARK       I    between atoms: C_10  and  N_11 
REMARK    4  A    between atoms: N_11  and  C_12 
REMARK    5  A    between atoms: C_19  and  C_20 
REMARK       I    between atoms: C_20  and  N_21 
ROOT
HETATM    1  C   UNL     1      22.245  49.371  49.139  1.00  0.00     0.035 A 
HETATM    2  C   UNL     1      23.306  48.596  49.628  1.00  0.00     0.046 A 
HETATM    3  C   UNL     1      24.617  48.834  49.161  1.00  0.00     0.030 A 
HETATM    4  C   UNL     1      24.824  49.842  48.228  1.00  0.00     0.063 A 
HETATM    5  N   UNL     1      26.167  49.834  47.975  1.00  0.00    -0.277 N 
HETATM    6  H   UNL     1      26.676  50.437  47.341  1.00  0.00     0.189 HD
HETATM    7  N   UNL     1      26.856  48.904  48.656  1.00  0.00    -0.168 NA
HETATM    8  C   UNL     1      25.911  48.276  49.393  1.00  0.00     0.156 A 
HETATM    9  C   UNL     1      23.794  50.636  47.722  1.00  0.00     0.034 A 
HETATM   10  C   UNL     1      22.501  50.376  48.195  1.00  0.00     0.032 A 
ENDROOT
BRANCH   1  11
HETATM   11  N   UNL     1      20.898  49.186  49.516  1.00  0.00    -0.327 N 
HETATM   12  C   UNL     1      20.065  48.133  49.179  1.00  0.00     0.223 C 
HETATM   13  O   UNL     1      20.382  47.115  48.575  1.00  0.00    -0.273 OA
HETATM   14  H   UNL     1      20.502  49.906  50.105  1.00  0.00     0.169 HD
BRANCH  12  15
HETATM   15  C   UNL     1      18.624  48.352  49.618  1.00  0.00     0.116 C 
BRANCH  15  16
HETATM   16  C   UNL     1      17.686  48.887  48.500  1.00  0.00    -0.012 C 
HETATM   17  C   UNL     1      16.497  47.912  48.312  1.00  0.00     0.020 C 
HETATM   18  C   UNL     1      18.413  48.966  47.137  1.00  0.00     0.020 C 
BRANCH  16  19
HETATM   19  C   UNL     1      17.234  50.311  48.905  1.00  0.00    -0.050 A 
HETATM   20  C   UNL     1      18.087  51.218  49.557  1.00  0.00     0.008 A 
HETATM   21  C   UNL     1      17.651  52.499  49.913  1.00  0.00     0.001 A 
HETATM   22  C   UNL     1      16.355  52.907  49.617  1.00  0.00     0.000 A 
HETATM   23  C   UNL     1      15.493  52.034  48.963  1.00  0.00     0.001 A 
HETATM   24  C   UNL     1      15.928  50.754  48.610  1.00  0.00     0.008 A 
ENDBRANCH  16  19
ENDBRANCH  15  16
ENDBRANCH  12  15
ENDBRANCH   1  11
BRANCH   8  25
HETATM   25  C   UNL     1      26.261  47.165  50.290  1.00  0.00     0.270 C 
HETATM   26  N   UNL     1      26.600  46.009  49.641  1.00  0.00    -0.365 N 
HETATM   27  H   UNL     1      26.584  46.000  48.627  1.00  0.00     0.159 HD
HETATM   28  H   UNL     1      26.849  45.192  50.174  1.00  0.00     0.159 HD
HETATM   29  O   UNL     1      26.256  47.225  51.514  1.00  0.00    -0.266 OA
ENDBRANCH   8  25
TORSDOF 5
ENDMDL
MODEL 8
REMARK VINA RESULT:      -8.4      1.411      2.055
REMARK  5 active torsions:
REMARK  status: ('A' for Active; 'I' for Inactive)
REMARK    1  A    between atoms: C_2  and  C_3 
REMARK    2  A    between atoms: C_2  and  C_9 
REMARK    3  A    between atoms: C_9  and  C_10 
REMARK       I    between atoms: C_10  and  N_11 
REMARK    4  A    between atoms: N_11  and  C_12 
REMARK    5  A    between atoms: C_19  and  C_20 
REMARK       I    between atoms: C_20  and  N_21 
ROOT
HETATM    1  C   UNL     1      25.288  47.945  49.490  1.00  0.00     0.035 A 
HETATM    2  C   UNL     1      23.892  47.820  49.481  1.00  0.00     0.046 A 
HETATM    3  C   UNL     1      23.108  48.788  48.814  1.00  0.00     0.030 A 
HETATM    4  C   UNL     1      23.747  49.842  48.173  1.00  0.00     0.063 A 
HETATM    5  N   UNL     1      22.746  50.597  47.629  1.00  0.00    -0.277 N 
HETATM    6  H   UNL     1      22.843  51.448  47.088  1.00  0.00     0.189 HD
HETATM    7  N   UNL     1      21.508  50.132  47.864  1.00  0.00    -0.168 NA
HETATM    8  C   UNL     1      21.714  49.014  48.597  1.00  0.00     0.156 A 
HETATM    9  C   UNL     1      25.133  49.996  48.157  1.00  0.00     0.034 A 
HETATM   10  C   UNL     1      25.888  49.028  48.831  1.00  0.00     0.032 A 
ENDROOT
BRANCH   1  11
HETATM   11  N   UNL     1      26.152  47.051  50.157  1.00  0.00    -0.327 N 
HETATM   12  C   UNL     1      26.240  45.681  49.990  1.00  0.00     0.223 C 
HETATM   13  O   UNL     1      25.653  45.008  49.150  1.00  0.00    -0.273 OA
HETATM   14  H   UNL     1      26.780  47.467  50.832  1.00  0.00     0.169 HD
BRANCH  12  15
HETATM   15  C   UNL     1      27.160  45.017  51.004  1.00  0.00     0.116 C 
BRANCH  15  16
HETATM   16  C   UNL     1      26.455  44.565  52.313  1.00  0.00    -0.012 C 
HETATM   17  C   UNL     1      26.567  43.027  52.457  1.00  0.00     0.020 C 
HETATM   18  C   UNL     1      24.944  44.898  52.289  1.00  0.00     0.020 C 
BRANCH  16  19
HETATM   19  C   UNL     1      27.112  45.326  53.490  1.00  0.00    -0.050 A 
HETATM   20  C   UNL     1      26.750  46.640  53.838  1.00  0.00     0.008 A 
HETATM   21  C   UNL     1      27.362  47.303  54.905  1.00  0.00     0.001 A 
HETATM   22  C   UNL     1      28.345  46.668  55.657  1.00  0.00     0.000 A 
HETATM   23  C   UNL     1      28.715  45.366  55.343  1.00  0.00     0.001 A 
HETATM   24  C   UNL     1      28.105  44.703  54.274  1.00  0.00     0.008 A 
ENDBRANCH  16  19
ENDBRANCH  15  16
ENDBRANCH  12  15
ENDBRANCH   1  11
BRANCH   8  25
HETATM   25  C   UNL     1      20.589  48.199  49.073  1.00  0.00     0.270 C 
HETATM   26  N   UNL     1      19.922  48.736  50.141  1.00  0.00    -0.365 N 
HETATM   27  H   UNL     1      20.242  49.622  50.516  1.00  0.00     0.159 HD
HETATM   28  H   UNL     1      19.139  48.244  50.540  1.00  0.00     0.159 HD
HETATM   29  O   UNL     1      20.247  47.125  48.589  1.00  0.00    -0.266 OA
ENDBRANCH   8  25
TORSDOF 5
ENDMDL
MODEL 9
REMARK VINA RESULT:      -8.2      4.305      7.963
REMARK  5 active torsions:
REMARK  status: ('A' for Active; 'I' for Inactive)
REMARK    1  A    between atoms: C_2  and  C_3 
REMARK    2  A    between atoms: C_2  and  C_9 
REMARK    3  A    between atoms: C_9  and  C_10 
REMARK       I    between atoms: C_10  and  N_11 
REMARK    4  A    between atoms: N_11  and  C_12 
REMARK    5  A    between atoms: C_19  and  C_20 
REMARK       I    between atoms: C_20  and  N_21 
ROOT
HETATM    1  C   UNL     1      28.634  43.544  52.667  1.00  0.00     0.035 A 
HETATM    2  C   UNL     1      28.454  44.437  53.732  1.00  0.00     0.046 A 
HETATM    3  C   UNL     1      29.346  44.407  54.827  1.00  0.00     0.030 A 
HETATM    4  C   UNL     1      30.390  43.491  54.815  1.00  0.00     0.063 A 
HETATM    5  N   UNL     1      31.068  43.698  55.984  1.00  0.00    -0.277 N 
HETATM    6  H   UNL     1      31.890  43.206  56.312  1.00  0.00     0.189 HD
HETATM    7  N   UNL     1      30.555  44.665  56.762  1.00  0.00    -0.168 NA
HETATM    8  C   UNL     1      29.487  45.112  56.061  1.00  0.00     0.156 A 
HETATM    9  C   UNL     1      30.603  42.590  53.771  1.00  0.00     0.034 A 
HETATM   10  C   UNL     1      29.701  42.635  52.700  1.00  0.00     0.032 A 
ENDROOT
BRANCH   1  11
HETATM   11  N   UNL     1      27.776  43.474  51.548  1.00  0.00    -0.327 N 
HETATM   12  C   UNL     1      27.052  42.379  51.108  1.00  0.00     0.223 C 
HETATM   13  O   UNL     1      26.943  41.299  51.677  1.00  0.00    -0.273 OA
HETATM   14  H   UNL     1      27.681  44.326  51.012  1.00  0.00     0.169 HD
BRANCH  12  15
HETATM   15  C   UNL     1      26.374  42.617  49.767  1.00  0.00     0.116 C 
BRANCH  15  16
HETATM   16  C   UNL     1      25.058  43.441  49.849  1.00  0.00    -0.012 C 
HETATM   17  C   UNL     1      24.079  42.756  50.835  1.00  0.00     0.020 C 
HETATM   18  C   UNL     1      24.339  43.501  48.481  1.00  0.00     0.020 C 
BRANCH  16  19
HETATM   19  C   UNL     1      25.430  44.881  50.278  1.00  0.00    -0.050 A 
HETATM   20  C   UNL     1      26.252  45.714  49.498  1.00  0.00     0.008 A 
HETATM   21  C   UNL     1      26.572  47.011  49.911  1.00  0.00     0.001 A 
HETATM   22  C   UNL     1      26.074  47.511  51.109  1.00  0.00     0.000 A 
HETATM   23  C   UNL     1      25.250  46.713  51.895  1.00  0.00     0.001 A 
HETATM   24  C   UNL     1      24.931  45.416  51.484  1.00  0.00     0.008 A 
ENDBRANCH  16  19
ENDBRANCH  15  16
ENDBRANCH  12  15
ENDBRANCH   1  11
BRANCH   8  25
HETATM   25  C   UNL     1      28.634  46.189  56.582  1.00  0.00     0.270 C 
HETATM   26  N   UNL     1      28.596  46.261  57.948  1.00  0.00    -0.365 N 
HETATM   27  H   UNL     1      29.136  45.590  58.483  1.00  0.00     0.159 HD
HETATM   28  H   UNL     1      28.032  46.964  58.396  1.00  0.00     0.159 HD
HETATM   29  O   UNL     1      27.991  46.970  55.890  1.00  0.00    -0.266 OA
ENDBRANCH   8  25
TORSDOF 5
ENDMDL
MODEL 10
REMARK VINA RESULT:      -8.0     11.159     14.108
REMARK  5 active torsions:
REMARK  status: ('A' for Active; 'I' for Inactive)
REMARK    1  A    between atoms: C_2  and  C_3 
REMARK    2  A    between atoms: C_2  and  C_9 
REMARK    3  A    between atoms: C_9  and  C_10 
REMARK       I    between atoms: C_10  and  N_11 
REMARK    4  A    between atoms: N_11  and  C_12 
REMARK    5  A    between atoms: C_19  and  C_20 
REMARK       I    between atoms: C_20  and  N_21 
ROOT
HETATM    1  C   UNL     1      32.241  50.573  42.746  1.00  0.00     0.035 A 
HETATM    2  C   UNL     1      33.191  50.618  41.716  1.00  0.00     0.046 A 
HETATM    3  C   UNL     1      34.408  51.305  41.918  1.00  0.00     0.030 A 
HETATM    4  C   UNL     1      34.637  51.917  43.143  1.00  0.00     0.063 A 
HETATM    5  N   UNL     1      35.874  52.489  43.039  1.00  0.00    -0.277 N 
HETATM    6  H   UNL     1      36.366  53.021  43.746  1.00  0.00     0.189 HD
HETATM    7  N   UNL     1      36.471  52.310  41.850  1.00  0.00    -0.168 NA
HETATM    8  C   UNL     1      35.577  51.581  41.144  1.00  0.00     0.156 A 
HETATM    9  C   UNL     1      33.717  51.890  44.192  1.00  0.00     0.034 A 
HETATM   10  C   UNL     1      32.515  51.208  43.966  1.00  0.00     0.032 A 
ENDROOT
BRANCH   1  11
HETATM   11  N   UNL     1      30.984  49.943  42.628  1.00  0.00    -0.327 N 
HETATM   12  C   UNL     1      30.691  48.763  41.968  1.00  0.00     0.223 C 
HETATM   13  O   UNL     1      31.495  47.994  41.454  1.00  0.00    -0.273 OA
HETATM   14  H   UNL     1      30.212  50.411  43.084  1.00  0.00     0.169 HD
BRANCH  12  15
HETATM   15  C   UNL     1      29.198  48.477  41.897  1.00  0.00     0.116 C 
BRANCH  15  16
HETATM   16  C   UNL     1      28.516  48.939  40.579  1.00  0.00    -0.012 C 
HETATM   17  C   UNL     1      27.022  48.532  40.599  1.00  0.00     0.020 C 
HETATM   18  C   UNL     1      29.145  48.253  39.343  1.00  0.00     0.020 C 
BRANCH  16  19
HETATM   19  C   UNL     1      28.719  50.468  40.454  1.00  0.00    -0.050 A 
HETATM   20  C   UNL     1      29.564  51.043  39.488  1.00  0.00     0.008 A 
HETATM   21  C   UNL     1      29.729  52.429  39.399  1.00  0.00     0.001 A 
HETATM   22  C   UNL     1      29.047  53.275  40.267  1.00  0.00     0.000 A 
HETATM   23  C   UNL     1      28.196  52.735  41.225  1.00  0.00     0.001 A 
HETATM   24  C   UNL     1      28.033  51.350  41.315  1.00  0.00     0.008 A 
ENDBRANCH  16  19
ENDBRANCH  15  16
ENDBRANCH  12  15
ENDBRANCH   1  11
BRANCH   8  25
HETATM   25  C   UNL     1      35.853  51.172  39.760  1.00  0.00     0.270 C 
HETATM   26  N   UNL     1      36.386  49.917  39.644  1.00  0.00    -0.365 N 
HETATM   27  H   UNL     1      36.551  49.381  40.488  1.00  0.00     0.159 HD
HETATM   28  H   UNL     1      36.615  49.553  38.733  1.00  0.00     0.159 HD
HETATM   29  O   UNL     1      35.644  51.864  38.769  1.00  0.00    -0.266 OA
ENDBRANCH   8  25
TORSDOF 5
ENDMDL
