MODEL 1
REMARK VINA RESULT:      -8.6      0.000      0.000
REMARK  9 active torsions:
REMARK  status: ('A' for Active; 'I' for Inactive)
REMARK    1  A    between atoms: O_2  and  C_3 
REMARK    2  A    between atoms: C_9  and  C_13 
REMARK       I    between atoms: C_13  and  N_15 
REMARK    3  A    between atoms: N_15  and  C_16 
REMARK    4  A    between atoms: C_19  and  C_27 
REMARK    5  A    between atoms: C_21  and  O_22 
REMARK    6  A    between atoms: O_22  and  C_23 
REMARK    7  A    between atoms: C_23  and  C_24 
REMARK    8  A    between atoms: C_24  and  C_25 
REMARK    9  A    between atoms: C_25  and  O_26 
ROOT
HETATM    1  C   UNL     1      24.125  46.236  49.530  1.00  0.00     0.068 A 
HETATM    2  C   UNL     1      23.119  45.350  49.140  1.00  0.00     0.033 A 
HETATM    3  C   UNL     1      22.005  45.808  48.429  1.00  0.00     0.015 A 
HETATM    4  C   UNL     1      21.877  47.159  48.093  1.00  0.00    -0.020 A 
HETATM    5  C   UNL     1      22.881  48.053  48.493  1.00  0.00     0.051 A 
HETATM    6  C   UNL     1      24.000  47.604  49.210  1.00  0.00     0.096 A 
ENDROOT
BRANCH   1   7
HETATM    7  N   UNL     1      25.290  45.835  50.228  1.00  0.00    -0.324 N 
HETATM    8  C   UNL     1      25.367  45.183  51.444  1.00  0.00     0.228 C 
HETATM    9  O   UNL     1      24.417  44.883  52.160  1.00  0.00    -0.273 OA
HETATM   10  H   UNL     1      26.149  46.028  49.723  1.00  0.00     0.169 HD
BRANCH   8  11
HETATM   11  C   UNL     1      26.794  44.850  51.850  1.00  0.00     0.107 C 
HETATM   12  C   UNL     1      27.089  43.376  51.595  1.00  0.00     0.190 C 
HETATM   13  O   UNL     1      28.463  43.065  51.843  1.00  0.00    -0.350 OA
HETATM   14  C   UNL     1      28.917  43.484  53.064  1.00  0.00     0.075 A 
HETATM   15  C   UNL     1      30.086  42.883  53.522  1.00  0.00     0.040 A 
HETATM   16  C   UNL     1      28.290  44.483  53.820  1.00  0.00    -0.021 A 
HETATM   17  C   UNL     1      30.624  43.256  54.753  1.00  0.00     0.039 A 
HETATM   18  C   UNL     1      30.009  44.241  55.527  1.00  0.00     0.068 A 
HETATM   19  C   UNL     1      28.839  44.848  55.062  1.00  0.00     0.046 A 
HETATM   20  C   UNL     1      27.028  45.140  53.331  1.00  0.00     0.058 C 
BRANCH  18  21
HETATM   21  O   UNL     1      30.642  44.513  56.709  1.00  0.00    -0.356 OA
HETATM   22  C   UNL     1      31.704  43.646  57.085  1.00  0.00     0.210 C 
ENDBRANCH  18  21
ENDBRANCH   8  11
ENDBRANCH   1   7
BRANCH   6  23
HETATM   23  O   UNL     1      25.027  48.413  49.647  1.00  0.00    -0.349 OA
BRANCH  23  24
HETATM   24  C   UNL     1      25.258  49.619  48.916  1.00  0.00     0.178 C 
BRANCH  24  25
HETATM   25  C   UNL     1      26.672  49.595  48.348  1.00  0.00     0.053 C 
BRANCH  25  26
HETATM   26  C   UNL     1      27.637  48.847  49.257  1.00  0.00     0.166 C 
BRANCH  26  27
HETATM   27  O   UNL     1      27.672  47.472  48.892  1.00  0.00    -0.401 OA
HETATM   28  H   UNL     1      28.380  47.046  49.404  1.00  0.00     0.209 HD
ENDBRANCH  26  27
ENDBRANCH  25  26
ENDBRANCH  24  25
ENDBRANCH  23  24
ENDBRANCH   6  23
BRANCH   4  29
HETATM   29  C   UNL     1      20.713  47.612  47.350  1.00  0.00     0.010 A 
HETATM   30  C   UNL     1      20.021  48.847  47.378  1.00  0.00     0.152 A 
HETATM   31  N   UNL     1      18.972  48.872  46.553  1.00  0.00    -0.187 NA
HETATM   32  N   UNL     1      18.979  47.651  45.999  1.00  0.00    -0.289 N 
HETATM   33  H   UNL     1      18.251  47.423  45.329  1.00  0.00     0.188 HD
HETATM   34  C   UNL     1      20.001  46.859  46.440  1.00  0.00     0.123 A 
ENDBRANCH   4  29
TORSDOF 9
ENDMDL
MODEL 2
REMARK VINA RESULT:      -8.2      4.299     10.029
REMARK  9 active torsions:
REMARK  status: ('A' for Active; 'I' for Inactive)
REMARK    1  A    between atoms: O_2  and  C_3 
REMARK    2  A    between atoms: C_9  and  C_13 
REMARK       I    between atoms: C_13  and  N_15 
REMARK    3  A    between atoms: N_15  and  C_16 
REMARK    4  A    between atoms: C_19  and  C_27 
REMARK    5  A    between atoms: C_21  and  O_22 
REMARK    6  A    between atoms: O_22  and  C_23 
REMARK    7  A    between atoms: C_23  and  C_24 
REMARK    8  A    between atoms: C_24  and  C_25 
REMARK    9  A    between atoms: C_25  and  O_26 
ROOT
HETATM    1  C   UNL     1      28.376  43.701  52.617  1.00  0.00     0.068 A 
HETATM    2  C   UNL     1      29.564  42.996  52.816  1.00  0.00     0.033 A 
HETATM    3  C   UNL     1      30.290  43.147  54.002  1.00  0.00     0.015 A 
HETATM    4  C   UNL     1      29.841  44.003  55.011  1.00  0.00    -0.020 A 
HETATM    5  C   UNL     1      28.653  44.720  54.809  1.00  0.00     0.051 A 
HETATM    6  C   UNL     1      27.920  44.578  53.623  1.00  0.00     0.096 A 
ENDROOT
BRANCH   1   7
HETATM    7  N   UNL     1      27.579  43.575  51.453  1.00  0.00    -0.324 N 
HETATM    8  C   UNL     1      26.911  42.453  51.001  1.00  0.00     0.228 C 
HETATM    9  O   UNL     1      26.940  41.341  51.520  1.00  0.00    -0.273 OA
HETATM   10  H   UNL     1      27.475  44.444  50.939  1.00  0.00     0.169 HD
BRANCH   8  11
HETATM   11  C   UNL     1      26.095  42.713  49.745  1.00  0.00     0.107 C 
HETATM   12  C   UNL     1      25.475  44.105  49.792  1.00  0.00     0.190 C 
HETATM   13  O   UNL     1      24.812  44.427  48.566  1.00  0.00    -0.350 OA
HETATM   14  C   UNL     1      23.924  43.473  48.147  1.00  0.00     0.075 A 
HETATM   15  C   UNL     1      22.981  43.886  47.210  1.00  0.00     0.040 A 
HETATM   16  C   UNL     1      23.954  42.144  48.584  1.00  0.00    -0.021 A 
HETATM   17  C   UNL     1      22.042  42.977  46.722  1.00  0.00     0.039 A 
HETATM   18  C   UNL     1      22.048  41.650  47.153  1.00  0.00     0.068 A 
HETATM   19  C   UNL     1      23.000  41.238  48.089  1.00  0.00     0.046 A 
HETATM   20  C   UNL     1      24.972  41.689  49.596  1.00  0.00     0.058 C 
BRANCH  18  21
HETATM   21  O   UNL     1      21.077  40.867  46.593  1.00  0.00    -0.356 OA
HETATM   22  C   UNL     1      20.551  41.288  45.341  1.00  0.00     0.210 C 
ENDBRANCH  18  21
ENDBRANCH   8  11
ENDBRANCH   1   7
BRANCH   6  23
HETATM   23  O   UNL     1      26.748  45.249  53.340  1.00  0.00    -0.349 OA
BRANCH  23  24
HETATM   24  C   UNL     1      26.120  45.939  54.422  1.00  0.00     0.178 C 
BRANCH  24  25
HETATM   25  C   UNL     1      26.219  47.441  54.180  1.00  0.00     0.053 C 
BRANCH  25  26
HETATM   26  C   UNL     1      26.702  48.185  55.417  1.00  0.00     0.166 C 
BRANCH  26  27
HETATM   27  O   UNL     1      25.628  48.931  55.978  1.00  0.00    -0.401 OA
HETATM   28  H   UNL     1      25.789  49.871  55.791  1.00  0.00     0.209 HD
ENDBRANCH  26  27
ENDBRANCH  25  26
ENDBRANCH  24  25
ENDBRANCH  23  24
ENDBRANCH   6  23
BRANCH   4  29
HETATM   29  C   UNL     1      30.610  44.141  56.238  1.00  0.00     0.010 A 
HETATM   30  C   UNL     1      31.617  43.318  56.795  1.00  0.00     0.152 A 
HETATM   31  N   UNL     1      32.073  43.778  57.963  1.00  0.00    -0.187 NA
HETATM   32  N   UNL     1      31.353  44.891  58.165  1.00  0.00    -0.289 N 
HETATM   33  H   UNL     1      31.517  45.421  59.015  1.00  0.00     0.188 HD
HETATM   34  C   UNL     1      30.464  45.154  57.162  1.00  0.00     0.123 A 
ENDBRANCH   4  29
TORSDOF 9
ENDMDL
MODEL 3
REMARK VINA RESULT:      -8.2      3.367     10.207
REMARK  9 active torsions:
REMARK  status: ('A' for Active; 'I' for Inactive)
REMARK    1  A    between atoms: O_2  and  C_3 
REMARK    2  A    between atoms: C_9  and  C_13 
REMARK       I    between atoms: C_13  and  N_15 
REMARK    3  A    between atoms: N_15  and  C_16 
REMARK    4  A    between atoms: C_19  and  C_27 
REMARK    5  A    between atoms: C_21  and  O_22 
REMARK    6  A    between atoms: O_22  and  C_23 
REMARK    7  A    between atoms: C_23  and  C_24 
REMARK    8  A    between atoms: C_24  and  C_25 
REMARK    9  A    between atoms: C_25  and  O_26 
ROOT
HETATM    1  C   UNL     1      27.667  45.144  53.373  1.00  0.00     0.068 A 
HETATM    2  C   UNL     1      27.635  46.069  54.419  1.00  0.00     0.033 A 
HETATM    3  C   UNL     1      28.510  45.945  55.504  1.00  0.00     0.015 A 
HETATM    4  C   UNL     1      29.432  44.898  55.562  1.00  0.00    -0.020 A 
HETATM    5  C   UNL     1      29.459  43.961  54.519  1.00  0.00     0.051 A 
HETATM    6  C   UNL     1      28.585  44.075  53.428  1.00  0.00     0.096 A 
ENDROOT
BRANCH   1   7
HETATM    7  N   UNL     1      26.830  45.226  52.234  1.00  0.00    -0.324 N 
HETATM    8  C   UNL     1      25.524  44.790  52.110  1.00  0.00     0.228 C 
HETATM    9  O   UNL     1      24.877  44.202  52.971  1.00  0.00    -0.273 OA
HETATM   10  H   UNL     1      27.260  45.706  51.451  1.00  0.00     0.169 HD
BRANCH   8  11
HETATM   11  C   UNL     1      24.917  45.111  50.753  1.00  0.00     0.107 C 
HETATM   12  C   UNL     1      24.564  46.592  50.665  1.00  0.00     0.190 C 
HETATM   13  O   UNL     1      24.114  46.948  49.355  1.00  0.00    -0.350 OA
HETATM   14  C   UNL     1      23.119  46.143  48.870  1.00  0.00     0.075 A 
HETATM   15  C   UNL     1      22.381  46.656  47.808  1.00  0.00     0.040 A 
HETATM   16  C   UNL     1      22.854  44.860  49.363  1.00  0.00    -0.021 A 
HETATM   17  C   UNL     1      21.352  45.900  47.246  1.00  0.00     0.039 A 
HETATM   18  C   UNL     1      21.064  44.623  47.730  1.00  0.00     0.068 A 
HETATM   19  C   UNL     1      21.812  44.108  48.792  1.00  0.00     0.046 A 
HETATM   20  C   UNL     1      23.650  44.296  50.510  1.00  0.00     0.058 C 
BRANCH  18  21
HETATM   21  O   UNL     1      20.035  43.991  47.088  1.00  0.00    -0.356 OA
HETATM   22  C   UNL     1      20.053  44.012  45.666  1.00  0.00     0.210 C 
ENDBRANCH  18  21
ENDBRANCH   8  11
ENDBRANCH   1   7
BRANCH   6  23
HETATM   23  O   UNL     1      28.539  43.197  52.365  1.00  0.00    -0.349 OA
BRANCH  23  24
HETATM   24  C   UNL     1      29.011  41.870  52.600  1.00  0.00     0.178 C 
BRANCH  24  25
HETATM   25  C   UNL     1      28.404  40.933  51.562  1.00  0.00     0.053 C 
BRANCH  25  26
HETATM   26  C   UNL     1      27.225  41.573  50.841  1.00  0.00     0.166 C 
BRANCH  26  27
HETATM   27  O   UNL     1      26.107  41.642  51.717  1.00  0.00    -0.401 OA
HETATM   28  H   UNL     1      26.376  41.267  52.573  1.00  0.00     0.209 HD
ENDBRANCH  26  27
ENDBRANCH  25  26
ENDBRANCH  24  25
ENDBRANCH  23  24
ENDBRANCH   6  23
BRANCH   4  29
HETATM   29  C   UNL     1      30.335  44.790  56.698  1.00  0.00     0.010 A 
HETATM   30  C   UNL     1      31.353  43.850  56.983  1.00  0.00     0.152 A 
HETATM   31  N   UNL     1      31.955  44.078  58.153  1.00  0.00    -0.187 NA
HETATM   32  N   UNL     1      31.320  45.159  58.627  1.00  0.00    -0.289 N 
HETATM   33  H   UNL     1      31.602  45.524  59.532  1.00  0.00     0.188 HD
HETATM   34  C   UNL     1      30.343  45.626  57.795  1.00  0.00     0.123 A 
ENDBRANCH   4  29
TORSDOF 9
ENDMDL
MODEL 4
REMARK VINA RESULT:      -8.1      5.362      9.871
REMARK  9 active torsions:
REMARK  status: ('A' for Active; 'I' for Inactive)
REMARK    1  A    between atoms: O_2  and  C_3 
REMARK    2  A    between atoms: C_9  and  C_13 
REMARK       I    between atoms: C_13  and  N_15 
REMARK    3  A    between atoms: N_15  and  C_16 
REMARK    4  A    between atoms: C_19  and  C_27 
REMARK    5  A    between atoms: C_21  and  O_22 
REMARK    6  A    between atoms: O_22  and  C_23 
REMARK    7  A    between atoms: C_23  and  C_24 
REMARK    8  A    between atoms: C_24  and  C_25 
REMARK    9  A    between atoms: C_25  and  O_26 
ROOT
HETATM    1  C   UNL     1      28.841  43.380  52.716  1.00  0.00     0.068 A 
HETATM    2  C   UNL     1      29.989  42.752  53.201  1.00  0.00     0.033 A 
HETATM    3  C   UNL     1      30.532  43.118  54.436  1.00  0.00     0.015 A 
HETATM    4  C   UNL     1      29.936  44.117  55.211  1.00  0.00    -0.020 A 
HETATM    5  C   UNL     1      28.789  44.758  54.722  1.00  0.00     0.051 A 
HETATM    6  C   UNL     1      28.239  44.400  53.482  1.00  0.00     0.096 A 
ENDROOT
BRANCH   1   7
HETATM    7  N   UNL     1      28.225  43.040  51.487  1.00  0.00    -0.324 N 
HETATM    8  C   UNL     1      27.469  41.919  51.200  1.00  0.00     0.228 C 
HETATM    9  O   UNL     1      27.244  40.988  51.967  1.00  0.00    -0.273 OA
HETATM   10  H   UNL     1      28.338  43.748  50.769  1.00  0.00     0.169 HD
BRANCH   8  11
HETATM   11  C   UNL     1      26.908  41.926  49.787  1.00  0.00     0.107 C 
HETATM   12  C   UNL     1      25.586  41.168  49.736  1.00  0.00     0.190 C 
HETATM   13  O   UNL     1      24.971  41.272  48.448  1.00  0.00    -0.350 OA
HETATM   14  C   UNL     1      25.799  40.949  47.408  1.00  0.00     0.075 A 
HETATM   15  C   UNL     1      25.175  40.648  46.201  1.00  0.00     0.040 A 
HETATM   16  C   UNL     1      27.195  40.947  47.504  1.00  0.00    -0.021 A 
HETATM   17  C   UNL     1      25.943  40.316  45.085  1.00  0.00     0.039 A 
HETATM   18  C   UNL     1      27.337  40.297  45.163  1.00  0.00     0.068 A 
HETATM   19  C   UNL     1      27.960  40.606  46.375  1.00  0.00     0.046 A 
HETATM   20  C   UNL     1      27.878  41.273  48.806  1.00  0.00     0.058 C 
BRANCH  18  21
HETATM   21  O   UNL     1      27.966  39.959  43.996  1.00  0.00    -0.356 OA
HETATM   22  C   UNL     1      28.992  40.831  43.541  1.00  0.00     0.210 C 
ENDBRANCH  18  21
ENDBRANCH   8  11
ENDBRANCH   1   7
BRANCH   6  23
HETATM   23  O   UNL     1      27.119  44.981  52.924  1.00  0.00    -0.349 OA
BRANCH  23  24
HETATM   24  C   UNL     1      26.063  45.342  53.816  1.00  0.00     0.178 C 
BRANCH  24  25
HETATM   25  C   UNL     1      25.752  46.825  53.646  1.00  0.00     0.053 C 
BRANCH  25  26
HETATM   26  C   UNL     1      26.376  47.667  54.750  1.00  0.00     0.166 C 
BRANCH  26  27
HETATM   27  O   UNL     1      25.565  48.809  54.999  1.00  0.00    -0.401 OA
HETATM   28  H   UNL     1      24.638  48.549  54.867  1.00  0.00     0.209 HD
ENDBRANCH  26  27
ENDBRANCH  25  26
ENDBRANCH  24  25
ENDBRANCH  23  24
ENDBRANCH   6  23
BRANCH   4  29
HETATM   29  C   UNL     1      30.515  44.480  56.495  1.00  0.00     0.010 A 
HETATM   30  C   UNL     1      31.475  43.817  57.296  1.00  0.00     0.152 A 
HETATM   31  N   UNL     1      31.737  44.465  58.434  1.00  0.00    -0.187 NA
HETATM   32  N   UNL     1      30.939  45.541  58.372  1.00  0.00    -0.289 N 
HETATM   33  H   UNL     1      30.952  46.195  59.149  1.00  0.00     0.188 HD
HETATM   34  C   UNL     1      30.188  45.598  57.233  1.00  0.00     0.123 A 
ENDBRANCH   4  29
TORSDOF 9
ENDMDL
MODEL 5
REMARK VINA RESULT:      -8.0      3.202      9.506
REMARK  9 active torsions:
REMARK  status: ('A' for Active; 'I' for Inactive)
REMARK    1  A    between atoms: O_2  and  C_3 
REMARK    2  A    between atoms: C_9  and  C_13 
REMARK       I    between atoms: C_13  and  N_15 
REMARK    3  A    between atoms: N_15  and  C_16 
REMARK    4  A    between atoms: C_19  and  C_27 
REMARK    5  A    between atoms: C_21  and  O_22 
REMARK    6  A    between atoms: O_22  and  C_23 
REMARK    7  A    between atoms: C_23  and  C_24 
REMARK    8  A    between atoms: C_24  and  C_25 
REMARK    9  A    between atoms: C_25  and  O_26 
ROOT
HETATM    1  C   UNL     1      24.704  45.626  50.190  1.00  0.00     0.068 A 
HETATM    2  C   UNL     1      24.206  44.558  50.939  1.00  0.00     0.033 A 
HETATM    3  C   UNL     1      25.077  43.626  51.513  1.00  0.00     0.015 A 
HETATM    4  C   UNL     1      26.459  43.745  51.350  1.00  0.00    -0.020 A 
HETATM    5  C   UNL     1      26.961  44.810  50.589  1.00  0.00     0.051 A 
HETATM    6  C   UNL     1      26.097  45.748  50.007  1.00  0.00     0.096 A 
ENDROOT
BRANCH   1   7
HETATM    7  N   UNL     1      23.881  46.619  49.604  1.00  0.00    -0.324 N 
HETATM    8  C   UNL     1      22.880  46.445  48.668  1.00  0.00     0.228 C 
HETATM    9  O   UNL     1      22.566  45.383  48.139  1.00  0.00    -0.273 OA
HETATM   10  H   UNL     1      24.047  47.549  49.974  1.00  0.00     0.169 HD
BRANCH   8  11
HETATM   11  C   UNL     1      22.159  47.739  48.322  1.00  0.00     0.107 C 
HETATM   12  C   UNL     1      23.012  48.942  48.705  1.00  0.00     0.190 C 
HETATM   13  O   UNL     1      22.417  50.168  48.271  1.00  0.00    -0.350 OA
HETATM   14  C   UNL     1      21.109  50.315  48.645  1.00  0.00     0.075 A 
HETATM   15  C   UNL     1      20.604  51.611  48.606  1.00  0.00     0.040 A 
HETATM   16  C   UNL     1      20.287  49.244  49.015  1.00  0.00    -0.021 A 
HETATM   17  C   UNL     1      19.278  51.852  48.964  1.00  0.00     0.039 A 
HETATM   18  C   UNL     1      18.444  50.800  49.346  1.00  0.00     0.068 A 
HETATM   19  C   UNL     1      18.952  49.499  49.377  1.00  0.00     0.046 A 
HETATM   20  C   UNL     1      20.824  47.839  49.056  1.00  0.00     0.058 C 
BRANCH  18  21
HETATM   21  O   UNL     1      17.168  51.175  49.667  1.00  0.00    -0.356 OA
HETATM   22  C   UNL     1      16.947  52.555  49.925  1.00  0.00     0.210 C 
ENDBRANCH  18  21
ENDBRANCH   8  11
ENDBRANCH   1   7
BRANCH   6  23
HETATM   23  O   UNL     1      26.504  46.819  49.239  1.00  0.00    -0.349 OA
BRANCH  23  24
HETATM   24  C   UNL     1      26.824  48.028  49.931  1.00  0.00     0.178 C 
BRANCH  24  25
HETATM   25  C   UNL     1      27.584  48.955  48.990  1.00  0.00     0.053 C 
BRANCH  25  26
HETATM   26  C   UNL     1      26.744  50.154  48.572  1.00  0.00     0.166 C 
BRANCH  26  27
HETATM   27  O   UNL     1      26.173  49.916  47.291  1.00  0.00    -0.401 OA
HETATM   28  H   UNL     1      26.699  49.225  46.855  1.00  0.00     0.209 HD
ENDBRANCH  26  27
ENDBRANCH  25  26
ENDBRANCH  24  25
ENDBRANCH  23  24
ENDBRANCH   6  23
BRANCH   4  29
HETATM   29  C   UNL     1      27.346  42.766  51.959  1.00  0.00     0.010 A 
HETATM   30  C   UNL     1      27.741  42.589  53.307  1.00  0.00     0.152 A 
HETATM   31  N   UNL     1      28.598  41.578  53.466  1.00  0.00    -0.187 NA
HETATM   32  N   UNL     1      28.766  41.109  52.221  1.00  0.00    -0.289 N 
HETATM   33  H   UNL     1      29.399  40.327  52.083  1.00  0.00     0.188 HD
HETATM   34  C   UNL     1      28.039  41.784  51.283  1.00  0.00     0.123 A 
ENDBRANCH   4  29
TORSDOF 9
ENDMDL
MODEL 6
REMARK VINA RESULT:      -8.0      3.167     10.059
REMARK  9 active torsions:
REMARK  status: ('A' for Active; 'I' for Inactive)
REMARK    1  A    between atoms: O_2  and  C_3 
REMARK    2  A    between atoms: C_9  and  C_13 
REMARK       I    between atoms: C_13  and  N_15 
REMARK    3  A    between atoms: N_15  and  C_16 
REMARK    4  A    between atoms: C_19  and  C_27 
REMARK    5  A    between atoms: C_21  and  O_22 
REMARK    6  A    between atoms: O_22  and  C_23 
REMARK    7  A    between atoms: C_23  and  C_24 
REMARK    8  A    between atoms: C_24  and  C_25 
REMARK    9  A    between atoms: C_25  and  O_26 
ROOT
HETATM    1  C   UNL     1      26.876  45.598  53.517  1.00  0.00     0.068 A 
HETATM    2  C   UNL     1      27.525  46.550  54.305  1.00  0.00     0.033 A 
HETATM    3  C   UNL     1      28.574  46.177  55.151  1.00  0.00     0.015 A 
HETATM    4  C   UNL     1      28.995  44.847  55.223  1.00  0.00    -0.020 A 
HETATM    5  C   UNL     1      28.339  43.886  54.441  1.00  0.00     0.051 A 
HETATM    6  C   UNL     1      27.284  44.250  53.592  1.00  0.00     0.096 A 
ENDROOT
BRANCH   1   7
HETATM    7  N   UNL     1      25.826  45.911  52.620  1.00  0.00    -0.324 N 
HETATM    8  C   UNL     1      25.888  46.011  51.243  1.00  0.00     0.228 C 
HETATM    9  O   UNL     1      26.900  45.891  50.559  1.00  0.00    -0.273 OA
HETATM   10  H   UNL     1      24.927  46.028  53.077  1.00  0.00     0.169 HD
BRANCH   8  11
HETATM   11  C   UNL     1      24.538  46.298  50.606  1.00  0.00     0.107 C 
HETATM   12  C   UNL     1      24.355  45.457  49.348  1.00  0.00     0.190 C 
HETATM   13  O   UNL     1      23.041  45.608  48.802  1.00  0.00    -0.350 OA
HETATM   14  C   UNL     1      22.660  46.909  48.620  1.00  0.00     0.075 A 
HETATM   15  C   UNL     1      21.594  47.118  47.750  1.00  0.00     0.040 A 
HETATM   16  C   UNL     1      23.258  47.988  49.281  1.00  0.00    -0.021 A 
HETATM   17  C   UNL     1      21.134  48.414  47.513  1.00  0.00     0.039 A 
HETATM   18  C   UNL     1      21.723  49.504  48.153  1.00  0.00     0.068 A 
HETATM   19  C   UNL     1      22.789  49.290  49.031  1.00  0.00     0.046 A 
HETATM   20  C   UNL     1      24.409  47.770  50.226  1.00  0.00     0.058 C 
BRANCH  18  21
HETATM   21  O   UNL     1      21.174  50.716  47.833  1.00  0.00    -0.356 OA
HETATM   22  C   UNL     1      20.327  51.316  48.804  1.00  0.00     0.210 C 
ENDBRANCH  18  21
ENDBRANCH   8  11
ENDBRANCH   1   7
BRANCH   6  23
HETATM   23  O   UNL     1      26.580  43.371  52.795  1.00  0.00    -0.349 OA
BRANCH  23  24
HETATM   24  C   UNL     1      27.331  42.619  51.839  1.00  0.00     0.178 C 
BRANCH  24  25
HETATM   25  C   UNL     1      26.420  41.580  51.196  1.00  0.00     0.053 C 
BRANCH  25  26
HETATM   26  C   UNL     1      25.210  42.220  50.530  1.00  0.00     0.166 C 
BRANCH  26  27
HETATM   27  O   UNL     1      24.298  42.671  51.524  1.00  0.00    -0.401 OA
HETATM   28  H   UNL     1      23.587  43.159  51.076  1.00  0.00     0.209 HD
ENDBRANCH  26  27
ENDBRANCH  25  26
ENDBRANCH  24  25
ENDBRANCH  23  24
ENDBRANCH   6  23
BRANCH   4  29
HETATM   29  C   UNL     1      30.092  44.482  56.107  1.00  0.00     0.010 A 
HETATM   30  C   UNL     1      31.002  43.400  56.052  1.00  0.00     0.152 A 
HETATM   31  N   UNL     1      31.863  43.395  57.073  1.00  0.00    -0.187 NA
HETATM   32  N   UNL     1      31.502  44.467  57.792  1.00  0.00    -0.289 N 
HETATM   33  H   UNL     1      32.017  44.670  58.644  1.00  0.00     0.188 HD
HETATM   34  C   UNL     1      30.449  45.153  57.257  1.00  0.00     0.123 A 
ENDBRANCH   4  29
TORSDOF 9
ENDMDL
MODEL 7
REMARK VINA RESULT:      -7.9      5.031      9.591
REMARK  9 active torsions:
REMARK  status: ('A' for Active; 'I' for Inactive)
REMARK    1  A    between atoms: O_2  and  C_3 
REMARK    2  A    between atoms: C_9  and  C_13 
REMARK       I    between atoms: C_13  and  N_15 
REMARK    3  A    between atoms: N_15  and  C_16 
REMARK    4  A    between atoms: C_19  and  C_27 
REMARK    5  A    between atoms: C_21  and  O_22 
REMARK    6  A    between atoms: O_22  and  C_23 
REMARK    7  A    between atoms: C_23  and  C_24 
REMARK    8  A    between atoms: C_24  and  C_25 
REMARK    9  A    between atoms: C_25  and  O_26 
ROOT
HETATM    1  C   UNL     1      28.713  42.338  52.236  1.00  0.00     0.068 A 
HETATM    2  C   UNL     1      29.963  42.377  52.857  1.00  0.00     0.033 A 
HETATM    3  C   UNL     1      30.179  43.197  53.969  1.00  0.00     0.015 A 
HETATM    4  C   UNL     1      29.150  43.992  54.481  1.00  0.00    -0.020 A 
HETATM    5  C   UNL     1      27.897  43.963  53.853  1.00  0.00     0.051 A 
HETATM    6  C   UNL     1      27.671  43.146  52.736  1.00  0.00     0.096 A 
ENDROOT
BRANCH   1   7
HETATM    7  N   UNL     1      28.419  41.510  51.125  1.00  0.00    -0.324 N 
HETATM    8  C   UNL     1      28.641  40.152  50.998  1.00  0.00     0.228 C 
HETATM    9  O   UNL     1      29.189  39.433  51.827  1.00  0.00    -0.273 OA
HETATM   10  H   UNL     1      27.952  42.001  50.370  1.00  0.00     0.169 HD
BRANCH   8  11
HETATM   11  C   UNL     1      28.130  39.587  49.682  1.00  0.00     0.107 C 
HETATM   12  C   UNL     1      28.864  38.296  49.337  1.00  0.00     0.190 C 
HETATM   13  O   UNL     1      28.313  37.673  48.173  1.00  0.00    -0.350 OA
HETATM   14  C   UNL     1      28.194  38.510  47.097  1.00  0.00     0.075 A 
HETATM   15  C   UNL     1      28.048  37.895  45.857  1.00  0.00     0.040 A 
HETATM   16  C   UNL     1      28.179  39.906  47.202  1.00  0.00    -0.021 A 
HETATM   17  C   UNL     1      27.912  38.672  44.707  1.00  0.00     0.039 A 
HETATM   18  C   UNL     1      27.906  40.066  44.789  1.00  0.00     0.068 A 
HETATM   19  C   UNL     1      28.047  40.680  46.036  1.00  0.00     0.046 A 
HETATM   20  C   UNL     1      28.335  40.579  48.540  1.00  0.00     0.058 C 
BRANCH  18  21
HETATM   21  O   UNL     1      27.762  40.704  43.588  1.00  0.00    -0.356 OA
HETATM   22  C   UNL     1      26.885  41.823  43.553  1.00  0.00     0.210 C 
ENDBRANCH  18  21
ENDBRANCH   8  11
ENDBRANCH   1   7
BRANCH   6  23
HETATM   23  O   UNL     1      26.474  43.062  52.055  1.00  0.00    -0.349 OA
BRANCH  23  24
HETATM   24  C   UNL     1      25.679  44.247  51.995  1.00  0.00     0.178 C 
BRANCH  24  25
HETATM   25  C   UNL     1      26.238  45.169  50.918  1.00  0.00     0.053 C 
BRANCH  25  26
HETATM   26  C   UNL     1      25.998  44.620  49.519  1.00  0.00     0.166 C 
BRANCH  26  27
HETATM   27  O   UNL     1      27.005  43.668  49.197  1.00  0.00    -0.401 OA
HETATM   28  H   UNL     1      27.813  44.156  48.965  1.00  0.00     0.209 HD
ENDBRANCH  26  27
ENDBRANCH  25  26
ENDBRANCH  24  25
ENDBRANCH  23  24
ENDBRANCH   6  23
BRANCH   4  29
HETATM   29  C   UNL     1      29.396  44.835  55.641  1.00  0.00     0.010 A 
HETATM   30  C   UNL     1      30.523  44.931  56.492  1.00  0.00     0.152 A 
HETATM   31  N   UNL     1      30.355  45.820  57.474  1.00  0.00    -0.187 NA
HETATM   32  N   UNL     1      29.117  46.291  57.264  1.00  0.00    -0.289 N 
HETATM   33  H   UNL     1      28.753  46.988  57.906  1.00  0.00     0.188 HD
HETATM   34  C   UNL     1      28.500  45.735  56.179  1.00  0.00     0.123 A 
ENDBRANCH   4  29
TORSDOF 9
ENDMDL
MODEL 8
REMARK VINA RESULT:      -7.9      4.540      9.768
REMARK  9 active torsions:
REMARK  status: ('A' for Active; 'I' for Inactive)
REMARK    1  A    between atoms: O_2  and  C_3 
REMARK    2  A    between atoms: C_9  and  C_13 
REMARK       I    between atoms: C_13  and  N_15 
REMARK    3  A    between atoms: N_15  and  C_16 
REMARK    4  A    between atoms: C_19  and  C_27 
REMARK    5  A    between atoms: C_21  and  O_22 
REMARK    6  A    between atoms: O_22  and  C_23 
REMARK    7  A    between atoms: C_23  and  C_24 
REMARK    8  A    between atoms: C_24  and  C_25 
REMARK    9  A    between atoms: C_25  and  O_26 
ROOT
HETATM    1  C   UNL     1      28.437  42.763  52.819  1.00  0.00     0.068 A 
HETATM    2  C   UNL     1      29.791  42.528  53.064  1.00  0.00     0.033 A 
HETATM    3  C   UNL     1      30.408  43.050  54.206  1.00  0.00     0.015 A 
HETATM    4  C   UNL     1      29.683  43.815  55.123  1.00  0.00    -0.020 A 
HETATM    5  C   UNL     1      28.325  44.062  54.874  1.00  0.00     0.051 A 
HETATM    6  C   UNL     1      27.699  43.545  53.731  1.00  0.00     0.096 A 
ENDROOT
BRANCH   1   7
HETATM    7  N   UNL     1      27.746  42.242  51.699  1.00  0.00    -0.324 N 
HETATM    8  C   UNL     1      27.886  40.994  51.121  1.00  0.00     0.228 C 
HETATM    9  O   UNL     1      28.689  40.131  51.461  1.00  0.00    -0.273 OA
HETATM   10  H   UNL     1      27.041  42.873  51.331  1.00  0.00     0.169 HD
BRANCH   8  11
HETATM   11  C   UNL     1      26.921  40.760  49.970  1.00  0.00     0.107 C 
HETATM   12  C   UNL     1      27.580  41.120  48.642  1.00  0.00     0.190 C 
HETATM   13  O   UNL     1      26.742  40.784  47.532  1.00  0.00    -0.350 OA
HETATM   14  C   UNL     1      25.466  41.271  47.631  1.00  0.00     0.075 A 
HETATM   15  C   UNL     1      24.740  41.325  46.445  1.00  0.00     0.040 A 
HETATM   16  C   UNL     1      24.881  41.664  48.840  1.00  0.00    -0.021 A 
HETATM   17  C   UNL     1      23.428  41.800  46.455  1.00  0.00     0.039 A 
HETATM   18  C   UNL     1      22.830  42.208  47.648  1.00  0.00     0.068 A 
HETATM   19  C   UNL     1      23.560  42.146  48.837  1.00  0.00     0.046 A 
HETATM   20  C   UNL     1      25.660  41.606  50.127  1.00  0.00     0.058 C 
BRANCH  18  21
HETATM   21  O   UNL     1      21.541  42.647  47.516  1.00  0.00    -0.356 OA
HETATM   22  C   UNL     1      21.178  43.211  46.262  1.00  0.00     0.210 C 
ENDBRANCH  18  21
ENDBRANCH   8  11
ENDBRANCH   1   7
BRANCH   6  23
HETATM   23  O   UNL     1      26.373  43.744  53.406  1.00  0.00    -0.349 OA
BRANCH  23  24
HETATM   24  C   UNL     1      25.784  44.980  53.813  1.00  0.00     0.178 C 
BRANCH  24  25
HETATM   25  C   UNL     1      25.683  45.905  52.606  1.00  0.00     0.053 C 
BRANCH  25  26
HETATM   26  C   UNL     1      25.080  45.200  51.399  1.00  0.00     0.166 C 
BRANCH  26  27
HETATM   27  O   UNL     1      23.854  44.581  51.768  1.00  0.00    -0.401 OA
HETATM   28  H   UNL     1      23.562  44.976  52.607  1.00  0.00     0.209 HD
ENDBRANCH  26  27
ENDBRANCH  25  26
ENDBRANCH  24  25
ENDBRANCH  23  24
ENDBRANCH   6  23
BRANCH   4  29
HETATM   29  C   UNL     1      30.343  44.345  56.306  1.00  0.00     0.010 A 
HETATM   30  C   UNL     1      31.319  43.771  57.156  1.00  0.00     0.152 A 
HETATM   31  N   UNL     1      31.665  44.575  58.164  1.00  0.00    -0.187 NA
HETATM   32  N   UNL     1      30.907  45.664  57.971  1.00  0.00    -0.289 N 
HETATM   33  H   UNL     1      30.988  46.429  58.633  1.00  0.00     0.188 HD
HETATM   34  C   UNL     1      30.100  45.578  56.873  1.00  0.00     0.123 A 
ENDBRANCH   4  29
TORSDOF 9
ENDMDL
MODEL 9
REMARK VINA RESULT:      -7.7      3.035      9.774
REMARK  9 active torsions:
REMARK  status: ('A' for Active; 'I' for Inactive)
REMARK    1  A    between atoms: O_2  and  C_3 
REMARK    2  A    between atoms: C_9  and  C_13 
REMARK       I    between atoms: C_13  and  N_15 
REMARK    3  A    between atoms: N_15  and  C_16 
REMARK    4  A    between atoms: C_19  and  C_27 
REMARK    5  A    between atoms: C_21  and  O_22 
REMARK    6  A    between atoms: O_22  and  C_23 
REMARK    7  A    between atoms: C_23  and  C_24 
REMARK    8  A    between atoms: C_24  and  C_25 
REMARK    9  A    between atoms: C_25  and  O_26 
ROOT
HETATM    1  C   UNL     1      26.144  46.537  52.708  1.00  0.00     0.068 A 
HETATM    2  C   UNL     1      26.498  47.557  53.593  1.00  0.00     0.033 A 
HETATM    3  C   UNL     1      27.367  47.303  54.659  1.00  0.00     0.015 A 
HETATM    4  C   UNL     1      27.899  46.027  54.859  1.00  0.00    -0.020 A 
HETATM    5  C   UNL     1      27.537  44.998  53.978  1.00  0.00     0.051 A 
HETATM    6  C   UNL     1      26.664  45.241  52.907  1.00  0.00     0.096 A 
ENDROOT
BRANCH   1   7
HETATM    7  N   UNL     1      25.292  46.732  51.594  1.00  0.00    -0.324 N 
HETATM    8  C   UNL     1      25.652  47.018  50.291  1.00  0.00     0.228 C 
HETATM    9  O   UNL     1      26.796  47.205  49.886  1.00  0.00    -0.273 OA
HETATM   10  H   UNL     1      24.309  46.594  51.809  1.00  0.00     0.169 HD
BRANCH   8  11
HETATM   11  C   UNL     1      24.462  47.089  49.347  1.00  0.00     0.107 C 
HETATM   12  C   UNL     1      23.616  48.321  49.650  1.00  0.00     0.190 C 
HETATM   13  O   UNL     1      22.565  48.485  48.693  1.00  0.00    -0.350 OA
HETATM   14  C   UNL     1      21.806  47.363  48.503  1.00  0.00     0.075 A 
HETATM   15  C   UNL     1      20.563  47.559  47.909  1.00  0.00     0.040 A 
HETATM   16  C   UNL     1      22.235  46.073  48.839  1.00  0.00    -0.021 A 
HETATM   17  C   UNL     1      19.725  46.470  47.670  1.00  0.00     0.039 A 
HETATM   18  C   UNL     1      20.130  45.177  48.008  1.00  0.00     0.068 A 
HETATM   19  C   UNL     1      21.381  44.982  48.598  1.00  0.00     0.046 A 
HETATM   20  C   UNL     1      23.579  45.851  49.479  1.00  0.00     0.058 C 
BRANCH  18  21
HETATM   21  O   UNL     1      19.216  44.202  47.717  1.00  0.00    -0.356 OA
HETATM   22  C   UNL     1      18.964  43.944  46.341  1.00  0.00     0.210 C 
ENDBRANCH  18  21
ENDBRANCH   8  11
ENDBRANCH   1   7
BRANCH   6  23
HETATM   23  O   UNL     1      26.252  44.289  52.000  1.00  0.00    -0.349 OA
BRANCH  23  24
HETATM   24  C   UNL     1      26.873  43.004  52.081  1.00  0.00     0.178 C 
BRANCH  24  25
HETATM   25  C   UNL     1      26.356  42.128  50.945  1.00  0.00     0.053 C 
BRANCH  25  26
HETATM   26  C   UNL     1      25.010  42.611  50.423  1.00  0.00     0.166 C 
BRANCH  26  27
HETATM   27  O   UNL     1      24.087  42.717  51.501  1.00  0.00    -0.401 OA
HETATM   28  H   UNL     1      23.527  41.923  51.492  1.00  0.00     0.209 HD
ENDBRANCH  26  27
ENDBRANCH  25  26
ENDBRANCH  24  25
ENDBRANCH  23  24
ENDBRANCH   6  23
BRANCH   4  29
HETATM   29  C   UNL     1      28.805  45.786  55.971  1.00  0.00     0.010 A 
HETATM   30  C   UNL     1      28.730  46.187  57.327  1.00  0.00     0.152 A 
HETATM   31  N   UNL     1      29.782  45.783  58.044  1.00  0.00    -0.187 NA
HETATM   32  N   UNL     1      30.539  45.130  57.151  1.00  0.00    -0.289 N 
HETATM   33  H   UNL     1      31.418  44.732  57.466  1.00  0.00     0.188 HD
HETATM   34  C   UNL     1      30.000  45.101  55.897  1.00  0.00     0.123 A 
ENDBRANCH   4  29
TORSDOF 9
ENDMDL
MODEL 10
REMARK VINA RESULT:      -7.7     18.612     20.538
REMARK  9 active torsions:
REMARK  status: ('A' for Active; 'I' for Inactive)
REMARK    1  A    between atoms: O_2  and  C_3 
REMARK    2  A    between atoms: C_9  and  C_13 
REMARK       I    between atoms: C_13  and  N_15 
REMARK    3  A    between atoms: N_15  and  C_16 
REMARK    4  A    between atoms: C_19  and  C_27 
REMARK    5  A    between atoms: C_21  and  O_22 
REMARK    6  A    between atoms: O_22  and  C_23 
REMARK    7  A    between atoms: C_23  and  C_24 
REMARK    8  A    between atoms: C_24  and  C_25 
REMARK    9  A    between atoms: C_25  and  O_26 
ROOT
HETATM    1  C   UNL     1      38.892  47.619  65.091  1.00  0.00     0.068 A 
HETATM    2  C   UNL     1      39.466  48.834  64.713  1.00  0.00     0.033 A 
HETATM    3  C   UNL     1      39.099  50.023  65.352  1.00  0.00     0.015 A 
HETATM    4  C   UNL     1      38.154  50.019  66.382  1.00  0.00    -0.020 A 
HETATM    5  C   UNL     1      37.569  48.801  66.757  1.00  0.00     0.051 A 
HETATM    6  C   UNL     1      37.928  47.604  66.120  1.00  0.00     0.096 A 
ENDROOT
BRANCH   1   7
HETATM    7  N   UNL     1      39.238  46.377  64.505  1.00  0.00    -0.324 N 
HETATM    8  C   UNL     1      40.494  45.935  64.134  1.00  0.00     0.228 C 
HETATM    9  O   UNL     1      41.534  46.582  64.208  1.00  0.00    -0.273 OA
HETATM   10  H   UNL     1      38.449  45.748  64.399  1.00  0.00     0.169 HD
BRANCH   8  11
HETATM   11  C   UNL     1      40.489  44.512  63.598  1.00  0.00     0.107 C 
HETATM   12  C   UNL     1      39.143  44.190  62.958  1.00  0.00     0.190 C 
HETATM   13  O   UNL     1      39.156  42.905  62.328  1.00  0.00    -0.350 OA
HETATM   14  C   UNL     1      39.606  41.895  63.134  1.00  0.00     0.075 A 
HETATM   15  C   UNL     1      39.277  40.603  62.736  1.00  0.00     0.040 A 
HETATM   16  C   UNL     1      40.385  42.108  64.278  1.00  0.00    -0.021 A 
HETATM   17  C   UNL     1      39.702  39.512  63.494  1.00  0.00     0.039 A 
HETATM   18  C   UNL     1      40.470  39.703  64.644  1.00  0.00     0.068 A 
HETATM   19  C   UNL     1      40.804  41.002  65.037  1.00  0.00     0.046 A 
HETATM   20  C   UNL     1      40.747  43.503  64.714  1.00  0.00     0.058 C 
BRANCH  18  21
HETATM   21  O   UNL     1      40.822  38.550  65.290  1.00  0.00    -0.356 OA
HETATM   22  C   UNL     1      41.579  37.602  64.550  1.00  0.00     0.210 C 
ENDBRANCH  18  21
ENDBRANCH   8  11
ENDBRANCH   1   7
BRANCH   6  23
HETATM   23  O   UNL     1      37.398  46.367  66.421  1.00  0.00    -0.349 OA
BRANCH  23  24
HETATM   24  C   UNL     1      35.978  46.284  66.554  1.00  0.00     0.178 C 
BRANCH  24  25
HETATM   25  C   UNL     1      35.530  44.861  66.245  1.00  0.00     0.053 C 
BRANCH  25  26
HETATM   26  C   UNL     1      36.169  44.328  64.970  1.00  0.00     0.166 C 
BRANCH  26  27
HETATM   27  O   UNL     1      36.048  45.294  63.933  1.00  0.00    -0.401 OA
HETATM   28  H   UNL     1      36.361  46.145  64.281  1.00  0.00     0.209 HD
ENDBRANCH  26  27
ENDBRANCH  25  26
ENDBRANCH  24  25
ENDBRANCH  23  24
ENDBRANCH   6  23
BRANCH   4  29
HETATM   29  C   UNL     1      37.791  51.266  67.036  1.00  0.00     0.010 A 
HETATM   30  C   UNL     1      37.325  51.520  68.348  1.00  0.00     0.152 A 
HETATM   31  N   UNL     1      37.076  52.813  68.567  1.00  0.00    -0.187 NA
HETATM   32  N   UNL     1      37.370  53.393  67.395  1.00  0.00    -0.289 N 
HETATM   33  H   UNL     1      37.246  54.397  67.310  1.00  0.00     0.188 HD
HETATM   34  C   UNL     1      37.804  52.512  66.445  1.00  0.00     0.123 A 
ENDBRANCH   4  29
TORSDOF 9
ENDMDL
