MODEL 1
REMARK VINA RESULT:      -9.8      0.000      0.000
REMARK  4 active torsions:
REMARK  status: ('A' for Active; 'I' for Inactive)
REMARK    1  A    between atoms: C_4  and  C_5 
REMARK    2  A    between atoms: C_14  and  C_15 
REMARK    3  A    between atoms: C_15  and  C_16 
REMARK    4  A    between atoms: C_17  and  O_18 
ROOT
HETATM    1  C   UNL     1      26.420  43.375  51.059  1.00  0.00     0.071 C 
HETATM    2  C   UNL     1      26.559  44.400  52.155  1.00  0.00     0.045 A 
HETATM    3  N   UNL     1      27.609  44.130  53.006  1.00  0.00    -0.234 NA
HETATM    4  C   UNL     1      27.853  44.952  53.976  1.00  0.00     0.141 A 
HETATM    5  N   UNL     1      27.070  46.048  54.214  1.00  0.00    -0.307 N 
HETATM    6  C   UNL     1      26.027  46.380  53.412  1.00  0.00     0.255 A 
HETATM    7  O   UNL     1      25.359  47.394  53.603  1.00  0.00    -0.268 OA
HETATM    8  C   UNL     1      25.762  45.482  52.265  1.00  0.00     0.039 A 
HETATM    9  H   UNL     1      27.226  46.662  54.997  1.00  0.00     0.170 HD
ENDROOT
BRANCH   8  10
HETATM   10  C   UNL     1      24.618  45.883  51.369  1.00  0.00     0.088 C 
BRANCH  10  11
HETATM   11  C   UNL     1      24.958  47.021  50.425  1.00  0.00    -0.020 A 
HETATM   12  C   UNL     1      23.988  47.728  49.677  1.00  0.00     0.074 A 
HETATM   13  C   UNL     1      24.337  48.814  48.872  1.00  0.00     0.074 A 
HETATM   14  C   UNL     1      25.665  49.169  48.801  1.00  0.00     0.077 A 
HETATM   15  C   UNL     1      26.641  48.470  49.486  1.00  0.00    -0.022 A 
HETATM   16  O   UNL     1      26.156  50.201  48.043  1.00  0.00    -0.350 OA
HETATM   17  C   UNL     1      27.969  49.018  49.131  1.00  0.00     0.068 C 
HETATM   18  C   UNL     1      26.311  47.396  50.296  1.00  0.00     0.020 A 
HETATM   19  C   UNL     1      27.520  50.339  48.507  1.00  0.00     0.180 C 
BRANCH  12  20
HETATM   20  O   UNL     1      22.657  47.416  49.669  1.00  0.00    -0.360 OA
HETATM   21  H   UNL     1      22.115  48.131  50.053  1.00  0.00     0.217 HD
ENDBRANCH  12  20
ENDBRANCH  10  11
ENDBRANCH   8  10
BRANCH   4  22
HETATM   22  C   UNL     1      29.007  44.732  54.893  1.00  0.00     0.010 A 
HETATM   23  C   UNL     1      29.800  43.578  54.821  1.00  0.00     0.015 A 
HETATM   24  C   UNL     1      30.861  43.401  55.711  1.00  0.00     0.001 A 
HETATM   25  C   UNL     1      31.130  44.365  56.681  1.00  0.00     0.000 A 
HETATM   26  C   UNL     1      30.336  45.506  56.770  1.00  0.00     0.001 A 
HETATM   27  C   UNL     1      29.275  45.688  55.880  1.00  0.00     0.015 A 
ENDBRANCH   4  22
TORSDOF 4
ENDMDL
MODEL 2
REMARK VINA RESULT:      -9.7      1.558      2.095
REMARK  4 active torsions:
REMARK  status: ('A' for Active; 'I' for Inactive)
REMARK    1  A    between atoms: C_4  and  C_5 
REMARK    2  A    between atoms: C_14  and  C_15 
REMARK    3  A    between atoms: C_15  and  C_16 
REMARK    4  A    between atoms: C_17  and  O_18 
ROOT
HETATM    1  C   UNL     1      25.722  46.329  53.662  1.00  0.00     0.071 C 
HETATM    2  C   UNL     1      26.862  45.365  53.451  1.00  0.00     0.045 A 
HETATM    3  N   UNL     1      27.760  45.367  54.496  1.00  0.00    -0.234 NA
HETATM    4  C   UNL     1      28.772  44.562  54.451  1.00  0.00     0.141 A 
HETATM    5  N   UNL     1      29.006  43.749  53.375  1.00  0.00    -0.307 N 
HETATM    6  C   UNL     1      28.159  43.689  52.317  1.00  0.00     0.255 A 
HETATM    7  O   UNL     1      28.350  42.920  51.376  1.00  0.00    -0.268 OA
HETATM    8  C   UNL     1      26.967  44.564  52.372  1.00  0.00     0.039 A 
HETATM    9  H   UNL     1      29.819  43.158  53.313  1.00  0.00     0.170 HD
ENDROOT
BRANCH   8  10
HETATM   10  C   UNL     1      26.023  44.461  51.201  1.00  0.00     0.088 C 
BRANCH  10  11
HETATM   11  C   UNL     1      25.808  45.777  50.477  1.00  0.00    -0.020 A 
HETATM   12  C   UNL     1      24.531  46.274  50.128  1.00  0.00     0.074 A 
HETATM   13  C   UNL     1      24.375  47.522  49.523  1.00  0.00     0.074 A 
HETATM   14  C   UNL     1      25.506  48.256  49.247  1.00  0.00     0.077 A 
HETATM   15  C   UNL     1      26.771  47.778  49.537  1.00  0.00    -0.022 A 
HETATM   16  O   UNL     1      25.508  49.488  48.645  1.00  0.00    -0.350 OA
HETATM   17  C   UNL     1      27.778  48.736  49.032  1.00  0.00     0.068 C 
HETATM   18  C   UNL     1      26.943  46.546  50.145  1.00  0.00     0.020 A 
HETATM   19  C   UNL     1      26.869  49.947  48.823  1.00  0.00     0.180 C 
BRANCH  12  20
HETATM   20  O   UNL     1      23.365  45.591  50.338  1.00  0.00    -0.360 OA
HETATM   21  H   UNL     1      22.649  46.183  50.642  1.00  0.00     0.217 HD
ENDBRANCH  12  20
ENDBRANCH  10  11
ENDBRANCH   8  10
BRANCH   4  22
HETATM   22  C   UNL     1      29.743  44.489  55.578  1.00  0.00     0.010 A 
HETATM   23  C   UNL     1      30.662  43.438  55.697  1.00  0.00     0.015 A 
HETATM   24  C   UNL     1      31.545  43.396  56.778  1.00  0.00     0.001 A 
HETATM   25  C   UNL     1      31.509  44.394  57.750  1.00  0.00     0.000 A 
HETATM   26  C   UNL     1      30.587  45.434  57.648  1.00  0.00     0.001 A 
HETATM   27  C   UNL     1      29.704  45.481  56.567  1.00  0.00     0.015 A 
ENDBRANCH   4  22
TORSDOF 4
ENDMDL
MODEL 3
REMARK VINA RESULT:      -9.5      2.528      7.569
REMARK  4 active torsions:
REMARK  status: ('A' for Active; 'I' for Inactive)
REMARK    1  A    between atoms: C_4  and  C_5 
REMARK    2  A    between atoms: C_14  and  C_15 
REMARK    3  A    between atoms: C_15  and  C_16 
REMARK    4  A    between atoms: C_17  and  O_18 
ROOT
HETATM    1  C   UNL     1      25.928  47.284  54.414  1.00  0.00     0.071 C 
HETATM    2  C   UNL     1      25.657  46.690  53.056  1.00  0.00     0.045 A 
HETATM    3  N   UNL     1      25.589  47.643  52.063  1.00  0.00    -0.234 NA
HETATM    4  C   UNL     1      25.388  47.260  50.843  1.00  0.00     0.141 A 
HETATM    5  N   UNL     1      25.187  45.946  50.518  1.00  0.00    -0.307 N 
HETATM    6  C   UNL     1      25.249  44.955  51.442  1.00  0.00     0.255 A 
HETATM    7  O   UNL     1      25.116  43.772  51.134  1.00  0.00    -0.268 OA
HETATM    8  C   UNL     1      25.530  45.366  52.836  1.00  0.00     0.039 A 
HETATM    9  H   UNL     1      24.980  45.650  49.577  1.00  0.00     0.170 HD
ENDROOT
BRANCH   8  10
HETATM   10  C   UNL     1      25.624  44.248  53.843  1.00  0.00     0.088 C 
BRANCH  10  11
HETATM   11  C   UNL     1      27.050  43.843  54.168  1.00  0.00    -0.020 A 
HETATM   12  C   UNL     1      27.690  42.720  53.595  1.00  0.00     0.074 A 
HETATM   13  C   UNL     1      29.026  42.423  53.871  1.00  0.00     0.074 A 
HETATM   14  C   UNL     1      29.706  43.243  54.743  1.00  0.00     0.077 A 
HETATM   15  C   UNL     1      29.094  44.322  55.353  1.00  0.00    -0.022 A 
HETATM   16  O   UNL     1      31.014  43.067  55.118  1.00  0.00    -0.350 OA
HETATM   17  C   UNL     1      30.041  44.940  56.307  1.00  0.00     0.068 C 
HETATM   18  C   UNL     1      27.773  44.636  55.083  1.00  0.00     0.020 A 
HETATM   19  C   UNL     1      31.335  44.299  55.805  1.00  0.00     0.180 C 
BRANCH  12  20
HETATM   20  O   UNL     1      27.073  41.842  52.748  1.00  0.00    -0.360 OA
HETATM   21  H   UNL     1      27.402  40.930  52.870  1.00  0.00     0.217 HD
ENDBRANCH  12  20
ENDBRANCH  10  11
ENDBRANCH   8  10
BRANCH   4  22
HETATM   22  C   UNL     1      25.357  48.246  49.727  1.00  0.00     0.010 A 
HETATM   23  C   UNL     1      26.528  48.821  49.214  1.00  0.00     0.015 A 
HETATM   24  C   UNL     1      26.456  49.756  48.179  1.00  0.00     0.001 A 
HETATM   25  C   UNL     1      25.218  50.130  47.659  1.00  0.00     0.000 A 
HETATM   26  C   UNL     1      24.049  49.576  48.176  1.00  0.00     0.001 A 
HETATM   27  C   UNL     1      24.117  48.639  49.209  1.00  0.00     0.015 A 
ENDBRANCH   4  22
TORSDOF 4
ENDMDL
MODEL 4
REMARK VINA RESULT:      -9.3      3.758      6.058
REMARK  4 active torsions:
REMARK  status: ('A' for Active; 'I' for Inactive)
REMARK    1  A    between atoms: C_4  and  C_5 
REMARK    2  A    between atoms: C_14  and  C_15 
REMARK    3  A    between atoms: C_15  and  C_16 
REMARK    4  A    between atoms: C_17  and  O_18 
ROOT
HETATM    1  C   UNL     1      23.988  49.826  48.982  1.00  0.00     0.071 C 
HETATM    2  C   UNL     1      23.841  48.365  49.324  1.00  0.00     0.045 A 
HETATM    3  N   UNL     1      24.762  47.943  50.258  1.00  0.00    -0.234 NA
HETATM    4  C   UNL     1      24.725  46.713  50.659  1.00  0.00     0.141 A 
HETATM    5  N   UNL     1      23.837  45.808  50.146  1.00  0.00    -0.307 N 
HETATM    6  C   UNL     1      22.896  46.156  49.232  1.00  0.00     0.255 A 
HETATM    7  O   UNL     1      22.069  45.349  48.812  1.00  0.00    -0.268 OA
HETATM    8  C   UNL     1      22.887  47.571  48.798  1.00  0.00     0.039 A 
HETATM    9  H   UNL     1      23.837  44.838  50.419  1.00  0.00     0.170 HD
ENDROOT
BRANCH   8  10
HETATM   10  C   UNL     1      21.817  47.945  47.805  1.00  0.00     0.088 C 
BRANCH  10  11
HETATM   11  C   UNL     1      20.655  48.700  48.421  1.00  0.00    -0.020 A 
HETATM   12  C   UNL     1      19.675  48.090  49.238  1.00  0.00     0.074 A 
HETATM   13  C   UNL     1      18.660  48.836  49.841  1.00  0.00     0.074 A 
HETATM   14  C   UNL     1      18.619  50.190  49.598  1.00  0.00     0.077 A 
HETATM   15  C   UNL     1      19.536  50.808  48.768  1.00  0.00    -0.022 A 
HETATM   16  O   UNL     1      17.675  51.044  50.108  1.00  0.00    -0.350 OA
HETATM   17  C   UNL     1      19.171  52.234  48.621  1.00  0.00     0.068 C 
HETATM   18  C   UNL     1      20.554  50.085  48.170  1.00  0.00     0.020 A 
HETATM   19  C   UNL     1      18.205  52.354  49.800  1.00  0.00     0.180 C 
BRANCH  12  20
HETATM   20  O   UNL     1      19.630  46.748  49.499  1.00  0.00    -0.360 OA
HETATM   21  H   UNL     1      19.084  46.551  50.285  1.00  0.00     0.217 HD
ENDBRANCH  12  20
ENDBRANCH  10  11
ENDBRANCH   8  10
BRANCH   4  22
HETATM   22  C   UNL     1      25.666  46.220  51.704  1.00  0.00     0.010 A 
HETATM   23  C   UNL     1      26.351  45.004  51.569  1.00  0.00     0.015 A 
HETATM   24  C   UNL     1      27.211  44.568  52.579  1.00  0.00     0.001 A 
HETATM   25  C   UNL     1      27.384  45.334  53.731  1.00  0.00     0.000 A 
HETATM   26  C   UNL     1      26.694  46.535  53.879  1.00  0.00     0.001 A 
HETATM   27  C   UNL     1      25.835  46.976  52.871  1.00  0.00     0.015 A 
ENDBRANCH   4  22
TORSDOF 4
ENDMDL
MODEL 5
REMARK VINA RESULT:      -8.9      1.592      2.724
REMARK  4 active torsions:
REMARK  status: ('A' for Active; 'I' for Inactive)
REMARK    1  A    between atoms: C_4  and  C_5 
REMARK    2  A    between atoms: C_14  and  C_15 
REMARK    3  A    between atoms: C_15  and  C_16 
REMARK    4  A    between atoms: C_17  and  O_18 
ROOT
HETATM    1  C   UNL     1      25.618  47.117  53.577  1.00  0.00     0.071 C 
HETATM    2  C   UNL     1      26.585  45.998  53.285  1.00  0.00     0.045 A 
HETATM    3  N   UNL     1      27.516  45.825  54.286  1.00  0.00    -0.234 NA
HETATM    4  C   UNL     1      28.388  44.876  54.170  1.00  0.00     0.141 A 
HETATM    5  N   UNL     1      28.448  44.075  53.062  1.00  0.00    -0.307 N 
HETATM    6  C   UNL     1      27.558  44.183  52.044  1.00  0.00     0.255 A 
HETATM    7  O   UNL     1      27.587  43.427  51.074  1.00  0.00    -0.268 OA
HETATM    8  C   UNL     1      26.519  45.228  52.180  1.00  0.00     0.039 A 
HETATM    9  H   UNL     1      29.156  43.369  52.945  1.00  0.00     0.170 HD
ENDROOT
BRANCH   8  10
HETATM   10  C   UNL     1      25.521  45.312  51.053  1.00  0.00     0.088 C 
BRANCH  10  11
HETATM   11  C   UNL     1      25.612  46.600  50.257  1.00  0.00    -0.020 A 
HETATM   12  C   UNL     1      26.775  47.005  49.561  1.00  0.00     0.074 A 
HETATM   13  C   UNL     1      26.793  48.166  48.785  1.00  0.00     0.074 A 
HETATM   14  C   UNL     1      25.648  48.929  48.732  1.00  0.00     0.077 A 
HETATM   15  C   UNL     1      24.511  48.582  49.436  1.00  0.00    -0.022 A 
HETATM   16  O   UNL     1      25.524  50.097  48.025  1.00  0.00    -0.350 OA
HETATM   17  C   UNL     1      23.493  49.643  49.266  1.00  0.00     0.068 C 
HETATM   18  C   UNL     1      24.473  47.430  50.204  1.00  0.00     0.020 A 
HETATM   19  C   UNL     1      24.102  50.362  48.062  1.00  0.00     0.180 C 
BRANCH  12  20
HETATM   20  O   UNL     1      27.957  46.320  49.591  1.00  0.00    -0.360 OA
HETATM   21  H   UNL     1      28.257  46.154  50.506  1.00  0.00     0.217 HD
ENDBRANCH  12  20
ENDBRANCH  10  11
ENDBRANCH   8  10
BRANCH   4  22
HETATM   22  C   UNL     1      29.384  44.616  55.247  1.00  0.00     0.010 A 
HETATM   23  C   UNL     1      29.575  45.510  56.310  1.00  0.00     0.015 A 
HETATM   24  C   UNL     1      30.532  45.239  57.291  1.00  0.00     0.001 A 
HETATM   25  C   UNL     1      31.309  44.084  57.211  1.00  0.00     0.000 A 
HETATM   26  C   UNL     1      31.136  43.200  56.148  1.00  0.00     0.001 A 
HETATM   27  C   UNL     1      30.179  43.466  55.167  1.00  0.00     0.015 A 
ENDBRANCH   4  22
TORSDOF 4
ENDMDL
MODEL 6
REMARK VINA RESULT:      -8.6      1.597      2.328
REMARK  4 active torsions:
REMARK  status: ('A' for Active; 'I' for Inactive)
REMARK    1  A    between atoms: C_4  and  C_5 
REMARK    2  A    between atoms: C_14  and  C_15 
REMARK    3  A    between atoms: C_15  and  C_16 
REMARK    4  A    between atoms: C_17  and  O_18 
ROOT
HETATM    1  C   UNL     1      28.574  41.645  51.949  1.00  0.00     0.071 C 
HETATM    2  C   UNL     1      28.161  42.744  52.895  1.00  0.00     0.045 A 
HETATM    3  N   UNL     1      29.065  42.932  53.918  1.00  0.00    -0.234 NA
HETATM    4  C   UNL     1      28.840  43.866  54.785  1.00  0.00     0.141 A 
HETATM    5  N   UNL     1      27.709  44.635  54.747  1.00  0.00    -0.307 N 
HETATM    6  C   UNL     1      26.782  44.511  53.764  1.00  0.00     0.255 A 
HETATM    7  O   UNL     1      25.792  45.239  53.709  1.00  0.00    -0.268 OA
HETATM    8  C   UNL     1      27.045  43.483  52.732  1.00  0.00     0.039 A 
HETATM    9  H   UNL     1      27.505  45.330  55.449  1.00  0.00     0.170 HD
ENDROOT
BRANCH   8  10
HETATM   10  C   UNL     1      26.020  43.380  51.632  1.00  0.00     0.088 C 
BRANCH  10  11
HETATM   11  C   UNL     1      25.750  44.697  50.929  1.00  0.00    -0.020 A 
HETATM   12  C   UNL     1      24.454  45.233  50.751  1.00  0.00     0.074 A 
HETATM   13  C   UNL     1      24.256  46.482  50.158  1.00  0.00     0.074 A 
HETATM   14  C   UNL     1      25.362  47.176  49.723  1.00  0.00     0.077 A 
HETATM   15  C   UNL     1      26.638  46.659  49.844  1.00  0.00    -0.022 A 
HETATM   16  O   UNL     1      25.321  48.403  49.112  1.00  0.00    -0.350 OA
HETATM   17  C   UNL     1      27.598  47.580  49.196  1.00  0.00     0.068 C 
HETATM   18  C   UNL     1      26.853  45.426  50.437  1.00  0.00     0.020 A 
HETATM   19  C   UNL     1      26.707  48.818  49.099  1.00  0.00     0.180 C 
BRANCH  12  20
HETATM   20  O   UNL     1      23.306  44.591  51.126  1.00  0.00    -0.360 OA
HETATM   21  H   UNL     1      22.987  44.899  51.996  1.00  0.00     0.217 HD
ENDBRANCH  12  20
ENDBRANCH  10  11
ENDBRANCH   8  10
BRANCH   4  22
HETATM   22  C   UNL     1      29.811  44.144  55.880  1.00  0.00     0.010 A 
HETATM   23  C   UNL     1      29.804  45.354  56.586  1.00  0.00     0.015 A 
HETATM   24  C   UNL     1      30.743  45.583  57.594  1.00  0.00     0.001 A 
HETATM   25  C   UNL     1      31.697  44.613  57.896  1.00  0.00     0.000 A 
HETATM   26  C   UNL     1      31.721  43.414  57.187  1.00  0.00     0.001 A 
HETATM   27  C   UNL     1      30.782  43.180  56.180  1.00  0.00     0.015 A 
ENDBRANCH   4  22
TORSDOF 4
ENDMDL
MODEL 7
REMARK VINA RESULT:      -8.6      3.053      7.868
REMARK  4 active torsions:
REMARK  status: ('A' for Active; 'I' for Inactive)
REMARK    1  A    between atoms: C_4  and  C_5 
REMARK    2  A    between atoms: C_14  and  C_15 
REMARK    3  A    between atoms: C_15  and  C_16 
REMARK    4  A    between atoms: C_17  and  O_18 
ROOT
HETATM    1  C   UNL     1      27.341  45.792  49.660  1.00  0.00     0.071 C 
HETATM    2  C   UNL     1      25.841  45.714  49.774  1.00  0.00     0.045 A 
HETATM    3  N   UNL     1      25.215  46.868  49.356  1.00  0.00    -0.234 NA
HETATM    4  C   UNL     1      23.922  46.921  49.378  1.00  0.00     0.141 A 
HETATM    5  N   UNL     1      23.161  45.888  49.853  1.00  0.00    -0.307 N 
HETATM    6  C   UNL     1      23.709  44.719  50.272  1.00  0.00     0.255 A 
HETATM    7  O   UNL     1      23.016  43.777  50.651  1.00  0.00    -0.268 OA
HETATM    8  C   UNL     1      25.184  44.618  50.206  1.00  0.00     0.039 A 
HETATM    9  H   UNL     1      22.157  45.944  49.919  1.00  0.00     0.170 HD
ENDROOT
BRANCH   8  10
HETATM   10  C   UNL     1      25.772  43.302  50.648  1.00  0.00     0.088 C 
BRANCH  10  11
HETATM   11  C   UNL     1      26.618  43.406  51.902  1.00  0.00    -0.020 A 
HETATM   12  C   UNL     1      26.085  43.689  53.180  1.00  0.00     0.074 A 
HETATM   13  C   UNL     1      26.892  43.708  54.320  1.00  0.00     0.074 A 
HETATM   14  C   UNL     1      28.238  43.467  54.165  1.00  0.00     0.077 A 
HETATM   15  C   UNL     1      28.796  43.231  52.922  1.00  0.00    -0.022 A 
HETATM   16  O   UNL     1      29.152  43.467  55.188  1.00  0.00    -0.350 OA
HETATM   17  C   UNL     1      30.264  43.115  53.065  1.00  0.00     0.068 C 
HETATM   18  C   UNL     1      28.009  43.200  51.784  1.00  0.00     0.020 A 
HETATM   19  C   UNL     1      30.339  42.909  54.578  1.00  0.00     0.180 C 
BRANCH  12  20
HETATM   20  O   UNL     1      24.767  43.970  53.410  1.00  0.00    -0.360 OA
HETATM   21  H   UNL     1      24.657  44.645  54.108  1.00  0.00     0.217 HD
ENDBRANCH  12  20
ENDBRANCH  10  11
ENDBRANCH   8  10
BRANCH   4  22
HETATM   22  C   UNL     1      23.197  48.127  48.889  1.00  0.00     0.010 A 
HETATM   23  C   UNL     1      21.798  48.168  48.812  1.00  0.00     0.015 A 
HETATM   24  C   UNL     1      21.156  49.311  48.330  1.00  0.00     0.001 A 
HETATM   25  C   UNL     1      21.903  50.411  47.914  1.00  0.00     0.000 A 
HETATM   26  C   UNL     1      23.295  50.371  47.971  1.00  0.00     0.001 A 
HETATM   27  C   UNL     1      23.941  49.231  48.454  1.00  0.00     0.015 A 
ENDBRANCH   4  22
TORSDOF 4
ENDMDL
MODEL 8
REMARK VINA RESULT:      -8.5      3.065      8.150
REMARK  4 active torsions:
REMARK  status: ('A' for Active; 'I' for Inactive)
REMARK    1  A    between atoms: C_4  and  C_5 
REMARK    2  A    between atoms: C_14  and  C_15 
REMARK    3  A    between atoms: C_15  and  C_16 
REMARK    4  A    between atoms: C_17  and  O_18 
ROOT
HETATM    1  C   UNL     1      26.952  48.633  49.448  1.00  0.00     0.071 C 
HETATM    2  C   UNL     1      25.563  48.052  49.522  1.00  0.00     0.045 A 
HETATM    3  N   UNL     1      24.582  48.989  49.279  1.00  0.00    -0.234 NA
HETATM    4  C   UNL     1      23.344  48.611  49.285  1.00  0.00     0.141 A 
HETATM    5  N   UNL     1      22.978  47.326  49.580  1.00  0.00    -0.307 N 
HETATM    6  C   UNL     1      23.890  46.351  49.820  1.00  0.00     0.255 A 
HETATM    7  O   UNL     1      23.555  45.187  50.035  1.00  0.00    -0.268 OA
HETATM    8  C   UNL     1      25.315  46.750  49.766  1.00  0.00     0.039 A 
HETATM    9  H   UNL     1      22.013  47.040  49.636  1.00  0.00     0.170 HD
ENDROOT
BRANCH   8  10
HETATM   10  C   UNL     1      26.314  45.647  50.006  1.00  0.00     0.088 C 
BRANCH  10  11
HETATM   11  C   UNL     1      26.711  45.495  51.462  1.00  0.00    -0.020 A 
HETATM   12  C   UNL     1      27.379  44.357  51.972  1.00  0.00     0.074 A 
HETATM   13  C   UNL     1      27.787  44.288  53.306  1.00  0.00     0.074 A 
HETATM   14  C   UNL     1      27.499  45.353  54.128  1.00  0.00     0.077 A 
HETATM   15  C   UNL     1      26.808  46.459  53.670  1.00  0.00    -0.022 A 
HETATM   16  O   UNL     1      27.824  45.420  55.459  1.00  0.00    -0.350 OA
HETATM   17  C   UNL     1      26.560  47.379  54.802  1.00  0.00     0.068 C 
HETATM   18  C   UNL     1      26.405  46.548  52.348  1.00  0.00     0.020 A 
HETATM   19  C   UNL     1      27.564  46.801  55.800  1.00  0.00     0.180 C 
BRANCH  12  20
HETATM   20  O   UNL     1      27.672  43.249  51.227  1.00  0.00    -0.360 OA
HETATM   21  H   UNL     1      26.863  42.796  50.919  1.00  0.00     0.217 HD
ENDBRANCH  12  20
ENDBRANCH  10  11
ENDBRANCH   8  10
BRANCH   4  22
HETATM   22  C   UNL     1      22.249  49.573  48.978  1.00  0.00     0.010 A 
HETATM   23  C   UNL     1      21.743  50.452  49.946  1.00  0.00     0.015 A 
HETATM   24  C   UNL     1      20.703  51.327  49.623  1.00  0.00     0.001 A 
HETATM   25  C   UNL     1      20.156  51.322  48.341  1.00  0.00     0.000 A 
HETATM   26  C   UNL     1      20.642  50.439  47.379  1.00  0.00     0.001 A 
HETATM   27  C   UNL     1      21.683  49.565  47.697  1.00  0.00     0.015 A 
ENDBRANCH   4  22
TORSDOF 4
ENDMDL
MODEL 9
REMARK VINA RESULT:      -8.4     11.942     13.784
REMARK  4 active torsions:
REMARK  status: ('A' for Active; 'I' for Inactive)
REMARK    1  A    between atoms: C_4  and  C_5 
REMARK    2  A    between atoms: C_14  and  C_15 
REMARK    3  A    between atoms: C_15  and  C_16 
REMARK    4  A    between atoms: C_17  and  O_18 
ROOT
HETATM    1  C   UNL     1      32.151  52.096  44.541  1.00  0.00     0.071 C 
HETATM    2  C   UNL     1      33.293  51.618  43.681  1.00  0.00     0.045 A 
HETATM    3  N   UNL     1      34.466  52.296  43.931  1.00  0.00    -0.234 NA
HETATM    4  C   UNL     1      35.532  51.962  43.277  1.00  0.00     0.141 A 
HETATM    5  N   UNL     1      35.517  50.994  42.309  1.00  0.00    -0.307 N 
HETATM    6  C   UNL     1      34.400  50.280  42.018  1.00  0.00     0.255 A 
HETATM    7  O   UNL     1      34.406  49.379  41.182  1.00  0.00    -0.268 OA
HETATM    8  C   UNL     1      33.182  50.611  42.791  1.00  0.00     0.039 A 
HETATM    9  H   UNL     1      36.332  50.766  41.762  1.00  0.00     0.170 HD
ENDROOT
BRANCH   8  10
HETATM   10  C   UNL     1      31.960  49.787  42.475  1.00  0.00     0.088 C 
BRANCH  10  11
HETATM   11  C   UNL     1      31.302  50.159  41.160  1.00  0.00    -0.020 A 
HETATM   12  C   UNL     1      31.297  49.315  40.025  1.00  0.00     0.074 A 
HETATM   13  C   UNL     1      30.620  49.669  38.856  1.00  0.00     0.074 A 
HETATM   14  C   UNL     1      29.971  50.882  38.824  1.00  0.00     0.077 A 
HETATM   15  C   UNL     1      29.995  51.748  39.902  1.00  0.00    -0.022 A 
HETATM   16  O   UNL     1      29.279  51.367  37.744  1.00  0.00    -0.350 OA
HETATM   17  C   UNL     1      29.305  53.003  39.530  1.00  0.00     0.068 C 
HETATM   18  C   UNL     1      30.654  51.409  41.071  1.00  0.00     0.020 A 
HETATM   19  C   UNL     1      28.574  52.509  38.282  1.00  0.00     0.180 C 
BRANCH  12  20
HETATM   20  O   UNL     1      31.944  48.112  39.969  1.00  0.00    -0.360 OA
HETATM   21  H   UNL     1      31.890  47.631  40.817  1.00  0.00     0.217 HD
ENDBRANCH  12  20
ENDBRANCH  10  11
ENDBRANCH   8  10
BRANCH   4  22
HETATM   22  C   UNL     1      36.836  52.630  43.545  1.00  0.00     0.010 A 
HETATM   23  C   UNL     1      37.952  52.433  42.720  1.00  0.00     0.015 A 
HETATM   24  C   UNL     1      39.163  53.063  43.016  1.00  0.00     0.001 A 
HETATM   25  C   UNL     1      39.270  53.881  44.140  1.00  0.00     0.000 A 
HETATM   26  C   UNL     1      38.170  54.068  44.974  1.00  0.00     0.001 A 
HETATM   27  C   UNL     1      36.957  53.442  44.680  1.00  0.00     0.015 A 
ENDBRANCH   4  22
TORSDOF 4
ENDMDL
MODEL 10
REMARK VINA RESULT:      -8.4     11.527     13.559
REMARK  4 active torsions:
REMARK  status: ('A' for Active; 'I' for Inactive)
REMARK    1  A    between atoms: C_4  and  C_5 
REMARK    2  A    between atoms: C_14  and  C_15 
REMARK    3  A    between atoms: C_15  and  C_16 
REMARK    4  A    between atoms: C_17  and  O_18 
ROOT
HETATM    1  C   UNL     1      32.280  51.781  43.620  1.00  0.00     0.071 C 
HETATM    2  C   UNL     1      33.029  50.774  42.785  1.00  0.00     0.045 A 
HETATM    3  N   UNL     1      34.361  51.093  42.637  1.00  0.00    -0.234 NA
HETATM    4  C   UNL     1      35.123  50.292  41.964  1.00  0.00     0.141 A 
HETATM    5  N   UNL     1      34.636  49.170  41.350  1.00  0.00    -0.307 N 
HETATM    6  C   UNL     1      33.338  48.791  41.461  1.00  0.00     0.255 A 
HETATM    7  O   UNL     1      32.918  47.755  40.948  1.00  0.00    -0.268 OA
HETATM    8  C   UNL     1      32.460  49.665  42.271  1.00  0.00     0.039 A 
HETATM    9  H   UNL     1      35.215  48.572  40.783  1.00  0.00     0.170 HD
ENDROOT
BRANCH   8  10
HETATM   10  C   UNL     1      31.029  49.212  42.408  1.00  0.00     0.088 C 
BRANCH  10  11
HETATM   11  C   UNL     1      30.087  49.870  41.418  1.00  0.00    -0.020 A 
HETATM   12  C   UNL     1      28.679  49.856  41.556  1.00  0.00     0.074 A 
HETATM   13  C   UNL     1      27.852  50.533  40.657  1.00  0.00     0.074 A 
HETATM   14  C   UNL     1      28.443  51.200  39.608  1.00  0.00     0.077 A 
HETATM   15  C   UNL     1      29.812  51.195  39.422  1.00  0.00    -0.022 A 
HETATM   16  O   UNL     1      27.759  51.894  38.643  1.00  0.00    -0.350 OA
HETATM   17  C   UNL     1      30.133  51.902  38.163  1.00  0.00     0.068 C 
HETATM   18  C   UNL     1      30.648  50.536  40.309  1.00  0.00     0.020 A 
HETATM   19  C   UNL     1      28.801  52.620  37.949  1.00  0.00     0.180 C 
BRANCH  12  20
HETATM   20  O   UNL     1      28.018  49.190  42.550  1.00  0.00    -0.360 OA
HETATM   21  H   UNL     1      27.436  48.492  42.193  1.00  0.00     0.217 HD
ENDBRANCH  12  20
ENDBRANCH  10  11
ENDBRANCH   8  10
BRANCH   4  22
HETATM   22  C   UNL     1      36.580  50.565  41.817  1.00  0.00     0.010 A 
HETATM   23  C   UNL     1      37.477  50.389  42.880  1.00  0.00     0.015 A 
HETATM   24  C   UNL     1      38.834  50.674  42.707  1.00  0.00     0.001 A 
HETATM   25  C   UNL     1      39.300  51.144  41.481  1.00  0.00     0.000 A 
HETATM   26  C   UNL     1      38.412  51.337  40.425  1.00  0.00     0.001 A 
HETATM   27  C   UNL     1      37.055  51.052  40.592  1.00  0.00     0.015 A 
ENDBRANCH   4  22
TORSDOF 4
ENDMDL
