MODEL 1
REMARK VINA RESULT:      -8.8      0.000      0.000
REMARK  4 active torsions:
REMARK  status: ('A' for Active; 'I' for Inactive)
REMARK    1  A    between atoms: C_2  and  C_3 
REMARK    2  A    between atoms: C_7  and  N_8 
REMARK    3  A    between atoms: C_10  and  C_11 
REMARK    4  A    between atoms: C_21  and  C_22 
ROOT
HETATM    1  C   UNL     1      24.780  45.821  50.145  1.00  0.00     0.079 A 
HETATM    2  S   UNL     1      25.411  46.540  51.562  1.00  0.00    -0.064 SA
HETATM    3  C   UNL     1      26.427  45.215  51.874  1.00  0.00     0.112 A 
HETATM    4  C   UNL     1      26.320  44.204  50.928  1.00  0.00     0.043 A 
HETATM    5  C   UNL     1      25.346  44.572  49.934  1.00  0.00     0.060 A 
HETATM    6  N   UNL     1      27.229  45.238  52.954  1.00  0.00    -0.240 NA
HETATM    7  C   UNL     1      28.027  44.166  53.113  1.00  0.00     0.069 A 
HETATM    8  C   UNL     1      28.015  43.088  52.233  1.00  0.00     0.049 A 
HETATM    9  C   UNL     1      27.157  43.074  51.113  1.00  0.00     0.065 A 
ENDROOT
BRANCH   7  10
HETATM   10  C   UNL     1      28.915  44.215  54.295  1.00  0.00    -0.004 A 
HETATM   11  C   UNL     1      28.760  45.233  55.259  1.00  0.00     0.053 A 
HETATM   12  C   UNL     1      29.603  45.256  56.352  1.00  0.00     0.106 A 
HETATM   13  C   UNL     1      30.589  44.317  56.525  1.00  0.00     0.105 A 
HETATM   14  O   UNL     1      29.573  46.168  57.360  1.00  0.00    -0.323 OA
HETATM   15  O   UNL     1      31.307  44.519  57.661  1.00  0.00    -0.323 OA
HETATM   16  C   UNL     1      30.790  43.307  55.614  1.00  0.00     0.040 A 
HETATM   17  C   UNL     1      30.662  45.701  58.182  1.00  0.00     0.352 A 
HETATM   18  C   UNL     1      29.948  43.261  54.494  1.00  0.00     0.017 A 
ENDBRANCH   7  10
BRANCH   9  19
HETATM   19  C   UNL     1      27.210  41.909  50.162  1.00  0.00     0.418 C 
HETATM   20  F   UNL     1      27.453  42.271  48.870  1.00  0.00    -0.166 F 
HETATM   21  F   UNL     1      28.174  41.008  50.490  1.00  0.00    -0.166 F 
HETATM   22  F   UNL     1      26.045  41.200  50.123  1.00  0.00    -0.166 F 
ENDBRANCH   9  19
BRANCH   1  23
HETATM   23  C   UNL     1      23.761  46.486  49.335  1.00  0.00     0.164 C 
HETATM   24  C   UNL     1      23.598  47.986  49.440  1.00  0.00     0.097 C 
HETATM   25  O   UNL     1      23.021  45.862  48.567  1.00  0.00    -0.292 OA
ENDBRANCH   1  23
BRANCH   5  26
HETATM   26  N   UNL     1      25.005  43.792  48.881  1.00  0.00    -0.397 N 
HETATM   27  H   UNL     1      25.194  42.791  48.854  1.00  0.00     0.156 HD
HETATM   28  H   UNL     1      24.163  44.026  48.343  1.00  0.00     0.156 HD
ENDBRANCH   5  26
TORSDOF 4
ENDMDL
MODEL 2
REMARK VINA RESULT:      -8.8      2.104      7.360
REMARK  4 active torsions:
REMARK  status: ('A' for Active; 'I' for Inactive)
REMARK    1  A    between atoms: C_2  and  C_3 
REMARK    2  A    between atoms: C_7  and  N_8 
REMARK    3  A    between atoms: C_10  and  C_11 
REMARK    4  A    between atoms: C_21  and  C_22 
ROOT
HETATM    1  C   UNL     1      29.709  45.094  56.291  1.00  0.00     0.079 A 
HETATM    2  S   UNL     1      28.550  46.238  55.773  1.00  0.00    -0.064 SA
HETATM    3  C   UNL     1      28.170  45.339  54.383  1.00  0.00     0.112 A 
HETATM    4  C   UNL     1      28.899  44.162  54.273  1.00  0.00     0.043 A 
HETATM    5  C   UNL     1      29.799  44.044  55.390  1.00  0.00     0.060 A 
HETATM    6  N   UNL     1      27.233  45.799  53.534  1.00  0.00    -0.240 NA
HETATM    7  C   UNL     1      26.966  45.012  52.475  1.00  0.00     0.069 A 
HETATM    8  C   UNL     1      27.627  43.808  52.253  1.00  0.00     0.049 A 
HETATM    9  C   UNL     1      28.618  43.347  53.146  1.00  0.00     0.065 A 
ENDROOT
BRANCH   7  10
HETATM   10  C   UNL     1      25.922  45.525  51.561  1.00  0.00    -0.004 A 
HETATM   11  C   UNL     1      25.899  46.888  51.200  1.00  0.00     0.053 A 
HETATM   12  C   UNL     1      24.913  47.339  50.346  1.00  0.00     0.106 A 
HETATM   13  C   UNL     1      23.951  46.499  49.843  1.00  0.00     0.105 A 
HETATM   14  O   UNL     1      24.765  48.617  49.906  1.00  0.00    -0.323 OA
HETATM   15  O   UNL     1      23.075  47.140  49.026  1.00  0.00    -0.323 OA
HETATM   16  C   UNL     1      23.920  45.163  50.169  1.00  0.00     0.040 A 
HETATM   17  C   UNL     1      23.592  48.486  49.078  1.00  0.00     0.352 A 
HETATM   18  C   UNL     1      24.910  44.678  51.034  1.00  0.00     0.017 A 
ENDBRANCH   7  10
BRANCH   9  19
HETATM   19  C   UNL     1      29.275  42.018  52.891  1.00  0.00     0.418 C 
HETATM   20  F   UNL     1      30.637  42.078  52.881  1.00  0.00    -0.166 F 
HETATM   21  F   UNL     1      28.943  41.083  53.821  1.00  0.00    -0.166 F 
HETATM   22  F   UNL     1      28.930  41.475  51.688  1.00  0.00    -0.166 F 
ENDBRANCH   9  19
BRANCH   1  23
HETATM   23  C   UNL     1      30.481  45.285  57.518  1.00  0.00     0.164 C 
HETATM   24  C   UNL     1      30.136  46.437  58.435  1.00  0.00     0.097 C 
HETATM   25  O   UNL     1      31.414  44.538  57.831  1.00  0.00    -0.292 OA
ENDBRANCH   1  23
BRANCH   5  26
HETATM   26  N   UNL     1      30.655  43.010  55.568  1.00  0.00    -0.397 N 
HETATM   27  H   UNL     1      30.355  42.102  55.921  1.00  0.00     0.156 HD
HETATM   28  H   UNL     1      31.457  42.916  54.935  1.00  0.00     0.156 HD
ENDBRANCH   5  26
TORSDOF 4
ENDMDL
MODEL 3
REMARK VINA RESULT:      -8.7      2.652      3.797
REMARK  4 active torsions:
REMARK  status: ('A' for Active; 'I' for Inactive)
REMARK    1  A    between atoms: C_2  and  C_3 
REMARK    2  A    between atoms: C_7  and  N_8 
REMARK    3  A    between atoms: C_10  and  C_11 
REMARK    4  A    between atoms: C_21  and  C_22 
ROOT
HETATM    1  C   UNL     1      26.958  41.209  49.466  1.00  0.00     0.079 A 
HETATM    2  S   UNL     1      28.029  40.746  50.715  1.00  0.00    -0.064 SA
HETATM    3  C   UNL     1      27.941  42.270  51.460  1.00  0.00     0.112 A 
HETATM    4  C   UNL     1      27.109  43.161  50.794  1.00  0.00     0.043 A 
HETATM    5  C   UNL     1      26.554  42.526  49.628  1.00  0.00     0.060 A 
HETATM    6  N   UNL     1      28.639  42.495  52.588  1.00  0.00    -0.240 NA
HETATM    7  C   UNL     1      28.491  43.716  53.134  1.00  0.00     0.069 A 
HETATM    8  C   UNL     1      27.685  44.697  52.565  1.00  0.00     0.049 A 
HETATM    9  C   UNL     1      26.970  44.449  51.373  1.00  0.00     0.065 A 
ENDROOT
BRANCH   7  10
HETATM   10  C   UNL     1      29.252  43.942  54.382  1.00  0.00    -0.004 A 
HETATM   11  C   UNL     1      28.959  45.050  55.204  1.00  0.00     0.053 A 
HETATM   12  C   UNL     1      29.685  45.237  56.363  1.00  0.00     0.106 A 
HETATM   13  C   UNL     1      30.687  44.376  56.736  1.00  0.00     0.105 A 
HETATM   14  O   UNL     1      29.515  46.251  57.253  1.00  0.00    -0.323 OA
HETATM   15  O   UNL     1      31.277  44.739  57.905  1.00  0.00    -0.323 OA
HETATM   16  C   UNL     1      31.021  43.284  55.969  1.00  0.00     0.040 A 
HETATM   17  C   UNL     1      30.535  45.935  58.223  1.00  0.00     0.352 A 
HETATM   18  C   UNL     1      30.299  43.071  54.787  1.00  0.00     0.017 A 
ENDBRANCH   7  10
BRANCH   9  19
HETATM   19  C   UNL     1      26.075  45.522  50.817  1.00  0.00     0.418 C 
HETATM   20  F   UNL     1      24.764  45.155  50.748  1.00  0.00    -0.166 F 
HETATM   21  F   UNL     1      26.110  46.666  51.551  1.00  0.00    -0.166 F 
HETATM   22  F   UNL     1      26.411  45.891  49.547  1.00  0.00    -0.166 F 
ENDBRANCH   9  19
BRANCH   1  23
HETATM   23  C   UNL     1      26.588  40.289  48.392  1.00  0.00     0.164 C 
HETATM   24  C   UNL     1      27.659  39.437  47.749  1.00  0.00     0.097 C 
HETATM   25  O   UNL     1      25.426  40.187  47.984  1.00  0.00    -0.292 OA
ENDBRANCH   1  23
BRANCH   5  26
HETATM   26  N   UNL     1      25.710  43.135  48.762  1.00  0.00    -0.397 N 
HETATM   27  H   UNL     1      26.038  43.674  47.961  1.00  0.00     0.156 HD
HETATM   28  H   UNL     1      24.799  42.703  48.572  1.00  0.00     0.156 HD
ENDBRANCH   5  26
TORSDOF 4
ENDMDL
MODEL 4
REMARK VINA RESULT:      -8.7      4.177      7.086
REMARK  4 active torsions:
REMARK  status: ('A' for Active; 'I' for Inactive)
REMARK    1  A    between atoms: C_2  and  C_3 
REMARK    2  A    between atoms: C_7  and  N_8 
REMARK    3  A    between atoms: C_10  and  C_11 
REMARK    4  A    between atoms: C_21  and  C_22 
ROOT
HETATM    1  C   UNL     1      27.925  39.724  49.932  1.00  0.00     0.079 A 
HETATM    2  S   UNL     1      27.002  40.791  48.967  1.00  0.00    -0.064 SA
HETATM    3  C   UNL     1      27.275  42.099  50.016  1.00  0.00     0.112 A 
HETATM    4  C   UNL     1      28.063  41.771  51.112  1.00  0.00     0.043 A 
HETATM    5  C   UNL     1      28.422  40.378  51.050  1.00  0.00     0.060 A 
HETATM    6  N   UNL     1      26.746  43.301  49.725  1.00  0.00    -0.240 NA
HETATM    7  C   UNL     1      27.035  44.293  50.588  1.00  0.00     0.069 A 
HETATM    8  C   UNL     1      27.815  44.093  51.722  1.00  0.00     0.049 A 
HETATM    9  C   UNL     1      28.351  42.822  52.021  1.00  0.00     0.065 A 
ENDROOT
BRANCH   7  10
HETATM   10  C   UNL     1      26.459  45.611  50.244  1.00  0.00    -0.004 A 
HETATM   11  C   UNL     1      27.234  46.568  49.555  1.00  0.00     0.053 A 
HETATM   12  C   UNL     1      26.671  47.790  49.248  1.00  0.00     0.106 A 
HETATM   13  C   UNL     1      25.382  48.102  49.597  1.00  0.00     0.105 A 
HETATM   14  O   UNL     1      27.289  48.806  48.586  1.00  0.00    -0.323 OA
HETATM   15  O   UNL     1      25.023  49.353  49.204  1.00  0.00    -0.323 OA
HETATM   16  C   UNL     1      24.584  47.212  50.277  1.00  0.00     0.040 A 
HETATM   17  C   UNL     1      26.242  49.797  48.571  1.00  0.00     0.352 A 
HETATM   18  C   UNL     1      25.130  45.963  50.602  1.00  0.00     0.017 A 
ENDBRANCH   7  10
BRANCH   9  19
HETATM   19  C   UNL     1      29.227  42.661  53.233  1.00  0.00     0.418 C 
HETATM   20  F   UNL     1      28.787  41.703  54.098  1.00  0.00    -0.166 F 
HETATM   21  F   UNL     1      30.506  42.326  52.915  1.00  0.00    -0.166 F 
HETATM   22  F   UNL     1      29.321  43.800  53.978  1.00  0.00    -0.166 F 
ENDBRANCH   9  19
BRANCH   1  23
HETATM   23  C   UNL     1      28.097  38.318  49.573  1.00  0.00     0.164 C 
HETATM   24  C   UNL     1      26.873  37.450  49.386  1.00  0.00     0.097 C 
HETATM   25  O   UNL     1      29.213  37.809  49.423  1.00  0.00    -0.292 OA
ENDBRANCH   1  23
BRANCH   5  26
HETATM   26  N   UNL     1      29.179  39.749  51.979  1.00  0.00    -0.397 N 
HETATM   27  H   UNL     1      29.111  38.747  52.158  1.00  0.00     0.156 HD
HETATM   28  H   UNL     1      30.128  40.095  52.164  1.00  0.00     0.156 HD
ENDBRANCH   5  26
TORSDOF 4
ENDMDL
MODEL 5
REMARK VINA RESULT:      -8.6      2.432      2.714
REMARK  4 active torsions:
REMARK  status: ('A' for Active; 'I' for Inactive)
REMARK    1  A    between atoms: C_2  and  C_3 
REMARK    2  A    between atoms: C_7  and  N_8 
REMARK    3  A    between atoms: C_10  and  C_11 
REMARK    4  A    between atoms: C_21  and  C_22 
ROOT
HETATM    1  C   UNL     1      24.202  42.140  49.467  1.00  0.00     0.079 A 
HETATM    2  S   UNL     1      24.481  43.315  50.676  1.00  0.00    -0.064 SA
HETATM    3  C   UNL     1      25.943  42.593  51.150  1.00  0.00     0.112 A 
HETATM    4  C   UNL     1      26.260  41.457  50.416  1.00  0.00     0.043 A 
HETATM    5  C   UNL     1      25.225  41.204  49.448  1.00  0.00     0.060 A 
HETATM    6  N   UNL     1      26.662  43.146  52.144  1.00  0.00    -0.240 NA
HETATM    7  C   UNL     1      27.823  42.533  52.438  1.00  0.00     0.069 A 
HETATM    8  C   UNL     1      28.253  41.388  51.774  1.00  0.00     0.049 A 
HETATM    9  C   UNL     1      27.481  40.813  50.743  1.00  0.00     0.065 A 
ENDROOT
BRANCH   7  10
HETATM   10  C   UNL     1      28.609  43.164  53.522  1.00  0.00    -0.004 A 
HETATM   11  C   UNL     1      28.085  44.264  54.232  1.00  0.00     0.053 A 
HETATM   12  C   UNL     1      28.839  44.834  55.238  1.00  0.00     0.106 A 
HETATM   13  C   UNL     1      30.086  44.362  55.563  1.00  0.00     0.105 A 
HETATM   14  O   UNL     1      28.467  45.890  56.009  1.00  0.00    -0.323 OA
HETATM   15  O   UNL     1      30.660  45.062  56.577  1.00  0.00    -0.323 OA
HETATM   16  C   UNL     1      30.650  43.298  54.898  1.00  0.00     0.040 A 
HETATM   17  C   UNL     1      29.631  46.037  56.849  1.00  0.00     0.352 A 
HETATM   18  C   UNL     1      29.905  42.700  53.872  1.00  0.00     0.017 A 
ENDBRANCH   7  10
BRANCH   9  19
HETATM   19  C   UNL     1      28.005  39.601  50.021  1.00  0.00     0.418 C 
HETATM   20  F   UNL     1      28.295  39.833  48.709  1.00  0.00    -0.166 F 
HETATM   21  F   UNL     1      29.144  39.111  50.580  1.00  0.00    -0.166 F 
HETATM   22  F   UNL     1      27.122  38.561  50.016  1.00  0.00    -0.166 F 
ENDBRANCH   9  19
BRANCH   1  23
HETATM   23  C   UNL     1      23.007  42.171  48.627  1.00  0.00     0.164 C 
HETATM   24  C   UNL     1      22.578  43.480  48.003  1.00  0.00     0.097 C 
HETATM   25  O   UNL     1      22.327  41.162  48.412  1.00  0.00    -0.292 OA
ENDBRANCH   1  23
BRANCH   5  26
HETATM   26  N   UNL     1      25.235  40.160  48.584  1.00  0.00    -0.397 N 
HETATM   27  H   UNL     1      25.032  39.204  48.873  1.00  0.00     0.156 HD
HETATM   28  H   UNL     1      24.955  40.322  47.610  1.00  0.00     0.156 HD
ENDBRANCH   5  26
TORSDOF 4
ENDMDL
MODEL 6
REMARK VINA RESULT:      -8.3      3.477      7.986
REMARK  4 active torsions:
REMARK  status: ('A' for Active; 'I' for Inactive)
REMARK    1  A    between atoms: C_2  and  C_3 
REMARK    2  A    between atoms: C_7  and  N_8 
REMARK    3  A    between atoms: C_10  and  C_11 
REMARK    4  A    between atoms: C_21  and  C_22 
ROOT
HETATM    1  C   UNL     1      29.557  44.393  55.319  1.00  0.00     0.079 A 
HETATM    2  S   UNL     1      29.401  42.987  54.360  1.00  0.00    -0.064 SA
HETATM    3  C   UNL     1      28.078  43.623  53.506  1.00  0.00     0.112 A 
HETATM    4  C   UNL     1      27.722  44.902  53.915  1.00  0.00     0.043 A 
HETATM    5  C   UNL     1      28.590  45.328  54.981  1.00  0.00     0.060 A 
HETATM    6  N   UNL     1      27.502  42.888  52.537  1.00  0.00    -0.240 NA
HETATM    7  C   UNL     1      26.482  43.476  51.885  1.00  0.00     0.069 A 
HETATM    8  C   UNL     1      26.031  44.754  52.199  1.00  0.00     0.049 A 
HETATM    9  C   UNL     1      26.637  45.506  53.228  1.00  0.00     0.065 A 
ENDROOT
BRANCH   7  10
HETATM   10  C   UNL     1      25.872  42.661  50.812  1.00  0.00    -0.004 A 
HETATM   11  C   UNL     1      24.519  42.848  50.458  1.00  0.00     0.053 A 
HETATM   12  C   UNL     1      23.975  42.073  49.454  1.00  0.00     0.106 A 
HETATM   13  C   UNL     1      24.712  41.123  48.793  1.00  0.00     0.105 A 
HETATM   14  O   UNL     1      22.693  42.142  49.003  1.00  0.00    -0.323 OA
HETATM   15  O   UNL     1      23.990  40.471  47.843  1.00  0.00    -0.323 OA
HETATM   16  C   UNL     1      26.032  40.892  49.101  1.00  0.00     0.040 A 
HETATM   17  C   UNL     1      22.707  41.117  47.989  1.00  0.00     0.352 A 
HETATM   18  C   UNL     1      26.610  41.665  50.117  1.00  0.00     0.017 A 
ENDBRANCH   7  10
BRANCH   9  19
HETATM   19  C   UNL     1      26.148  46.901  53.504  1.00  0.00     0.418 C 
HETATM   20  F   UNL     1      25.134  47.295  52.681  1.00  0.00    -0.166 F 
HETATM   21  F   UNL     1      25.686  47.053  54.773  1.00  0.00    -0.166 F 
HETATM   22  F   UNL     1      27.120  47.846  53.352  1.00  0.00    -0.166 F 
ENDBRANCH   9  19
BRANCH   1  23
HETATM   23  C   UNL     1      30.582  44.506  56.355  1.00  0.00     0.164 C 
HETATM   24  C   UNL     1      31.422  43.296  56.697  1.00  0.00     0.097 C 
HETATM   25  O   UNL     1      30.784  45.559  56.968  1.00  0.00    -0.292 OA
ENDBRANCH   1  23
BRANCH   5  26
HETATM   26  N   UNL     1      28.494  46.527  55.603  1.00  0.00    -0.397 N 
HETATM   27  H   UNL     1      29.287  47.160  55.702  1.00  0.00     0.156 HD
HETATM   28  H   UNL     1      27.610  47.044  55.548  1.00  0.00     0.156 HD
ENDBRANCH   5  26
TORSDOF 4
ENDMDL
MODEL 7
REMARK VINA RESULT:      -8.2      3.109      4.562
REMARK  4 active torsions:
REMARK  status: ('A' for Active; 'I' for Inactive)
REMARK    1  A    between atoms: C_2  and  C_3 
REMARK    2  A    between atoms: C_7  and  N_8 
REMARK    3  A    between atoms: C_10  and  C_11 
REMARK    4  A    between atoms: C_21  and  C_22 
ROOT
HETATM    1  C   UNL     1      27.104  39.632  49.716  1.00  0.00     0.079 A 
HETATM    2  S   UNL     1      28.419  39.779  50.798  1.00  0.00    -0.064 SA
HETATM    3  C   UNL     1      27.815  41.221  51.459  1.00  0.00     0.112 A 
HETATM    4  C   UNL     1      26.615  41.628  50.889  1.00  0.00     0.043 A 
HETATM    5  C   UNL     1      26.224  40.693  49.867  1.00  0.00     0.060 A 
HETATM    6  N   UNL     1      28.497  41.834  52.443  1.00  0.00    -0.240 NA
HETATM    7  C   UNL     1      27.935  42.953  52.936  1.00  0.00     0.069 A 
HETATM    8  C   UNL     1      26.735  43.463  52.452  1.00  0.00     0.049 A 
HETATM    9  C   UNL     1      26.039  42.816  51.409  1.00  0.00     0.065 A 
ENDROOT
BRANCH   7  10
HETATM   10  C   UNL     1      28.690  43.605  54.029  1.00  0.00    -0.004 A 
HETATM   11  C   UNL     1      29.705  42.901  54.711  1.00  0.00     0.053 A 
HETATM   12  C   UNL     1      30.392  43.532  55.727  1.00  0.00     0.106 A 
HETATM   13  C   UNL     1      30.114  44.825  56.095  1.00  0.00     0.105 A 
HETATM   14  O   UNL     1      31.394  42.987  56.468  1.00  0.00    -0.323 OA
HETATM   15  O   UNL     1      30.901  45.257  57.116  1.00  0.00    -0.323 OA
HETATM   16  C   UNL     1      29.131  45.555  55.471  1.00  0.00     0.040 A 
HETATM   17  C   UNL     1      31.705  44.082  57.354  1.00  0.00     0.352 A 
HETATM   18  C   UNL     1      28.416  44.938  54.435  1.00  0.00     0.017 A 
ENDBRANCH   7  10
BRANCH   9  19
HETATM   19  C   UNL     1      24.722  43.377  50.946  1.00  0.00     0.418 C 
HETATM   20  F   UNL     1      24.726  43.768  49.640  1.00  0.00    -0.166 F 
HETATM   21  F   UNL     1      23.700  42.489  51.073  1.00  0.00    -0.166 F 
HETATM   22  F   UNL     1      24.336  44.480  51.650  1.00  0.00    -0.166 F 
ENDBRANCH   9  19
BRANCH   1  23
HETATM   23  C   UNL     1      27.007  38.522  48.771  1.00  0.00     0.164 C 
HETATM   24  C   UNL     1      27.090  37.103  49.288  1.00  0.00     0.097 C 
HETATM   25  O   UNL     1      26.865  38.702  47.557  1.00  0.00    -0.292 OA
ENDBRANCH   1  23
BRANCH   5  26
HETATM   26  N   UNL     1      25.102  40.815  49.117  1.00  0.00    -0.397 N 
HETATM   27  H   UNL     1      25.090  41.298  48.220  1.00  0.00     0.156 HD
HETATM   28  H   UNL     1      24.405  40.063  49.144  1.00  0.00     0.156 HD
ENDBRANCH   5  26
TORSDOF 4
ENDMDL
MODEL 8
REMARK VINA RESULT:      -8.2      3.705      8.039
REMARK  4 active torsions:
REMARK  status: ('A' for Active; 'I' for Inactive)
REMARK    1  A    between atoms: C_2  and  C_3 
REMARK    2  A    between atoms: C_7  and  N_8 
REMARK    3  A    between atoms: C_10  and  C_11 
REMARK    4  A    between atoms: C_21  and  C_22 
ROOT
HETATM    1  C   UNL     1      30.041  44.414  55.968  1.00  0.00     0.079 A 
HETATM    2  S   UNL     1      29.918  43.107  54.873  1.00  0.00    -0.064 SA
HETATM    3  C   UNL     1      28.644  43.839  54.022  1.00  0.00     0.112 A 
HETATM    4  C   UNL     1      28.280  45.079  54.534  1.00  0.00     0.043 A 
HETATM    5  C   UNL     1      29.100  45.390  55.675  1.00  0.00     0.060 A 
HETATM    6  N   UNL     1      28.109  43.208  52.961  1.00  0.00    -0.240 NA
HETATM    7  C   UNL     1      27.126  43.869  52.321  1.00  0.00     0.069 A 
HETATM    8  C   UNL     1      26.673  45.117  52.734  1.00  0.00     0.049 A 
HETATM    9  C   UNL     1      27.235  45.760  53.857  1.00  0.00     0.065 A 
ENDROOT
BRANCH   7  10
HETATM   10  C   UNL     1      26.561  43.168  51.147  1.00  0.00    -0.004 A 
HETATM   11  C   UNL     1      27.411  42.678  50.133  1.00  0.00     0.053 A 
HETATM   12  C   UNL     1      26.856  42.029  49.049  1.00  0.00     0.106 A 
HETATM   13  C   UNL     1      25.501  41.850  48.928  1.00  0.00     0.105 A 
HETATM   14  O   UNL     1      27.545  41.501  48.001  1.00  0.00    -0.323 OA
HETATM   15  O   UNL     1      25.162  41.191  47.788  1.00  0.00    -0.323 OA
HETATM   16  C   UNL     1      24.625  42.314  49.881  1.00  0.00     0.040 A 
HETATM   17  C   UNL     1      26.464  40.981  47.201  1.00  0.00     0.352 A 
HETATM   18  C   UNL     1      25.161  42.977  50.993  1.00  0.00     0.017 A 
ENDBRANCH   7  10
BRANCH   9  19
HETATM   19  C   UNL     1      26.746  47.130  54.242  1.00  0.00     0.418 C 
HETATM   20  F   UNL     1      26.192  47.180  55.487  1.00  0.00    -0.166 F 
HETATM   21  F   UNL     1      27.734  48.062  54.229  1.00  0.00    -0.166 F 
HETATM   22  F   UNL     1      25.782  47.606  53.402  1.00  0.00    -0.166 F 
ENDBRANCH   9  19
BRANCH   1  23
HETATM   23  C   UNL     1      31.016  44.414  57.057  1.00  0.00     0.164 C 
HETATM   24  C   UNL     1      32.067  43.328  57.106  1.00  0.00     0.097 C 
HETATM   25  O   UNL     1      31.008  45.271  57.947  1.00  0.00    -0.292 OA
ENDBRANCH   1  23
BRANCH   5  26
HETATM   26  N   UNL     1      28.985  46.526  56.404  1.00  0.00    -0.397 N 
HETATM   27  H   UNL     1      28.084  46.910  56.685  1.00  0.00     0.156 HD
HETATM   28  H   UNL     1      29.715  46.750  57.089  1.00  0.00     0.156 HD
ENDBRANCH   5  26
TORSDOF 4
ENDMDL
MODEL 9
REMARK VINA RESULT:      -8.0      3.854      7.753
REMARK  4 active torsions:
REMARK  status: ('A' for Active; 'I' for Inactive)
REMARK    1  A    between atoms: C_2  and  C_3 
REMARK    2  A    between atoms: C_7  and  N_8 
REMARK    3  A    between atoms: C_10  and  C_11 
REMARK    4  A    between atoms: C_21  and  C_22 
ROOT
HETATM    1  C   UNL     1      29.716  44.264  55.232  1.00  0.00     0.079 A 
HETATM    2  S   UNL     1      30.302  43.011  54.229  1.00  0.00    -0.064 SA
HETATM    3  C   UNL     1      28.918  43.047  53.245  1.00  0.00     0.112 A 
HETATM    4  C   UNL     1      27.985  43.997  53.641  1.00  0.00     0.043 A 
HETATM    5  C   UNL     1      28.465  44.688  54.809  1.00  0.00     0.060 A 
HETATM    6  N   UNL     1      28.828  42.205  52.199  1.00  0.00    -0.240 NA
HETATM    7  C   UNL     1      27.717  42.319  51.449  1.00  0.00     0.069 A 
HETATM    8  C   UNL     1      26.709  43.233  51.740  1.00  0.00     0.049 A 
HETATM    9  C   UNL     1      26.812  44.099  52.849  1.00  0.00     0.065 A 
ENDROOT
BRANCH   7  10
HETATM   10  C   UNL     1      27.642  41.398  50.294  1.00  0.00    -0.004 A 
HETATM   11  C   UNL     1      28.377  40.194  50.296  1.00  0.00     0.053 A 
HETATM   12  C   UNL     1      28.290  39.353  49.205  1.00  0.00     0.106 A 
HETATM   13  C   UNL     1      27.512  39.658  48.117  1.00  0.00     0.105 A 
HETATM   14  O   UNL     1      28.932  38.163  49.065  1.00  0.00    -0.323 OA
HETATM   15  O   UNL     1      27.567  38.702  47.152  1.00  0.00    -0.323 OA
HETATM   16  C   UNL     1      26.782  40.822  48.057  1.00  0.00     0.040 A 
HETATM   17  C   UNL     1      28.478  37.760  47.757  1.00  0.00     0.352 A 
HETATM   18  C   UNL     1      26.852  41.694  49.151  1.00  0.00     0.017 A 
ENDBRANCH   7  10
BRANCH   9  19
HETATM   19  C   UNL     1      25.720  45.103  53.101  1.00  0.00     0.418 C 
HETATM   20  F   UNL     1      26.150  46.397  53.061  1.00  0.00    -0.166 F 
HETATM   21  F   UNL     1      24.707  45.013  52.199  1.00  0.00    -0.166 F 
HETATM   22  F   UNL     1      25.135  44.958  54.325  1.00  0.00    -0.166 F 
ENDBRANCH   9  19
BRANCH   1  23
HETATM   23  C   UNL     1      30.479  44.749  56.381  1.00  0.00     0.164 C 
HETATM   24  C   UNL     1      31.393  43.793  57.115  1.00  0.00     0.097 C 
HETATM   25  O   UNL     1      30.399  45.915  56.779  1.00  0.00    -0.292 OA
ENDBRANCH   1  23
BRANCH   5  26
HETATM   26  N   UNL     1      27.780  45.668  55.445  1.00  0.00    -0.397 N 
HETATM   27  H   UNL     1      27.978  45.944  56.406  1.00  0.00     0.156 HD
HETATM   28  H   UNL     1      27.425  46.460  54.897  1.00  0.00     0.156 HD
ENDBRANCH   5  26
TORSDOF 4
ENDMDL
MODEL 10
REMARK VINA RESULT:      -7.9      4.033      7.044
REMARK  4 active torsions:
REMARK  status: ('A' for Active; 'I' for Inactive)
REMARK    1  A    between atoms: C_2  and  C_3 
REMARK    2  A    between atoms: C_7  and  N_8 
REMARK    3  A    between atoms: C_10  and  C_11 
REMARK    4  A    between atoms: C_21  and  C_22 
ROOT
HETATM    1  C   UNL     1      25.992  45.625  51.120  1.00  0.00     0.079 A 
HETATM    2  S   UNL     1      25.992  44.763  49.644  1.00  0.00    -0.064 SA
HETATM    3  C   UNL     1      26.873  43.473  50.308  1.00  0.00     0.112 A 
HETATM    4  C   UNL     1      27.188  43.653  51.649  1.00  0.00     0.043 A 
HETATM    5  C   UNL     1      26.674  44.920  52.100  1.00  0.00     0.060 A 
HETATM    6  N   UNL     1      27.182  42.416  49.534  1.00  0.00    -0.240 NA
HETATM    7  C   UNL     1      27.853  41.421  50.143  1.00  0.00     0.069 A 
HETATM    8  C   UNL     1      28.225  41.480  51.482  1.00  0.00     0.049 A 
HETATM    9  C   UNL     1      27.906  42.602  52.276  1.00  0.00     0.065 A 
ENDROOT
BRANCH   7  10
HETATM   10  C   UNL     1      28.170  40.260  49.283  1.00  0.00    -0.004 A 
HETATM   11  C   UNL     1      27.834  40.278  47.912  1.00  0.00     0.053 A 
HETATM   12  C   UNL     1      28.140  39.181  47.133  1.00  0.00     0.106 A 
HETATM   13  C   UNL     1      28.758  38.072  47.655  1.00  0.00     0.105 A 
HETATM   14  O   UNL     1      27.885  39.054  45.803  1.00  0.00    -0.323 OA
HETATM   15  O   UNL     1      28.967  37.105  46.723  1.00  0.00    -0.323 OA
HETATM   16  C   UNL     1      29.099  37.996  48.985  1.00  0.00     0.040 A 
HETATM   17  C   UNL     1      28.402  37.731  45.552  1.00  0.00     0.352 A 
HETATM   18  C   UNL     1      28.800  39.097  49.799  1.00  0.00     0.017 A 
ENDBRANCH   7  10
BRANCH   9  19
HETATM   19  C   UNL     1      28.288  42.605  53.731  1.00  0.00     0.418 C 
HETATM   20  F   UNL     1      27.221  42.703  54.574  1.00  0.00    -0.166 F 
HETATM   21  F   UNL     1      28.960  41.482  54.099  1.00  0.00    -0.166 F 
HETATM   22  F   UNL     1      29.105  43.646  54.065  1.00  0.00    -0.166 F 
ENDBRANCH   9  19
BRANCH   1  23
HETATM   23  C   UNL     1      25.358  46.936  51.244  1.00  0.00     0.164 C 
HETATM   24  C   UNL     1      24.702  47.556  50.031  1.00  0.00     0.097 C 
HETATM   25  O   UNL     1      25.346  47.563  52.309  1.00  0.00    -0.292 OA
ENDBRANCH   1  23
BRANCH   5  26
HETATM   26  N   UNL     1      26.825  45.394  53.360  1.00  0.00    -0.397 N 
HETATM   27  H   UNL     1      26.625  44.832  54.186  1.00  0.00     0.156 HD
HETATM   28  H   UNL     1      27.567  46.078  53.546  1.00  0.00     0.156 HD
ENDBRANCH   5  26
TORSDOF 4
ENDMDL
