MODEL 1
REMARK VINA RESULT:      -8.2      0.000      0.000
REMARK  9 active torsions:
REMARK  status: ('A' for Active; 'I' for Inactive)
REMARK    1  A    between atoms: C_6  and  C_7 
REMARK       I    between atoms: C_7  and  N_8 
REMARK    2  A    between atoms: N_8  and  C_9 
REMARK    3  A    between atoms: C_9  and  C_10 
REMARK    4  A    between atoms: N_15  and  C_17 
REMARK    5  A    between atoms: C_17  and  C_18 
REMARK    6  A    between atoms: C_21  and  C_22 
REMARK    7  A    between atoms: C_22  and  C_23 
REMARK    8  A    between atoms: C_23  and  C_24 
REMARK    9  A    between atoms: C_24  and  O_25 
ROOT
HETATM    1  C   UNL     1      17.154  51.452  48.552  1.00  0.00     0.140 C 
HETATM    2  O   UNL     1      18.066  50.337  48.474  1.00  0.00    -0.373 OA
HETATM    3  C   UNL     1      19.410  50.819  48.272  1.00  0.00     0.064 C 
HETATM    4  C   UNL     1      19.903  50.219  46.949  1.00  0.00     0.066 C 
HETATM    5  C   UNL     1      19.955  48.698  47.027  1.00  0.00     0.238 C 
HETATM    6  N   UNL     1      20.817  48.241  48.180  1.00  0.00    -0.067 N 
HETATM    7  H   UNL     1      20.654  47.229  48.245  1.00  0.00     0.280 HD
HETATM    8  C   UNL     1      20.325  48.811  49.492  1.00  0.00     0.238 C 
HETATM    9  C   UNL     1      20.287  50.331  49.428  1.00  0.00     0.066 C 
HETATM   10  C   UNL     1      19.325  52.345  48.224  1.00  0.00     0.041 C 
HETATM   11  C   UNL     1      17.878  52.599  47.869  1.00  0.00     0.036 C 
ENDROOT
BRANCH   1  12
HETATM   12  C   UNL     1      16.802  51.749  50.023  1.00  0.00     0.155 C 
BRANCH  12  13
HETATM   13  N   UNL     1      16.447  53.144  50.228  1.00  0.00    -0.353 N 
HETATM   14  C   UNL     1      15.164  53.555  50.518  1.00  0.00     0.270 C 
HETATM   15  O   UNL     1      14.242  52.757  50.677  1.00  0.00    -0.266 OA
HETATM   16  H   UNL     1      17.173  53.839  50.132  1.00  0.00     0.162 HD
BRANCH  14  17
HETATM   17  C   UNL     1      14.991  54.986  50.615  1.00  0.00     0.122 A 
HETATM   18  N   UNL     1      14.500  55.778  49.603  1.00  0.00    -0.269 N 
HETATM   19  N   UNL     1      14.482  57.091  49.898  1.00  0.00    -0.177 NA
HETATM   20  C   UNL     1      14.002  55.355  48.313  1.00  0.00     0.180 C 
HETATM   21  C   UNL     1      14.928  57.154  51.154  1.00  0.00     0.053 A 
HETATM   22  C   UNL     1      15.038  58.456  51.855  1.00  0.00     0.072 C 
HETATM   23  C   UNL     1      15.261  55.872  51.646  1.00  0.00     0.065 A 
ENDBRANCH  14  17
ENDBRANCH  12  13
ENDBRANCH   1  12
BRANCH   6  24
HETATM   24  C   UNL     1      22.310  48.379  47.986  1.00  0.00     0.273 C 
BRANCH  24  25
HETATM   25  C   UNL     1      23.115  47.504  48.909  1.00  0.00    -0.033 A 
HETATM   26  C   UNL     1      24.029  48.076  49.809  1.00  0.00     0.010 A 
HETATM   27  C   UNL     1      24.822  47.264  50.624  1.00  0.00     0.021 A 
HETATM   28  C   UNL     1      24.705  45.877  50.551  1.00  0.00     0.017 A 
HETATM   29  C   UNL     1      23.786  45.299  49.674  1.00  0.00     0.021 A 
HETATM   30  C   UNL     1      22.993  46.107  48.857  1.00  0.00     0.010 A 
BRANCH  28  31
HETATM   31  C   UNL     1      25.534  45.047  51.364  1.00  0.00    -0.064 C 
BRANCH  31  32
HETATM   32  C   UNL     1      26.266  44.273  52.116  1.00  0.00    -0.064 C 
BRANCH  32  33
HETATM   33  C   UNL     1      27.120  43.371  52.992  1.00  0.00     0.114 C 
HETATM   34  C   UNL     1      28.600  43.655  52.756  1.00  0.00     0.060 C 
HETATM   35  C   UNL     1      26.748  43.563  54.457  1.00  0.00     0.060 C 
BRANCH  33  36
HETATM   36  O   UNL     1      26.847  42.018  52.640  1.00  0.00    -0.378 OA
HETATM   37  H   UNL     1      27.702  41.567  52.542  1.00  0.00     0.211 HD
ENDBRANCH  33  36
ENDBRANCH  32  33
ENDBRANCH  31  32
ENDBRANCH  28  31
ENDBRANCH  24  25
ENDBRANCH   6  24
TORSDOF 9
ENDMDL
MODEL 2
REMARK VINA RESULT:      -8.1     12.496     14.958
REMARK  9 active torsions:
REMARK  status: ('A' for Active; 'I' for Inactive)
REMARK    1  A    between atoms: C_6  and  C_7 
REMARK       I    between atoms: C_7  and  N_8 
REMARK    2  A    between atoms: N_8  and  C_9 
REMARK    3  A    between atoms: C_9  and  C_10 
REMARK    4  A    between atoms: N_15  and  C_17 
REMARK    5  A    between atoms: C_17  and  C_18 
REMARK    6  A    between atoms: C_21  and  C_22 
REMARK    7  A    between atoms: C_22  and  C_23 
REMARK    8  A    between atoms: C_23  and  C_24 
REMARK    9  A    between atoms: C_24  and  O_25 
ROOT
HETATM    1  C   UNL     1      27.822  51.361  39.119  1.00  0.00     0.140 C 
HETATM    2  O   UNL     1      29.232  51.078  39.223  1.00  0.00    -0.373 OA
HETATM    3  C   UNL     1      29.526  50.530  40.523  1.00  0.00     0.064 C 
HETATM    4  C   UNL     1      30.533  51.477  41.187  1.00  0.00     0.066 C 
HETATM    5  C   UNL     1      31.833  51.531  40.395  1.00  0.00     0.238 C 
HETATM    6  N   UNL     1      32.424  50.151  40.223  1.00  0.00    -0.067 N 
HETATM    7  H   UNL     1      33.189  50.274  39.549  1.00  0.00     0.280 HD
HETATM    8  C   UNL     1      31.444  49.216  39.549  1.00  0.00     0.238 C 
HETATM    9  C   UNL     1      30.149  49.143  40.344  1.00  0.00     0.066 C 
HETATM   10  C   UNL     1      28.198  50.466  41.281  1.00  0.00     0.041 C 
HETATM   11  C   UNL     1      27.337  51.474  40.554  1.00  0.00     0.036 C 
ENDROOT
BRANCH   1  12
HETATM   12  C   UNL     1      27.111  50.245  38.327  1.00  0.00     0.155 C 
BRANCH  12  13
HETATM   13  N   UNL     1      25.669  50.425  38.305  1.00  0.00    -0.353 N 
HETATM   14  C   UNL     1      24.793  49.514  38.854  1.00  0.00     0.270 C 
HETATM   15  O   UNL     1      25.180  48.511  39.449  1.00  0.00    -0.266 OA
HETATM   16  H   UNL     1      25.298  51.245  37.847  1.00  0.00     0.162 HD
BRANCH  14  17
HETATM   17  C   UNL     1      23.395  49.827  38.670  1.00  0.00     0.122 A 
HETATM   18  N   UNL     1      22.643  49.420  37.591  1.00  0.00    -0.269 N 
HETATM   19  N   UNL     1      21.379  49.880  37.603  1.00  0.00    -0.177 NA
HETATM   20  C   UNL     1      23.055  48.564  36.502  1.00  0.00     0.180 C 
HETATM   21  C   UNL     1      21.287  50.567  38.744  1.00  0.00     0.053 A 
HETATM   22  C   UNL     1      20.016  51.225  39.132  1.00  0.00     0.072 C 
HETATM   23  C   UNL     1      22.514  50.568  39.443  1.00  0.00     0.065 A 
ENDBRANCH  14  17
ENDBRANCH  12  13
ENDBRANCH   1  12
BRANCH   6  24
HETATM   24  C   UNL     1      33.081  49.554  41.447  1.00  0.00     0.273 C 
BRANCH  24  25
HETATM   25  C   UNL     1      33.984  50.517  42.168  1.00  0.00    -0.033 A 
HETATM   26  C   UNL     1      35.307  50.705  41.737  1.00  0.00     0.010 A 
HETATM   27  C   UNL     1      36.168  51.552  42.440  1.00  0.00     0.021 A 
HETATM   28  C   UNL     1      35.714  52.220  43.575  1.00  0.00     0.017 A 
HETATM   29  C   UNL     1      34.395  52.054  44.002  1.00  0.00     0.021 A 
HETATM   30  C   UNL     1      33.532  51.208  43.302  1.00  0.00     0.010 A 
BRANCH  28  31
HETATM   31  C   UNL     1      36.599  53.064  44.310  1.00  0.00    -0.064 C 
BRANCH  31  32
HETATM   32  C   UNL     1      37.385  53.844  44.999  1.00  0.00    -0.064 C 
BRANCH  32  33
HETATM   33  C   UNL     1      38.302  54.753  45.802  1.00  0.00     0.114 C 
HETATM   34  C   UNL     1      38.288  54.349  47.273  1.00  0.00     0.060 C 
HETATM   35  C   UNL     1      39.714  54.706  45.230  1.00  0.00     0.060 C 
BRANCH  33  36
HETATM   36  O   UNL     1      37.821  56.088  45.685  1.00  0.00    -0.378 OA
HETATM   37  H   UNL     1      37.765  56.455  46.583  1.00  0.00     0.211 HD
ENDBRANCH  33  36
ENDBRANCH  32  33
ENDBRANCH  31  32
ENDBRANCH  28  31
ENDBRANCH  24  25
ENDBRANCH   6  24
TORSDOF 9
ENDMDL
MODEL 3
REMARK VINA RESULT:      -8.0      3.016     12.587
REMARK  9 active torsions:
REMARK  status: ('A' for Active; 'I' for Inactive)
REMARK    1  A    between atoms: C_6  and  C_7 
REMARK       I    between atoms: C_7  and  N_8 
REMARK    2  A    between atoms: N_8  and  C_9 
REMARK    3  A    between atoms: C_9  and  C_10 
REMARK    4  A    between atoms: N_15  and  C_17 
REMARK    5  A    between atoms: C_17  and  C_18 
REMARK    6  A    between atoms: C_21  and  C_22 
REMARK    7  A    between atoms: C_22  and  C_23 
REMARK    8  A    between atoms: C_23  and  C_24 
REMARK    9  A    between atoms: C_24  and  O_25 
ROOT
HETATM    1  C   UNL     1      23.534  48.715  49.496  1.00  0.00     0.140 C 
HETATM    2  O   UNL     1      22.096  48.829  49.526  1.00  0.00    -0.373 OA
HETATM    3  C   UNL     1      21.661  49.781  48.536  1.00  0.00     0.064 C 
HETATM    4  C   UNL     1      20.915  50.892  49.286  1.00  0.00     0.066 C 
HETATM    5  C   UNL     1      19.678  50.341  49.984  1.00  0.00     0.238 C 
HETATM    6  N   UNL     1      18.763  49.645  49.003  1.00  0.00    -0.067 N 
HETATM    7  H   UNL     1      18.061  49.175  49.587  1.00  0.00     0.280 HD
HETATM    8  C   UNL     1      19.486  48.534  48.274  1.00  0.00     0.238 C 
HETATM    9  C   UNL     1      20.713  49.080  47.559  1.00  0.00     0.066 C 
HETATM   10  C   UNL     1      22.923  50.294  47.839  1.00  0.00     0.041 C 
HETATM   11  C   UNL     1      24.015  49.997  48.840  1.00  0.00     0.036 C 
ENDROOT
BRANCH   1  12
HETATM   12  C   UNL     1      23.952  47.447  48.725  1.00  0.00     0.155 C 
BRANCH  12  13
HETATM   13  N   UNL     1      24.637  46.490  49.578  1.00  0.00    -0.353 N 
HETATM   14  C   UNL     1      26.004  46.490  49.755  1.00  0.00     0.270 C 
HETATM   15  O   UNL     1      26.730  47.339  49.242  1.00  0.00    -0.266 OA
HETATM   16  H   UNL     1      24.084  45.784  50.042  1.00  0.00     0.162 HD
BRANCH  14  17
HETATM   17  C   UNL     1      26.510  45.418  50.580  1.00  0.00     0.122 A 
HETATM   18  N   UNL     1      26.481  45.417  51.956  1.00  0.00    -0.269 N 
HETATM   19  N   UNL     1      27.063  44.339  52.513  1.00  0.00    -0.177 NA
HETATM   20  C   UNL     1      25.893  46.410  52.826  1.00  0.00     0.180 C 
HETATM   21  C   UNL     1      27.441  43.592  51.473  1.00  0.00     0.053 A 
HETATM   22  C   UNL     1      28.116  42.289  51.682  1.00  0.00     0.072 C 
HETATM   23  C   UNL     1      27.123  44.219  50.248  1.00  0.00     0.065 A 
ENDBRANCH  14  17
ENDBRANCH  12  13
ENDBRANCH   1  12
BRANCH   6  24
HETATM   24  C   UNL     1      17.965  50.545  48.088  1.00  0.00     0.273 C 
BRANCH  24  25
HETATM   25  C   UNL     1      17.083  51.515  48.826  1.00  0.00    -0.033 A 
HETATM   26  C   UNL     1      17.609  52.722  49.314  1.00  0.00     0.010 A 
HETATM   27  C   UNL     1      16.809  53.597  50.052  1.00  0.00     0.021 A 
HETATM   28  C   UNL     1      15.476  53.277  50.306  1.00  0.00     0.017 A 
HETATM   29  C   UNL     1      14.938  52.088  49.810  1.00  0.00     0.021 A 
HETATM   30  C   UNL     1      15.735  51.211  49.072  1.00  0.00     0.010 A 
BRANCH  28  31
HETATM   31  C   UNL     1      14.665  54.157  51.083  1.00  0.00    -0.064 C 
BRANCH  31  32
HETATM   32  C   UNL     1      13.946  54.981  51.793  1.00  0.00    -0.064 C 
BRANCH  32  33
HETATM   33  C   UNL     1      13.108  55.942  52.620  1.00  0.00     0.114 C 
HETATM   34  C   UNL     1      13.836  57.274  52.778  1.00  0.00     0.060 C 
HETATM   35  C   UNL     1      11.742  56.134  51.971  1.00  0.00     0.060 C 
BRANCH  33  36
HETATM   36  O   UNL     1      12.910  55.368  53.908  1.00  0.00    -0.378 OA
HETATM   37  H   UNL     1      13.119  54.421  53.837  1.00  0.00     0.211 HD
ENDBRANCH  33  36
ENDBRANCH  32  33
ENDBRANCH  31  32
ENDBRANCH  28  31
ENDBRANCH  24  25
ENDBRANCH   6  24
TORSDOF 9
ENDMDL
MODEL 4
REMARK VINA RESULT:      -8.0      1.841      2.370
REMARK  9 active torsions:
REMARK  status: ('A' for Active; 'I' for Inactive)
REMARK    1  A    between atoms: C_6  and  C_7 
REMARK       I    between atoms: C_7  and  N_8 
REMARK    2  A    between atoms: N_8  and  C_9 
REMARK    3  A    between atoms: C_9  and  C_10 
REMARK    4  A    between atoms: N_15  and  C_17 
REMARK    5  A    between atoms: C_17  and  C_18 
REMARK    6  A    between atoms: C_21  and  C_22 
REMARK    7  A    between atoms: C_22  and  C_23 
REMARK    8  A    between atoms: C_23  and  C_24 
REMARK    9  A    between atoms: C_24  and  O_25 
ROOT
HETATM    1  C   UNL     1      16.321  51.926  49.968  1.00  0.00     0.140 C 
HETATM    2  O   UNL     1      17.610  51.294  50.105  1.00  0.00    -0.373 OA
HETATM    3  C   UNL     1      18.073  50.845  48.817  1.00  0.00     0.064 C 
HETATM    4  C   UNL     1      18.265  49.327  48.917  1.00  0.00     0.066 C 
HETATM    5  C   UNL     1      19.333  48.980  49.948  1.00  0.00     0.238 C 
HETATM    6  N   UNL     1      20.640  49.668  49.631  1.00  0.00    -0.067 N 
HETATM    7  H   UNL     1      21.229  49.508  50.457  1.00  0.00     0.280 HD
HETATM    8  C   UNL     1      20.464  51.169  49.550  1.00  0.00     0.238 C 
HETATM    9  C   UNL     1      19.411  51.524  48.510  1.00  0.00     0.066 C 
HETATM   10  C   UNL     1      16.993  51.230  47.805  1.00  0.00     0.041 C 
HETATM   11  C   UNL     1      15.759  51.391  48.662  1.00  0.00     0.036 C 
ENDROOT
BRANCH   1  12
HETATM   12  C   UNL     1      16.477  53.460  49.977  1.00  0.00     0.155 C 
BRANCH  12  13
HETATM   13  N   UNL     1      15.628  54.089  50.975  1.00  0.00    -0.353 N 
HETATM   14  C   UNL     1      14.990  55.292  50.763  1.00  0.00     0.270 C 
HETATM   15  O   UNL     1      15.053  55.886  49.689  1.00  0.00    -0.266 OA
HETATM   16  H   UNL     1      15.523  53.631  51.868  1.00  0.00     0.162 HD
BRANCH  14  17
HETATM   17  C   UNL     1      14.250  55.796  51.897  1.00  0.00     0.122 A 
HETATM   18  N   UNL     1      12.878  55.894  51.948  1.00  0.00    -0.269 N 
HETATM   19  N   UNL     1      12.413  56.447  53.082  1.00  0.00    -0.177 NA
HETATM   20  C   UNL     1      11.925  55.458  50.952  1.00  0.00     0.180 C 
HETATM   21  C   UNL     1      13.506  56.674  53.813  1.00  0.00     0.053 A 
HETATM   22  C   UNL     1      13.403  57.273  55.165  1.00  0.00     0.072 C 
HETATM   23  C   UNL     1      14.676  56.290  53.120  1.00  0.00     0.065 A 
ENDBRANCH  14  17
ENDBRANCH  12  13
ENDBRANCH   1  12
BRANCH   6  24
HETATM   24  C   UNL     1      21.429  49.093  48.476  1.00  0.00     0.273 C 
BRANCH  24  25
HETATM   25  C   UNL     1      22.429  48.050  48.898  1.00  0.00    -0.033 A 
HETATM   26  C   UNL     1      22.230  46.701  48.562  1.00  0.00     0.010 A 
HETATM   27  C   UNL     1      23.122  45.722  49.004  1.00  0.00     0.021 A 
HETATM   28  C   UNL     1      24.223  46.081  49.780  1.00  0.00     0.017 A 
HETATM   29  C   UNL     1      24.441  47.422  50.104  1.00  0.00     0.021 A 
HETATM   30  C   UNL     1      23.550  48.403  49.665  1.00  0.00     0.010 A 
BRANCH  28  31
HETATM   31  C   UNL     1      25.121  45.079  50.255  1.00  0.00    -0.064 C 
BRANCH  31  32
HETATM   32  C   UNL     1      25.933  44.169  50.717  1.00  0.00    -0.064 C 
BRANCH  32  33
HETATM   33  C   UNL     1      26.878  43.108  51.255  1.00  0.00     0.114 C 
HETATM   34  C   UNL     1      27.285  42.149  50.140  1.00  0.00     0.060 C 
HETATM   35  C   UNL     1      28.099  43.768  51.886  1.00  0.00     0.060 C 
BRANCH  33  36
HETATM   36  O   UNL     1      26.197  42.375  52.269  1.00  0.00    -0.378 OA
HETATM   37  H   UNL     1      25.277  42.267  51.978  1.00  0.00     0.211 HD
ENDBRANCH  33  36
ENDBRANCH  32  33
ENDBRANCH  31  32
ENDBRANCH  28  31
ENDBRANCH  24  25
ENDBRANCH   6  24
TORSDOF 9
ENDMDL
MODEL 5
REMARK VINA RESULT:      -7.9      5.549     14.249
REMARK  9 active torsions:
REMARK  status: ('A' for Active; 'I' for Inactive)
REMARK    1  A    between atoms: C_6  and  C_7 
REMARK       I    between atoms: C_7  and  N_8 
REMARK    2  A    between atoms: N_8  and  C_9 
REMARK    3  A    between atoms: C_9  and  C_10 
REMARK    4  A    between atoms: N_15  and  C_17 
REMARK    5  A    between atoms: C_17  and  C_18 
REMARK    6  A    between atoms: C_21  and  C_22 
REMARK    7  A    between atoms: C_22  and  C_23 
REMARK    8  A    between atoms: C_23  and  C_24 
REMARK    9  A    between atoms: C_24  and  O_25 
ROOT
HETATM    1  C   UNL     1      27.966  41.713  53.608  1.00  0.00     0.140 C 
HETATM    2  O   UNL     1      27.133  42.449  52.689  1.00  0.00    -0.373 OA
HETATM    3  C   UNL     1      27.751  43.712  52.374  1.00  0.00     0.064 C 
HETATM    4  C   UNL     1      26.771  44.807  52.810  1.00  0.00     0.066 C 
HETATM    5  C   UNL     1      25.466  44.714  52.028  1.00  0.00     0.238 C 
HETATM    6  N   UNL     1      25.718  44.778  50.540  1.00  0.00    -0.067 N 
HETATM    7  H   UNL     1      24.815  44.543  50.110  1.00  0.00     0.280 HD
HETATM    8  C   UNL     1      26.668  43.687  50.097  1.00  0.00     0.238 C 
HETATM    9  C   UNL     1      27.980  43.785  50.861  1.00  0.00     0.066 C 
HETATM   10  C   UNL     1      29.067  43.762  53.153  1.00  0.00     0.041 C 
HETATM   11  C   UNL     1      28.847  42.762  54.265  1.00  0.00     0.036 C 
ENDROOT
BRANCH   1  12
HETATM   12  C   UNL     1      28.770  40.635  52.853  1.00  0.00     0.155 C 
BRANCH  12  13
HETATM   13  N   UNL     1      28.306  40.466  51.486  1.00  0.00    -0.353 N 
HETATM   14  C   UNL     1      28.784  39.480  50.650  1.00  0.00     0.270 C 
HETATM   15  O   UNL     1      29.599  38.641  51.028  1.00  0.00    -0.266 OA
HETATM   16  H   UNL     1      27.618  41.115  51.132  1.00  0.00     0.162 HD
BRANCH  14  17
HETATM   17  C   UNL     1      28.259  39.514  49.305  1.00  0.00     0.122 A 
HETATM   18  N   UNL     1      27.433  38.553  48.769  1.00  0.00    -0.269 N 
HETATM   19  N   UNL     1      27.116  38.764  47.479  1.00  0.00    -0.177 NA
HETATM   20  C   UNL     1      26.878  37.396  49.435  1.00  0.00     0.180 C 
HETATM   21  C   UNL     1      27.711  39.919  47.177  1.00  0.00     0.053 A 
HETATM   22  C   UNL     1      27.579  40.508  45.822  1.00  0.00     0.072 C 
HETATM   23  C   UNL     1      28.437  40.427  48.277  1.00  0.00     0.065 A 
ENDBRANCH  14  17
ENDBRANCH  12  13
ENDBRANCH   1  12
BRANCH   6  24
HETATM   24  C   UNL     1      26.066  46.140  49.985  1.00  0.00     0.273 C 
BRANCH  24  25
HETATM   25  C   UNL     1      24.862  46.937  49.559  1.00  0.00    -0.033 A 
HETATM   26  C   UNL     1      24.912  48.340  49.538  1.00  0.00     0.010 A 
HETATM   27  C   UNL     1      23.779  49.084  49.203  1.00  0.00     0.021 A 
HETATM   28  C   UNL     1      22.588  48.435  48.882  1.00  0.00     0.017 A 
HETATM   29  C   UNL     1      22.532  47.040  48.882  1.00  0.00     0.021 A 
HETATM   30  C   UNL     1      23.664  46.292  49.217  1.00  0.00     0.010 A 
BRANCH  28  31
HETATM   31  C   UNL     1      21.422  49.194  48.566  1.00  0.00    -0.064 C 
BRANCH  31  32
HETATM   32  C   UNL     1      20.372  49.904  48.257  1.00  0.00    -0.064 C 
BRANCH  32  33
HETATM   33  C   UNL     1      19.150  50.731  47.897  1.00  0.00     0.114 C 
HETATM   34  C   UNL     1      19.333  52.173  48.362  1.00  0.00     0.060 C 
HETATM   35  C   UNL     1      18.898  50.665  46.395  1.00  0.00     0.060 C 
BRANCH  33  36
HETATM   36  O   UNL     1      18.020  50.171  48.559  1.00  0.00    -0.378 OA
HETATM   37  H   UNL     1      17.274  50.778  48.420  1.00  0.00     0.211 HD
ENDBRANCH  33  36
ENDBRANCH  32  33
ENDBRANCH  31  32
ENDBRANCH  28  31
ENDBRANCH  24  25
ENDBRANCH   6  24
TORSDOF 9
ENDMDL
MODEL 6
REMARK VINA RESULT:      -7.7      3.110     12.760
REMARK  9 active torsions:
REMARK  status: ('A' for Active; 'I' for Inactive)
REMARK    1  A    between atoms: C_6  and  C_7 
REMARK       I    between atoms: C_7  and  N_8 
REMARK    2  A    between atoms: N_8  and  C_9 
REMARK    3  A    between atoms: C_9  and  C_10 
REMARK    4  A    between atoms: N_15  and  C_17 
REMARK    5  A    between atoms: C_17  and  C_18 
REMARK    6  A    between atoms: C_21  and  C_22 
REMARK    7  A    between atoms: C_22  and  C_23 
REMARK    8  A    between atoms: C_23  and  C_24 
REMARK    9  A    between atoms: C_24  and  O_25 
ROOT
HETATM    1  C   UNL     1      24.065  47.379  49.830  1.00  0.00     0.140 C 
HETATM    2  O   UNL     1      22.655  47.533  49.570  1.00  0.00    -0.373 OA
HETATM    3  C   UNL     1      22.451  48.546  48.566  1.00  0.00     0.064 C 
HETATM    4  C   UNL     1      21.586  49.638  49.206  1.00  0.00     0.066 C 
HETATM    5  C   UNL     1      20.221  49.089  49.603  1.00  0.00     0.238 C 
HETATM    6  N   UNL     1      19.517  48.470  48.419  1.00  0.00    -0.067 N 
HETATM    7  H   UNL     1      18.701  47.991  48.818  1.00  0.00     0.280 HD
HETATM    8  C   UNL     1      20.355  47.376  47.794  1.00  0.00     0.238 C 
HETATM    9  C   UNL     1      21.714  47.922  47.377  1.00  0.00     0.066 C 
HETATM   10  C   UNL     1      23.838  49.057  48.172  1.00  0.00     0.041 C 
HETATM   11  C   UNL     1      24.695  48.678  49.358  1.00  0.00     0.036 C 
ENDROOT
BRANCH   1  12
HETATM   12  C   UNL     1      24.611  46.140  49.093  1.00  0.00     0.155 C 
BRANCH  12  13
HETATM   13  N   UNL     1      25.308  45.234  49.990  1.00  0.00    -0.353 N 
HETATM   14  C   UNL     1      26.680  45.102  50.003  1.00  0.00     0.270 C 
HETATM   15  O   UNL     1      27.410  45.787  49.289  1.00  0.00    -0.266 OA
HETATM   16  H   UNL     1      24.757  44.664  50.615  1.00  0.00     0.162 HD
BRANCH  14  17
HETATM   17  C   UNL     1      27.187  44.099  50.911  1.00  0.00     0.122 A 
HETATM   18  N   UNL     1      27.309  42.763  50.603  1.00  0.00    -0.269 N 
HETATM   19  N   UNL     1      27.749  42.007  51.625  1.00  0.00    -0.177 NA
HETATM   20  C   UNL     1      27.043  42.122  49.335  1.00  0.00     0.180 C 
HETATM   21  C   UNL     1      27.966  42.878  52.613  1.00  0.00     0.053 A 
HETATM   22  C   UNL     1      28.483  42.421  53.925  1.00  0.00     0.072 C 
HETATM   23  C   UNL     1      27.629  44.192  52.222  1.00  0.00     0.065 A 
ENDBRANCH  14  17
ENDBRANCH  12  13
ENDBRANCH   1  12
BRANCH   6  24
HETATM   24  C   UNL     1      18.942  49.437  47.409  1.00  0.00     0.273 C 
BRANCH  24  25
HETATM   25  C   UNL     1      18.155  50.555  48.037  1.00  0.00    -0.033 A 
HETATM   26  C   UNL     1      18.744  51.815  48.232  1.00  0.00     0.010 A 
HETATM   27  C   UNL     1      18.038  52.837  48.869  1.00  0.00     0.021 A 
HETATM   28  C   UNL     1      16.736  52.613  49.313  1.00  0.00     0.017 A 
HETATM   29  C   UNL     1      16.133  51.370  49.109  1.00  0.00     0.021 A 
HETATM   30  C   UNL     1      16.837  50.346  48.472  1.00  0.00     0.010 A 
BRANCH  28  31
HETATM   31  C   UNL     1      16.022  53.648  49.989  1.00  0.00    -0.064 C 
BRANCH  31  32
HETATM   32  C   UNL     1      15.361  54.573  50.627  1.00  0.00    -0.064 C 
BRANCH  32  33
HETATM   33  C   UNL     1      14.590  55.652  51.370  1.00  0.00     0.114 C 
HETATM   34  C   UNL     1      14.662  55.408  52.875  1.00  0.00     0.060 C 
HETATM   35  C   UNL     1      15.137  57.028  51.008  1.00  0.00     0.060 C 
BRANCH  33  36
HETATM   36  O   UNL     1      13.229  55.594  50.957  1.00  0.00    -0.378 OA
HETATM   37  H   UNL     1      12.728  56.199  51.528  1.00  0.00     0.211 HD
ENDBRANCH  33  36
ENDBRANCH  32  33
ENDBRANCH  31  32
ENDBRANCH  28  31
ENDBRANCH  24  25
ENDBRANCH   6  24
TORSDOF 9
ENDMDL
MODEL 7
REMARK VINA RESULT:      -7.7      1.559      1.968
REMARK  9 active torsions:
REMARK  status: ('A' for Active; 'I' for Inactive)
REMARK    1  A    between atoms: C_6  and  C_7 
REMARK       I    between atoms: C_7  and  N_8 
REMARK    2  A    between atoms: N_8  and  C_9 
REMARK    3  A    between atoms: C_9  and  C_10 
REMARK    4  A    between atoms: N_15  and  C_17 
REMARK    5  A    between atoms: C_17  and  C_18 
REMARK    6  A    between atoms: C_21  and  C_22 
REMARK    7  A    between atoms: C_22  and  C_23 
REMARK    8  A    between atoms: C_23  and  C_24 
REMARK    9  A    between atoms: C_24  and  O_25 
ROOT
HETATM    1  C   UNL     1      17.561  51.134  48.773  1.00  0.00     0.140 C 
HETATM    2  O   UNL     1      18.607  50.232  49.188  1.00  0.00    -0.373 OA
HETATM    3  C   UNL     1      19.684  50.261  48.231  1.00  0.00     0.064 C 
HETATM    4  C   UNL     1      19.836  48.835  47.689  1.00  0.00     0.066 C 
HETATM    5  C   UNL     1      20.221  47.867  48.802  1.00  0.00     0.238 C 
HETATM    6  N   UNL     1      21.484  48.315  49.500  1.00  0.00    -0.067 N 
HETATM    7  H   UNL     1      21.562  47.704  50.321  1.00  0.00     0.280 HD
HETATM    8  C   UNL     1      21.336  49.715  50.056  1.00  0.00     0.238 C 
HETATM    9  C   UNL     1      20.969  50.690  48.947  1.00  0.00     0.066 C 
HETATM   10  C   UNL     1      19.277  51.257  47.144  1.00  0.00     0.041 C 
HETATM   11  C   UNL     1      17.773  51.322  47.281  1.00  0.00     0.036 C 
ENDROOT
BRANCH   1  12
HETATM   12  C   UNL     1      17.649  52.453  49.567  1.00  0.00     0.155 C 
BRANCH  12  13
HETATM   13  N   UNL     1      16.683  53.435  49.104  1.00  0.00    -0.353 N 
HETATM   14  C   UNL     1      15.342  53.370  49.415  1.00  0.00     0.270 C 
HETATM   15  O   UNL     1      14.884  52.503  50.155  1.00  0.00    -0.266 OA
HETATM   16  H   UNL     1      17.012  54.183  48.510  1.00  0.00     0.162 HD
BRANCH  14  17
HETATM   17  C   UNL     1      14.525  54.393  48.804  1.00  0.00     0.122 A 
HETATM   18  N   UNL     1      14.187  54.422  47.470  1.00  0.00    -0.269 N 
HETATM   19  N   UNL     1      13.467  55.501  47.113  1.00  0.00    -0.177 NA
HETATM   20  C   UNL     1      14.499  53.436  46.459  1.00  0.00     0.180 C 
HETATM   21  C   UNL     1      13.289  56.172  48.253  1.00  0.00     0.053 A 
HETATM   22  C   UNL     1      12.513  57.435  48.276  1.00  0.00     0.072 C 
HETATM   23  C   UNL     1      13.930  55.527  49.334  1.00  0.00     0.065 A 
ENDBRANCH  14  17
ENDBRANCH  12  13
ENDBRANCH   1  12
BRANCH   6  24
HETATM   24  C   UNL     1      22.773  48.105  48.738  1.00  0.00     0.273 C 
BRANCH  24  25
HETATM   25  C   UNL     1      23.783  47.283  49.492  1.00  0.00    -0.033 A 
HETATM   26  C   UNL     1      23.618  45.894  49.614  1.00  0.00     0.010 A 
HETATM   27  C   UNL     1      24.520  45.136  50.364  1.00  0.00     0.021 A 
HETATM   28  C   UNL     1      25.597  45.757  50.994  1.00  0.00     0.017 A 
HETATM   29  C   UNL     1      25.782  47.135  50.863  1.00  0.00     0.021 A 
HETATM   30  C   UNL     1      24.881  47.896  50.115  1.00  0.00     0.010 A 
BRANCH  28  31
HETATM   31  C   UNL     1      26.505  44.988  51.783  1.00  0.00    -0.064 C 
BRANCH  31  32
HETATM   32  C   UNL     1      27.310  44.274  52.518  1.00  0.00    -0.064 C 
BRANCH  32  33
HETATM   33  C   UNL     1      28.249  43.441  53.376  1.00  0.00     0.114 C 
HETATM   34  C   UNL     1      29.428  42.950  52.541  1.00  0.00     0.060 C 
HETATM   35  C   UNL     1      28.723  44.257  54.573  1.00  0.00     0.060 C 
BRANCH  33  36
HETATM   36  O   UNL     1      27.527  42.315  53.865  1.00  0.00    -0.378 OA
HETATM   37  H   UNL     1      26.582  42.498  53.730  1.00  0.00     0.211 HD
ENDBRANCH  33  36
ENDBRANCH  32  33
ENDBRANCH  31  32
ENDBRANCH  28  31
ENDBRANCH  24  25
ENDBRANCH   6  24
TORSDOF 9
ENDMDL
MODEL 8
REMARK VINA RESULT:      -7.7      4.202      6.640
REMARK  9 active torsions:
REMARK  status: ('A' for Active; 'I' for Inactive)
REMARK    1  A    between atoms: C_6  and  C_7 
REMARK       I    between atoms: C_7  and  N_8 
REMARK    2  A    between atoms: N_8  and  C_9 
REMARK    3  A    between atoms: C_9  and  C_10 
REMARK    4  A    between atoms: N_15  and  C_17 
REMARK    5  A    between atoms: C_17  and  C_18 
REMARK    6  A    between atoms: C_21  and  C_22 
REMARK    7  A    between atoms: C_22  and  C_23 
REMARK    8  A    between atoms: C_23  and  C_24 
REMARK    9  A    between atoms: C_24  and  O_25 
ROOT
HETATM    1  C   UNL     1      19.396  51.024  47.318  1.00  0.00     0.140 C 
HETATM    2  O   UNL     1      20.662  50.335  47.375  1.00  0.00    -0.373 OA
HETATM    3  C   UNL     1      21.206  50.423  48.706  1.00  0.00     0.064 C 
HETATM    4  C   UNL     1      22.562  51.131  48.585  1.00  0.00     0.066 C 
HETATM    5  C   UNL     1      23.528  50.315  47.735  1.00  0.00     0.238 C 
HETATM    6  N   UNL     1      23.696  48.919  48.289  1.00  0.00    -0.067 N 
HETATM    7  H   UNL     1      24.222  48.411  47.567  1.00  0.00     0.280 HD
HETATM    8  C   UNL     1      22.366  48.207  48.391  1.00  0.00     0.238 C 
HETATM    9  C   UNL     1      21.401  49.007  49.255  1.00  0.00     0.066 C 
HETATM   10  C   UNL     1      20.203  51.225  49.537  1.00  0.00     0.041 C 
HETATM   11  C   UNL     1      19.420  51.986  48.492  1.00  0.00     0.036 C 
ENDROOT
BRANCH   1  12
HETATM   12  C   UNL     1      18.235  50.012  47.389  1.00  0.00     0.155 C 
BRANCH  12  13
HETATM   13  N   UNL     1      18.635  48.689  46.940  1.00  0.00    -0.353 N 
HETATM   14  C   UNL     1      18.388  47.545  47.667  1.00  0.00     0.270 C 
HETATM   15  O   UNL     1      17.761  47.565  48.724  1.00  0.00    -0.266 OA
HETATM   16  H   UNL     1      19.134  48.614  46.065  1.00  0.00     0.162 HD
BRANCH  14  17
HETATM   17  C   UNL     1      18.925  46.332  47.095  1.00  0.00     0.122 A 
HETATM   18  N   UNL     1      18.303  45.594  46.114  1.00  0.00    -0.269 N 
HETATM   19  N   UNL     1      18.961  44.471  45.777  1.00  0.00    -0.177 NA
HETATM   20  C   UNL     1      17.071  45.905  45.425  1.00  0.00     0.180 C 
HETATM   21  C   UNL     1      20.068  44.499  46.522  1.00  0.00     0.053 A 
HETATM   22  C   UNL     1      21.078  43.418  46.420  1.00  0.00     0.072 C 
HETATM   23  C   UNL     1      20.093  45.634  47.361  1.00  0.00     0.065 A 
ENDBRANCH  14  17
ENDBRANCH  12  13
ENDBRANCH   1  12
BRANCH   6  24
HETATM   24  C   UNL     1      24.541  48.799  49.537  1.00  0.00     0.273 C 
BRANCH  24  25
HETATM   25  C   UNL     1      25.053  47.405  49.779  1.00  0.00    -0.033 A 
HETATM   26  C   UNL     1      24.191  46.408  50.263  1.00  0.00     0.010 A 
HETATM   27  C   UNL     1      24.676  45.129  50.546  1.00  0.00     0.021 A 
HETATM   28  C   UNL     1      26.023  44.834  50.344  1.00  0.00     0.017 A 
HETATM   29  C   UNL     1      26.885  45.812  49.846  1.00  0.00     0.021 A 
HETATM   30  C   UNL     1      26.403  47.092  49.562  1.00  0.00     0.010 A 
BRANCH  28  31
HETATM   31  C   UNL     1      26.525  43.535  50.659  1.00  0.00    -0.064 C 
BRANCH  31  32
HETATM   32  C   UNL     1      27.001  42.350  50.921  1.00  0.00    -0.064 C 
BRANCH  32  33
HETATM   33  C   UNL     1      27.555  40.968  51.226  1.00  0.00     0.114 C 
HETATM   34  C   UNL     1      28.205  40.374  49.980  1.00  0.00     0.060 C 
HETATM   35  C   UNL     1      28.546  41.046  52.382  1.00  0.00     0.060 C 
BRANCH  33  36
HETATM   36  O   UNL     1      26.474  40.131  51.627  1.00  0.00    -0.378 OA
HETATM   37  H   UNL     1      26.807  39.219  51.647  1.00  0.00     0.211 HD
ENDBRANCH  33  36
ENDBRANCH  32  33
ENDBRANCH  31  32
ENDBRANCH  28  31
ENDBRANCH  24  25
ENDBRANCH   6  24
TORSDOF 9
ENDMDL
MODEL 9
REMARK VINA RESULT:      -7.7      3.908      6.234
REMARK  9 active torsions:
REMARK  status: ('A' for Active; 'I' for Inactive)
REMARK    1  A    between atoms: C_6  and  C_7 
REMARK       I    between atoms: C_7  and  N_8 
REMARK    2  A    between atoms: N_8  and  C_9 
REMARK    3  A    between atoms: C_9  and  C_10 
REMARK    4  A    between atoms: N_15  and  C_17 
REMARK    5  A    between atoms: C_17  and  C_18 
REMARK    6  A    between atoms: C_21  and  C_22 
REMARK    7  A    between atoms: C_22  and  C_23 
REMARK    8  A    between atoms: C_23  and  C_24 
REMARK    9  A    between atoms: C_24  and  O_25 
ROOT
HETATM    1  C   UNL     1      18.722  51.076  47.231  1.00  0.00     0.140 C 
HETATM    2  O   UNL     1      19.891  50.246  47.389  1.00  0.00    -0.373 OA
HETATM    3  C   UNL     1      20.489  50.485  48.679  1.00  0.00     0.064 C 
HETATM    4  C   UNL     1      21.918  50.978  48.422  1.00  0.00     0.066 C 
HETATM    5  C   UNL     1      22.743  49.911  47.711  1.00  0.00     0.238 C 
HETATM    6  N   UNL     1      22.751  48.619  48.493  1.00  0.00    -0.067 N 
HETATM    7  H   UNL     1      23.182  47.932  47.863  1.00  0.00     0.280 HD
HETATM    8  C   UNL     1      21.345  48.114  48.733  1.00  0.00     0.238 C 
HETATM    9  C   UNL     1      20.521  49.167  49.459  1.00  0.00     0.066 C 
HETATM   10  C   UNL     1      19.624  51.539  49.373  1.00  0.00     0.041 C 
HETATM   11  C   UNL     1      18.910  52.211  48.224  1.00  0.00     0.036 C 
ENDROOT
BRANCH   1  12
HETATM   12  C   UNL     1      17.445  50.252  47.489  1.00  0.00     0.155 C 
BRANCH  12  13
HETATM   13  N   UNL     1      17.538  48.912  46.934  1.00  0.00    -0.353 N 
HETATM   14  C   UNL     1      16.498  48.009  46.978  1.00  0.00     0.270 C 
HETATM   15  O   UNL     1      15.399  48.301  47.445  1.00  0.00    -0.266 OA
HETATM   16  H   UNL     1      18.414  48.629  46.517  1.00  0.00     0.162 HD
BRANCH  14  17
HETATM   17  C   UNL     1      16.802  46.703  46.441  1.00  0.00     0.122 A 
HETATM   18  N   UNL     1      17.522  45.738  47.107  1.00  0.00    -0.269 N 
HETATM   19  N   UNL     1      17.732  44.621  46.387  1.00  0.00    -0.177 NA
HETATM   20  C   UNL     1      18.038  45.796  48.456  1.00  0.00     0.180 C 
HETATM   21  C   UNL     1      17.091  44.842  45.238  1.00  0.00     0.053 A 
HETATM   22  C   UNL     1      17.074  43.814  44.169  1.00  0.00     0.072 C 
HETATM   23  C   UNL     1      16.498  46.124  45.219  1.00  0.00     0.065 A 
ENDBRANCH  14  17
ENDBRANCH  12  13
ENDBRANCH   1  12
BRANCH   6  24
HETATM   24  C   UNL     1      23.616  48.600  49.733  1.00  0.00     0.273 C 
BRANCH  24  25
HETATM   25  C   UNL     1      24.210  47.249  50.026  1.00  0.00    -0.033 A 
HETATM   26  C   UNL     1      25.045  47.068  51.140  1.00  0.00     0.010 A 
HETATM   27  C   UNL     1      25.647  45.831  51.381  1.00  0.00     0.021 A 
HETATM   28  C   UNL     1      25.417  44.763  50.515  1.00  0.00     0.017 A 
HETATM   29  C   UNL     1      24.574  44.927  49.414  1.00  0.00     0.021 A 
HETATM   30  C   UNL     1      23.971  46.162  49.170  1.00  0.00     0.010 A 
BRANCH  28  31
HETATM   31  C   UNL     1      26.053  43.506  50.745  1.00  0.00    -0.064 C 
BRANCH  31  32
HETATM   32  C   UNL     1      26.615  42.353  50.978  1.00  0.00    -0.064 C 
BRANCH  32  33
HETATM   33  C   UNL     1      27.271  41.009  51.250  1.00  0.00     0.114 C 
HETATM   34  C   UNL     1      28.040  40.540  50.018  1.00  0.00     0.060 C 
HETATM   35  C   UNL     1      28.185  41.111  52.465  1.00  0.00     0.060 C 
BRANCH  33  36
HETATM   36  O   UNL     1      26.247  40.064  51.544  1.00  0.00    -0.378 OA
HETATM   37  H   UNL     1      26.309  39.356  50.881  1.00  0.00     0.211 HD
ENDBRANCH  33  36
ENDBRANCH  32  33
ENDBRANCH  31  32
ENDBRANCH  28  31
ENDBRANCH  24  25
ENDBRANCH   6  24
TORSDOF 9
ENDMDL
MODEL 10
REMARK VINA RESULT:      -7.6      4.198     12.343
REMARK  9 active torsions:
REMARK  status: ('A' for Active; 'I' for Inactive)
REMARK    1  A    between atoms: C_6  and  C_7 
REMARK       I    between atoms: C_7  and  N_8 
REMARK    2  A    between atoms: N_8  and  C_9 
REMARK    3  A    between atoms: C_9  and  C_10 
REMARK    4  A    between atoms: N_15  and  C_17 
REMARK    5  A    between atoms: C_17  and  C_18 
REMARK    6  A    between atoms: C_21  and  C_22 
REMARK    7  A    between atoms: C_22  and  C_23 
REMARK    8  A    between atoms: C_23  and  C_24 
REMARK    9  A    between atoms: C_24  and  O_25 
ROOT
HETATM    1  C   UNL     1      24.706  48.111  50.020  1.00  0.00     0.140 C 
HETATM    2  O   UNL     1      23.376  48.666  50.082  1.00  0.00    -0.373 OA
HETATM    3  C   UNL     1      23.124  49.462  48.907  1.00  0.00     0.064 C 
HETATM    4  C   UNL     1      22.822  50.885  49.391  1.00  0.00     0.066 C 
HETATM    5  C   UNL     1      21.567  50.912  50.256  1.00  0.00     0.238 C 
HETATM    6  N   UNL     1      20.384  50.332  49.518  1.00  0.00    -0.067 N 
HETATM    7  H   UNL     1      19.648  50.243  50.228  1.00  0.00     0.280 HD
HETATM    8  C   UNL     1      20.666  48.919  49.055  1.00  0.00     0.238 C 
HETATM    9  C   UNL     1      21.907  48.888  48.175  1.00  0.00     0.066 C 
HETATM   10  C   UNL     1      24.390  49.393  48.052  1.00  0.00     0.041 C 
HETATM   11  C   UNL     1      25.458  49.004  49.047  1.00  0.00     0.036 C 
ENDROOT
BRANCH   1  12
HETATM   12  C   UNL     1      24.649  46.639  49.568  1.00  0.00     0.155 C 
BRANCH  12  13
HETATM   13  N   UNL     1      25.692  45.837  50.184  1.00  0.00    -0.353 N 
HETATM   14  C   UNL     1      25.465  45.019  51.270  1.00  0.00     0.270 C 
HETATM   15  O   UNL     1      24.345  44.872  51.755  1.00  0.00    -0.266 OA
HETATM   16  H   UNL     1      26.628  45.903  49.809  1.00  0.00     0.162 HD
BRANCH  14  17
HETATM   17  C   UNL     1      26.639  44.357  51.790  1.00  0.00     0.122 A 
HETATM   18  N   UNL     1      27.251  43.279  51.193  1.00  0.00    -0.269 N 
HETATM   19  N   UNL     1      28.295  42.791  51.888  1.00  0.00    -0.177 NA
HETATM   20  C   UNL     1      26.910  42.656  49.934  1.00  0.00     0.180 C 
HETATM   21  C   UNL     1      28.399  43.602  52.943  1.00  0.00     0.053 A 
HETATM   22  C   UNL     1      29.464  43.397  53.954  1.00  0.00     0.072 C 
HETATM   23  C   UNL     1      27.391  44.591  52.931  1.00  0.00     0.065 A 
ENDBRANCH  14  17
ENDBRANCH  12  13
ENDBRANCH   1  12
BRANCH   6  24
HETATM   24  C   UNL     1      19.779  51.207  48.443  1.00  0.00     0.273 C 
BRANCH  24  25
HETATM   25  C   UNL     1      18.591  50.583  47.764  1.00  0.00    -0.033 A 
HETATM   26  C   UNL     1      17.393  50.387  48.471  1.00  0.00     0.010 A 
HETATM   27  C   UNL     1      16.308  49.752  47.863  1.00  0.00     0.021 A 
HETATM   28  C   UNL     1      16.407  49.312  46.544  1.00  0.00     0.017 A 
HETATM   29  C   UNL     1      17.586  49.518  45.826  1.00  0.00     0.021 A 
HETATM   30  C   UNL     1      18.674  50.152  46.431  1.00  0.00     0.010 A 
BRANCH  28  31
HETATM   31  C   UNL     1      15.308  48.639  45.930  1.00  0.00    -0.064 C 
BRANCH  31  32
HETATM   32  C   UNL     1      14.309  48.000  45.387  1.00  0.00    -0.064 C 
BRANCH  32  33
HETATM   33  C   UNL     1      13.145  47.256  44.754  1.00  0.00     0.114 C 
HETATM   34  C   UNL     1      12.372  48.183  43.821  1.00  0.00     0.060 C 
HETATM   35  C   UNL     1      13.654  46.025  44.012  1.00  0.00     0.060 C 
BRANCH  33  36
HETATM   36  O   UNL     1      12.276  46.818  45.794  1.00  0.00    -0.378 OA
HETATM   37  H   UNL     1      11.424  47.265  45.666  1.00  0.00     0.211 HD
ENDBRANCH  33  36
ENDBRANCH  32  33
ENDBRANCH  31  32
ENDBRANCH  28  31
ENDBRANCH  24  25
ENDBRANCH   6  24
TORSDOF 9
ENDMDL
